MODEL 1
REMARK VINA RESULT:      -8.8      0.000      0.000
REMARK  6 active torsions:
REMARK  status: ('A' for Active; 'I' for Inactive)
REMARK    1  A    between atoms: C2_2  and  N1_3 
REMARK    2  A    between atoms: N1_3  and  O1_4 
REMARK    3  A    between atoms: O1_4  and  C3_5 
REMARK    4  A    between atoms: C3_5  and  C4_7 
REMARK    5  A    between atoms: C5_8  and  C6_9 
REMARK    6  A    between atoms: C6_9  and  C7_10 
ROOT
HETATM    1  C4  UNL     1      27.318   0.283  53.023  1.00  0.00     0.118 A 
HETATM    2  C5  UNL     1      26.167  -0.239  52.662  1.00  0.00    -0.015 A 
HETATM    3  C17 UNL     1      26.424  -1.696  52.743  1.00  0.00     0.129 A 
HETATM    4  N2  UNL     1      27.638  -1.949  53.125  1.00  0.00    -0.221 NA
HETATM    5  C18 UNL     1      28.330  -0.718  53.341  1.00  0.00     0.283 A 
HETATM    6  O3  UNL     1      29.518  -0.552  53.714  1.00  0.00    -0.265 OA
ENDROOT
BRANCH   2   7
HETATM    7  C6  UNL     1      24.919   0.444  52.260  1.00  0.00     0.076 C 
BRANCH   7   8
HETATM    8  C7  UNL     1      23.771   0.144  53.127  1.00  0.00    -0.067 A 
HETATM    9  C8  UNL     1      23.895  -0.794  54.057  1.00  0.00     0.004 A 
HETATM   10  C9  UNL     1      22.798  -1.148  54.959  1.00  0.00    -0.003 A 
HETATM   11  C10 UNL     1      21.675  -0.473  54.790  1.00  0.00    -0.017 A 
HETATM   12  C11 UNL     1      21.401   0.586  53.810  1.00  0.00     0.042 A 
HETATM   13  C12 UNL     1      20.133   0.190  53.111  1.00  0.00    -0.017 A 
HETATM   14  C16 UNL     1      22.517   0.928  52.895  1.00  0.00     0.048 A 
HETATM   15  C13 UNL     1      19.857   0.105  51.820  1.00  0.00    -0.004 A 
HETATM   16  C14 UNL     1      20.974   0.457  50.939  1.00  0.00    -0.004 A 
HETATM   17  C15 UNL     1      22.150   0.821  51.456  1.00  0.00    -0.017 A 
ENDBRANCH   7   8
ENDBRANCH   2   7
BRANCH   1  18
HETATM   18  C3  UNL     1      27.636   1.701  53.113  1.00  0.00     0.316 C 
HETATM   19  O2  UNL     1      27.755   2.527  54.039  1.00  0.00    -0.257 OA
BRANCH  18  20
HETATM   20  O1  UNL     1      27.905   2.533  52.051  1.00  0.00    -0.223 OA
BRANCH  20  21
HETATM   21  N1  UNL     1      26.945   3.308  51.472  1.00  0.00    -0.197 NA
HETATM   22  H6  UNL     1      26.157   3.560  52.078  1.00  0.00     0.154 HD
BRANCH  21  23
HETATM   23  C2  UNL     1      26.517   2.766  50.192  1.00  0.00     0.113 C 
HETATM   24  C1  UNL     1      25.170   3.342  49.813  1.00  0.00     0.023 C 
ENDBRANCH  21  23
ENDBRANCH  20  21
ENDBRANCH  18  20
ENDBRANCH   1  18
TORSDOF 6
ENDMDL
MODEL 2
REMARK VINA RESULT:      -8.7      1.337      2.513
REMARK  6 active torsions:
REMARK  status: ('A' for Active; 'I' for Inactive)
REMARK    1  A    between atoms: C2_2  and  N1_3 
REMARK    2  A    between atoms: N1_3  and  O1_4 
REMARK    3  A    between atoms: O1_4  and  C3_5 
REMARK    4  A    between atoms: C3_5  and  C4_7 
REMARK    5  A    between atoms: C5_8  and  C6_9 
REMARK    6  A    between atoms: C6_9  and  C7_10 
ROOT
HETATM    1  C4  UNL     1      26.585   0.722  52.940  1.00  0.00     0.118 A 
HETATM    2  C5  UNL     1      25.319   0.711  53.293  1.00  0.00    -0.015 A 
HETATM    3  C17 UNL     1      25.154  -0.633  53.893  1.00  0.00     0.129 A 
HETATM    4  N2  UNL     1      26.262  -1.310  53.868  1.00  0.00    -0.221 NA
HETATM    5  C18 UNL     1      27.283  -0.516  53.260  1.00  0.00     0.283 A 
HETATM    6  O3  UNL     1      28.484  -0.824  53.057  1.00  0.00    -0.265 OA
ENDROOT
BRANCH   2   7
HETATM    7  C6  UNL     1      24.295   1.765  53.127  1.00  0.00     0.076 C 
BRANCH   7   8
HETATM    8  C7  UNL     1      23.391   1.543  51.990  1.00  0.00    -0.067 A 
HETATM    9  C8  UNL     1      23.509   2.312  50.915  1.00  0.00     0.004 A 
HETATM   10  C9  UNL     1      22.647   2.152  49.743  1.00  0.00    -0.003 A 
HETATM   11  C10 UNL     1      21.745   1.191  49.822  1.00  0.00    -0.017 A 
HETATM   12  C11 UNL     1      21.507   0.268  50.940  1.00  0.00     0.042 A 
HETATM   13  C12 UNL     1      20.039   0.347  51.240  1.00  0.00    -0.017 A 
HETATM   14  C16 UNL     1      22.380   0.448  52.125  1.00  0.00     0.048 A 
HETATM   15  C13 UNL     1      19.408   0.543  52.387  1.00  0.00    -0.004 A 
HETATM   16  C14 UNL     1      20.293   0.708  53.542  1.00  0.00    -0.004 A 
HETATM   17  C15 UNL     1      21.618   0.660  53.387  1.00  0.00    -0.017 A 
ENDBRANCH   7   8
ENDBRANCH   2   7
BRANCH   1  18
HETATM   18  C3  UNL     1      27.291   1.815  52.284  1.00  0.00     0.316 C 
HETATM   19  O2  UNL     1      28.226   2.579  52.594  1.00  0.00    -0.257 OA
BRANCH  18  20
HETATM   20  O1  UNL     1      27.037   2.292  51.019  1.00  0.00    -0.223 OA
BRANCH  20  21
HETATM   21  N1  UNL     1      26.949   3.624  50.748  1.00  0.00    -0.197 NA
HETATM   22  H6  UNL     1      26.400   4.175  51.416  1.00  0.00     0.154 HD
BRANCH  21  23
HETATM   23  C2  UNL     1      26.559   3.866  49.368  1.00  0.00     0.113 C 
HETATM   24  C1  UNL     1      27.567   4.776  48.700  1.00  0.00     0.023 C 
ENDBRANCH  21  23
ENDBRANCH  20  21
ENDBRANCH  18  20
ENDBRANCH   1  18
TORSDOF 6
ENDMDL
MODEL 3
REMARK VINA RESULT:      -8.7      1.422      3.150
REMARK  6 active torsions:
REMARK  status: ('A' for Active; 'I' for Inactive)
REMARK    1  A    between atoms: C2_2  and  N1_3 
REMARK    2  A    between atoms: N1_3  and  O1_4 
REMARK    3  A    between atoms: O1_4  and  C3_5 
REMARK    4  A    between atoms: C3_5  and  C4_7 
REMARK    5  A    between atoms: C5_8  and  C6_9 
REMARK    6  A    between atoms: C6_9  and  C7_10 
ROOT
HETATM    1  C4  UNL     1      26.387   0.944  53.546  1.00  0.00     0.118 A 
HETATM    2  C5  UNL     1      25.469   0.756  52.625  1.00  0.00    -0.015 A 
HETATM    3  C17 UNL     1      25.610   1.954  51.766  1.00  0.00     0.129 A 
HETATM    4  N2  UNL     1      26.547   2.745  52.194  1.00  0.00    -0.221 NA
HETATM    5  C18 UNL     1      27.136   2.182  53.368  1.00  0.00     0.283 A 
HETATM    6  O3  UNL     1      28.069   2.651  54.066  1.00  0.00    -0.265 OA
ENDROOT
BRANCH   2   7
HETATM    7  C6  UNL     1      24.514  -0.364  52.475  1.00  0.00     0.076 C 
BRANCH   7   8
HETATM    8  C7  UNL     1      23.226  -0.140  53.146  1.00  0.00    -0.067 A 
HETATM    9  C8  UNL     1      22.920  -0.871  54.211  1.00  0.00     0.004 A 
HETATM   10  C9  UNL     1      21.658  -0.707  54.933  1.00  0.00    -0.003 A 
HETATM   11  C10 UNL     1      20.842   0.218  54.460  1.00  0.00    -0.017 A 
HETATM   12  C11 UNL     1      21.052   1.096  53.302  1.00  0.00     0.042 A 
HETATM   13  C12 UNL     1      19.829   0.955  52.444  1.00  0.00    -0.017 A 
HETATM   14  C16 UNL     1      22.330   0.912  52.572  1.00  0.00     0.048 A 
HETATM   15  C13 UNL     1      19.714   0.701  51.150  1.00  0.00    -0.004 A 
HETATM   16  C14 UNL     1      20.991   0.533  50.452  1.00  0.00    -0.004 A 
HETATM   17  C15 UNL     1      22.142   0.635  51.122  1.00  0.00    -0.017 A 
ENDBRANCH   7   8
ENDBRANCH   2   7
BRANCH   1  18
HETATM   18  C3  UNL     1      26.684   0.062  54.666  1.00  0.00     0.316 C 
HETATM   19  O2  UNL     1      26.081  -0.299  55.696  1.00  0.00    -0.257 OA
BRANCH  18  20
HETATM   20  O1  UNL     1      27.848  -0.650  54.843  1.00  0.00    -0.223 OA
BRANCH  20  21
HETATM   21  N1  UNL     1      29.078  -0.078  54.710  1.00  0.00    -0.197 NA
HETATM   22  H6  UNL     1      29.093   0.947  54.738  1.00  0.00     0.154 HD
BRANCH  21  23
HETATM   23  C2  UNL     1      29.801  -0.618  53.569  1.00  0.00     0.113 C 
HETATM   24  C1  UNL     1      29.329  -2.027  53.281  1.00  0.00     0.023 C 
ENDBRANCH  21  23
ENDBRANCH  20  21
ENDBRANCH  18  20
ENDBRANCH   1  18
TORSDOF 6
ENDMDL
MODEL 4
REMARK VINA RESULT:      -8.6      1.563      1.934
REMARK  6 active torsions:
REMARK  status: ('A' for Active; 'I' for Inactive)
REMARK    1  A    between atoms: C2_2  and  N1_3 
REMARK    2  A    between atoms: N1_3  and  O1_4 
REMARK    3  A    between atoms: O1_4  and  C3_5 
REMARK    4  A    between atoms: C3_5  and  C4_7 
REMARK    5  A    between atoms: C5_8  and  C6_9 
REMARK    6  A    between atoms: C6_9  and  C7_10 
ROOT
HETATM    1  C4  UNL     1      26.275   1.433  53.099  1.00  0.00     0.118 A 
HETATM    2  C5  UNL     1      25.674   0.300  53.384  1.00  0.00    -0.015 A 
HETATM    3  C17 UNL     1      26.386  -0.157  54.600  1.00  0.00     0.129 A 
HETATM    4  N2  UNL     1      27.315   0.677  54.954  1.00  0.00    -0.221 NA
HETATM    5  C18 UNL     1      27.339   1.772  54.036  1.00  0.00     0.283 A 
HETATM    6  O3  UNL     1      28.096   2.774  54.046  1.00  0.00    -0.265 OA
ENDROOT
BRANCH   2   7
HETATM    7  C6  UNL     1      24.568  -0.375  52.670  1.00  0.00     0.076 C 
BRANCH   7   8
HETATM    8  C7  UNL     1      23.245  -0.137  53.263  1.00  0.00    -0.067 A 
HETATM    9  C8  UNL     1      22.851  -0.893  54.280  1.00  0.00     0.004 A 
HETATM   10  C9  UNL     1      21.549  -0.717  54.924  1.00  0.00    -0.003 A 
HETATM   11  C10 UNL     1      20.789   0.244  54.431  1.00  0.00    -0.017 A 
HETATM   12  C11 UNL     1      21.098   1.153  53.319  1.00  0.00     0.042 A 
HETATM   13  C12 UNL     1      19.930   1.073  52.379  1.00  0.00    -0.017 A 
HETATM   14  C16 UNL     1      22.416   0.958  52.668  1.00  0.00     0.048 A 
HETATM   15  C13 UNL     1      19.894   0.864  51.073  1.00  0.00    -0.004 A 
HETATM   16  C14 UNL     1      21.210   0.683  50.454  1.00  0.00    -0.004 A 
HETATM   17  C15 UNL     1      22.317   0.732  51.199  1.00  0.00    -0.017 A 
ENDBRANCH   7   8
ENDBRANCH   2   7
BRANCH   1  18
HETATM   18  C3  UNL     1      25.977   2.314  51.977  1.00  0.00     0.316 C 
HETATM   19  O2  UNL     1      25.033   3.065  51.666  1.00  0.00    -0.257 OA
BRANCH  18  20
HETATM   20  O1  UNL     1      26.785   2.525  50.885  1.00  0.00    -0.223 OA
BRANCH  20  21
HETATM   21  N1  UNL     1      27.197   3.770  50.513  1.00  0.00    -0.197 NA
HETATM   22  H6  UNL     1      26.921   4.532  51.142  1.00  0.00     0.154 HD
BRANCH  21  23
HETATM   23  C2  UNL     1      26.878   4.048  49.121  1.00  0.00     0.113 C 
HETATM   24  C1  UNL     1      27.879   5.029  48.550  1.00  0.00     0.023 C 
ENDBRANCH  21  23
ENDBRANCH  20  21
ENDBRANCH  18  20
ENDBRANCH   1  18
TORSDOF 6
ENDMDL
MODEL 5
REMARK VINA RESULT:      -8.4      2.531      4.680
REMARK  6 active torsions:
REMARK  status: ('A' for Active; 'I' for Inactive)
REMARK    1  A    between atoms: C2_2  and  N1_3 
REMARK    2  A    between atoms: N1_3  and  O1_4 
REMARK    3  A    between atoms: O1_4  and  C3_5 
REMARK    4  A    between atoms: C3_5  and  C4_7 
REMARK    5  A    between atoms: C5_8  and  C6_9 
REMARK    6  A    between atoms: C6_9  and  C7_10 
ROOT
HETATM    1  C4  UNL     1      24.225  -0.558  54.002  1.00  0.00     0.118 A 
HETATM    2  C5  UNL     1      23.075  -0.276  53.431  1.00  0.00    -0.015 A 
HETATM    3  C17 UNL     1      22.086  -0.758  54.423  1.00  0.00     0.129 A 
HETATM    4  N2  UNL     1      22.663  -1.268  55.468  1.00  0.00    -0.221 NA
HETATM    5  C18 UNL     1      24.081  -1.193  55.306  1.00  0.00     0.283 A 
HETATM    6  O3  UNL     1      24.972  -1.583  56.101  1.00  0.00    -0.265 OA
ENDROOT
BRANCH   2   7
HETATM    7  C6  UNL     1      22.815   0.353  52.118  1.00  0.00     0.076 C 
BRANCH   7   8
HETATM    8  C7  UNL     1      22.550   1.797  52.193  1.00  0.00    -0.067 A 
HETATM    9  C8  UNL     1      21.292   2.219  52.209  1.00  0.00     0.004 A 
HETATM   10  C9  UNL     1      20.948   3.640  52.283  1.00  0.00    -0.003 A 
HETATM   11  C10 UNL     1      21.969   4.476  52.335  1.00  0.00    -0.017 A 
HETATM   12  C11 UNL     1      23.401   4.149  52.328  1.00  0.00     0.042 A 
HETATM   13  C12 UNL     1      24.015   4.989  51.246  1.00  0.00    -0.017 A 
HETATM   14  C16 UNL     1      23.736   2.707  52.242  1.00  0.00     0.048 A 
HETATM   15  C13 UNL     1      24.806   4.647  50.242  1.00  0.00    -0.004 A 
HETATM   16  C14 UNL     1      25.129   3.220  50.186  1.00  0.00    -0.004 A 
HETATM   17  C15 UNL     1      24.632   2.381  51.099  1.00  0.00    -0.017 A 
ENDBRANCH   7   8
ENDBRANCH   2   7
BRANCH   1  18
HETATM   18  C3  UNL     1      25.550  -0.304  53.452  1.00  0.00     0.316 C 
HETATM   19  O2  UNL     1      26.148  -0.607  52.401  1.00  0.00    -0.257 OA
BRANCH  18  20
HETATM   20  O1  UNL     1      26.549   0.418  54.063  1.00  0.00    -0.223 OA
BRANCH  20  21
HETATM   21  N1  UNL     1      27.418  -0.146  54.948  1.00  0.00    -0.197 NA
HETATM   22  H6  UNL     1      27.154  -0.071  55.935  1.00  0.00     0.154 HD
BRANCH  21  23
HETATM   23  C2  UNL     1      28.787   0.279  54.700  1.00  0.00     0.113 C 
HETATM   24  C1  UNL     1      29.445  -0.656  53.709  1.00  0.00     0.023 C 
ENDBRANCH  21  23
ENDBRANCH  20  21
ENDBRANCH  18  20
ENDBRANCH   1  18
TORSDOF 6
ENDMDL
MODEL 6
REMARK VINA RESULT:      -8.0      2.005      4.355
REMARK  6 active torsions:
REMARK  status: ('A' for Active; 'I' for Inactive)
REMARK    1  A    between atoms: C2_2  and  N1_3 
REMARK    2  A    between atoms: N1_3  and  O1_4 
REMARK    3  A    between atoms: O1_4  and  C3_5 
REMARK    4  A    between atoms: C3_5  and  C4_7 
REMARK    5  A    between atoms: C5_8  and  C6_9 
REMARK    6  A    between atoms: C6_9  and  C7_10 
ROOT
HETATM    1  C4  UNL     1      25.902   3.212  50.943  1.00  0.00     0.118 A 
HETATM    2  C5  UNL     1      24.742   3.637  51.392  1.00  0.00    -0.015 A 
HETATM    3  C17 UNL     1      24.337   4.632  50.373  1.00  0.00     0.129 A 
HETATM    4  N2  UNL     1      25.220   4.739  49.428  1.00  0.00    -0.221 NA
HETATM    5  C18 UNL     1      26.304   3.848  49.695  1.00  0.00     0.283 A 
HETATM    6  O3  UNL     1      27.343   3.666  49.013  1.00  0.00    -0.265 OA
ENDROOT
BRANCH   2   7
HETATM    7  C6  UNL     1      24.015   3.242  52.618  1.00  0.00     0.076 C 
BRANCH   7   8
HETATM    8  C7  UNL     1      22.787   2.477  52.359  1.00  0.00    -0.067 A 
HETATM    9  C8  UNL     1      21.624   3.116  52.329  1.00  0.00     0.004 A 
HETATM   10  C9  UNL     1      20.360   2.425  52.077  1.00  0.00    -0.003 A 
HETATM   11  C10 UNL     1      20.448   1.122  51.879  1.00  0.00    -0.017 A 
HETATM   12  C11 UNL     1      21.659   0.291  51.882  1.00  0.00     0.042 A 
HETATM   13  C12 UNL     1      21.382  -0.847  52.821  1.00  0.00    -0.017 A 
HETATM   14  C16 UNL     1      22.933   1.002  52.149  1.00  0.00     0.048 A 
HETATM   15  C13 UNL     1      22.093  -1.314  53.834  1.00  0.00    -0.004 A 
HETATM   16  C14 UNL     1      23.350  -0.599  54.071  1.00  0.00    -0.004 A 
HETATM   17  C15 UNL     1      23.693   0.433  53.295  1.00  0.00    -0.017 A 
ENDBRANCH   7   8
ENDBRANCH   2   7
BRANCH   1  18
HETATM   18  C3  UNL     1      26.762   2.218  51.571  1.00  0.00     0.316 C 
HETATM   19  O2  UNL     1      26.766   0.974  51.655  1.00  0.00    -0.257 OA
BRANCH  18  20
HETATM   20  O1  UNL     1      27.898   2.484  52.300  1.00  0.00    -0.223 OA
BRANCH  20  21
HETATM   21  N1  UNL     1      27.892   2.546  53.661  1.00  0.00    -0.197 NA
HETATM   22  H6  UNL     1      27.750   3.480  54.059  1.00  0.00     0.154 HD
BRANCH  21  23
HETATM   23  C2  UNL     1      29.039   1.860  54.235  1.00  0.00     0.113 C 
HETATM   24  C1  UNL     1      28.653   0.450  54.625  1.00  0.00     0.023 C 
ENDBRANCH  21  23
ENDBRANCH  20  21
ENDBRANCH  18  20
ENDBRANCH   1  18
TORSDOF 6
ENDMDL
MODEL 7
REMARK VINA RESULT:      -8.0      2.946      4.874
REMARK  6 active torsions:
REMARK  status: ('A' for Active; 'I' for Inactive)
REMARK    1  A    between atoms: C2_2  and  N1_3 
REMARK    2  A    between atoms: N1_3  and  O1_4 
REMARK    3  A    between atoms: O1_4  and  C3_5 
REMARK    4  A    between atoms: C3_5  and  C4_7 
REMARK    5  A    between atoms: C5_8  and  C6_9 
REMARK    6  A    between atoms: C6_9  and  C7_10 
ROOT
HETATM    1  C4  UNL     1      23.873  -0.492  54.038  1.00  0.00     0.118 A 
HETATM    2  C5  UNL     1      23.613   0.239  52.977  1.00  0.00    -0.015 A 
HETATM    3  C17 UNL     1      22.142   0.124  52.848  1.00  0.00     0.129 A 
HETATM    4  N2  UNL     1      21.634  -0.622  53.781  1.00  0.00    -0.221 NA
HETATM    5  C18 UNL     1      22.683  -1.088  54.632  1.00  0.00     0.283 A 
HETATM    6  O3  UNL     1      22.588  -1.830  55.642  1.00  0.00    -0.265 OA
ENDROOT
BRANCH   2   7
HETATM    7  C6  UNL     1      24.547   0.986  52.108  1.00  0.00     0.076 C 
BRANCH   7   8
HETATM    8  C7  UNL     1      24.206   2.407  51.951  1.00  0.00    -0.067 A 
HETATM    9  C8  UNL     1      24.081   3.162  53.035  1.00  0.00     0.004 A 
HETATM   10  C9  UNL     1      23.745   4.584  52.960  1.00  0.00    -0.003 A 
HETATM   11  C10 UNL     1      23.575   5.071  51.744  1.00  0.00    -0.017 A 
HETATM   12  C11 UNL     1      23.685   4.356  50.466  1.00  0.00     0.042 A 
HETATM   13  C12 UNL     1      22.420   4.651  49.713  1.00  0.00    -0.017 A 
HETATM   14  C16 UNL     1      24.016   2.913  50.555  1.00  0.00     0.048 A 
HETATM   15  C13 UNL     1      21.566   3.833  49.118  1.00  0.00    -0.004 A 
HETATM   16  C14 UNL     1      21.922   2.415  49.215  1.00  0.00    -0.004 A 
HETATM   17  C15 UNL     1      23.026   2.041  49.866  1.00  0.00    -0.017 A 
ENDBRANCH   7   8
ENDBRANCH   2   7
BRANCH   1  18
HETATM   18  C3  UNL     1      25.185  -0.738  54.620  1.00  0.00     0.316 C 
HETATM   19  O2  UNL     1      25.675  -0.672  55.765  1.00  0.00    -0.257 OA
BRANCH  18  20
HETATM   20  O1  UNL     1      26.304  -1.148  53.934  1.00  0.00    -0.223 OA
BRANCH  20  21
HETATM   21  N1  UNL     1      27.563  -0.797  54.319  1.00  0.00    -0.197 NA
HETATM   22  H6  UNL     1      27.632   0.061  54.876  1.00  0.00     0.154 HD
BRANCH  21  23
HETATM   23  C2  UNL     1      28.492  -0.814  53.199  1.00  0.00     0.113 C 
HETATM   24  C1  UNL     1      29.912  -0.915  53.709  1.00  0.00     0.023 C 
ENDBRANCH  21  23
ENDBRANCH  20  21
ENDBRANCH  18  20
ENDBRANCH   1  18
TORSDOF 6
ENDMDL
MODEL 8
REMARK VINA RESULT:      -7.9      3.563      5.818
REMARK  6 active torsions:
REMARK  status: ('A' for Active; 'I' for Inactive)
REMARK    1  A    between atoms: C2_2  and  N1_3 
REMARK    2  A    between atoms: N1_3  and  O1_4 
REMARK    3  A    between atoms: O1_4  and  C3_5 
REMARK    4  A    between atoms: C3_5  and  C4_7 
REMARK    5  A    between atoms: C5_8  and  C6_9 
REMARK    6  A    between atoms: C6_9  and  C7_10 
ROOT
HETATM    1  C4  UNL     1      23.985   4.342  50.215  1.00  0.00     0.118 A 
HETATM    2  C5  UNL     1      23.958   3.245  50.939  1.00  0.00    -0.015 A 
HETATM    3  C17 UNL     1      23.292   2.272  50.042  1.00  0.00     0.129 A 
HETATM    4  N2  UNL     1      22.977   2.807  48.902  1.00  0.00    -0.221 NA
HETATM    5  C18 UNL     1      23.385   4.176  48.896  1.00  0.00     0.283 A 
HETATM    6  O3  UNL     1      23.254   5.019  47.974  1.00  0.00    -0.265 OA
ENDROOT
BRANCH   2   7
HETATM    7  C6  UNL     1      24.454   3.023  52.314  1.00  0.00     0.076 C 
BRANCH   7   8
HETATM    8  C7  UNL     1      24.936   1.656  52.559  1.00  0.00    -0.067 A 
HETATM    9  C8  UNL     1      24.140   0.797  53.183  1.00  0.00     0.004 A 
HETATM   10  C9  UNL     1      24.547  -0.581  53.463  1.00  0.00    -0.003 A 
HETATM   11  C10 UNL     1      25.757  -0.916  53.053  1.00  0.00    -0.017 A 
HETATM   12  C11 UNL     1      26.735  -0.074  52.353  1.00  0.00     0.042 A 
HETATM   13  C12 UNL     1      28.017  -0.193  53.126  1.00  0.00    -0.017 A 
HETATM   14  C16 UNL     1      26.315   1.322  52.085  1.00  0.00     0.048 A 
HETATM   15  C13 UNL     1      28.825   0.745  53.594  1.00  0.00    -0.004 A 
HETATM   16  C14 UNL     1      28.390   2.114  53.308  1.00  0.00    -0.004 A 
HETATM   17  C15 UNL     1      27.262   2.335  52.629  1.00  0.00    -0.017 A 
ENDBRANCH   7   8
ENDBRANCH   2   7
BRANCH   1  18
HETATM   18  C3  UNL     1      24.529   5.632  50.616  1.00  0.00     0.316 C 
HETATM   19  O2  UNL     1      24.207   6.515  51.435  1.00  0.00    -0.257 OA
BRANCH  18  20
HETATM   20  O1  UNL     1      25.662   6.220  50.105  1.00  0.00    -0.223 OA
BRANCH  20  21
HETATM   21  N1  UNL     1      26.730   5.491  49.676  1.00  0.00    -0.197 NA
HETATM   22  H6  UNL     1      27.408   5.232  50.401  1.00  0.00     0.154 HD
BRANCH  21  23
HETATM   23  C2  UNL     1      27.359   6.095  48.511  1.00  0.00     0.113 C 
HETATM   24  C1  UNL     1      28.726   5.486  48.290  1.00  0.00     0.023 C 
ENDBRANCH  21  23
ENDBRANCH  20  21
ENDBRANCH  18  20
ENDBRANCH   1  18
TORSDOF 6
ENDMDL
MODEL 9
REMARK VINA RESULT:      -7.9      3.143      5.770
REMARK  6 active torsions:
REMARK  status: ('A' for Active; 'I' for Inactive)
REMARK    1  A    between atoms: C2_2  and  N1_3 
REMARK    2  A    between atoms: N1_3  and  O1_4 
REMARK    3  A    between atoms: O1_4  and  C3_5 
REMARK    4  A    between atoms: C3_5  and  C4_7 
REMARK    5  A    between atoms: C5_8  and  C6_9 
REMARK    6  A    between atoms: C6_9  and  C7_10 
ROOT
HETATM    1  C4  UNL     1      24.195   3.312  50.286  1.00  0.00     0.118 A 
HETATM    2  C5  UNL     1      23.879   2.931  51.504  1.00  0.00    -0.015 A 
HETATM    3  C17 UNL     1      22.419   2.699  51.410  1.00  0.00     0.129 A 
HETATM    4  N2  UNL     1      21.970   2.938  50.216  1.00  0.00    -0.221 NA
HETATM    5  C18 UNL     1      23.054   3.352  49.381  1.00  0.00     0.283 A 
HETATM    6  O3  UNL     1      23.017   3.669  48.166  1.00  0.00    -0.265 OA
ENDROOT
BRANCH   2   7
HETATM    7  C6  UNL     1      24.750   2.779  52.689  1.00  0.00     0.076 C 
BRANCH   7   8
HETATM    8  C7  UNL     1      25.320   1.433  52.841  1.00  0.00    -0.067 A 
HETATM    9  C8  UNL     1      24.577   0.478  53.387  1.00  0.00     0.004 A 
HETATM   10  C9  UNL     1      25.072  -0.886  53.570  1.00  0.00    -0.003 A 
HETATM   11  C10 UNL     1      26.306  -1.110  53.156  1.00  0.00    -0.017 A 
HETATM   12  C11 UNL     1      27.234  -0.155  52.535  1.00  0.00     0.042 A 
HETATM   13  C12 UNL     1      28.512  -0.246  53.317  1.00  0.00    -0.017 A 
HETATM   14  C16 UNL     1      26.723   1.227  52.364  1.00  0.00     0.048 A 
HETATM   15  C13 UNL     1      29.250   0.705  53.866  1.00  0.00    -0.004 A 
HETATM   16  C14 UNL     1      28.728   2.061  53.675  1.00  0.00    -0.004 A 
HETATM   17  C15 UNL     1      27.594   2.256  52.997  1.00  0.00    -0.017 A 
ENDBRANCH   7   8
ENDBRANCH   2   7
BRANCH   1  18
HETATM   18  C3  UNL     1      25.522   3.682  49.811  1.00  0.00     0.316 C 
HETATM   19  O2  UNL     1      26.535   3.060  49.436  1.00  0.00    -0.257 OA
BRANCH  18  20
HETATM   20  O1  UNL     1      25.992   4.965  49.660  1.00  0.00    -0.223 OA
BRANCH  20  21
HETATM   21  N1  UNL     1      25.660   5.969  50.520  1.00  0.00    -0.197 NA
HETATM   22  H6  UNL     1      25.343   5.668  51.448  1.00  0.00     0.154 HD
BRANCH  21  23
HETATM   23  C2  UNL     1      24.757   6.928  49.904  1.00  0.00     0.113 C 
HETATM   24  C1  UNL     1      23.449   6.965  50.663  1.00  0.00     0.023 C 
ENDBRANCH  21  23
ENDBRANCH  20  21
ENDBRANCH  18  20
ENDBRANCH   1  18
TORSDOF 6
ENDMDL
