MODEL 1
REMARK VINA RESULT:      -7.5      0.000      0.000
REMARK  6 active torsions:
REMARK  status: ('A' for Active; 'I' for Inactive)
REMARK    1  A    between atoms: C2_2  and  C3_3 
REMARK    2  A    between atoms: C5_5  and  N1_6 
REMARK    3  A    between atoms: N1_6  and  C6_7 
REMARK    4  A    between atoms: C14_18  and  O1_19 
REMARK    5  A    between atoms: C14_18  and  C15_20 
REMARK    6  A    between atoms: C15_20  and  O2_21 
ROOT
HETATM    1  C3  UNL     1      27.211  -0.823  52.932  1.00  0.00    -0.016 C 
HETATM    2  C4  UNL     1      26.240  -0.494  52.013  1.00  0.00     0.045 C 
HETATM    3  C5  UNL     1      25.981   0.917  52.289  1.00  0.00     0.191 A 
HETATM    4  N2  UNL     1      25.593   1.780  51.194  1.00  0.00    -0.241 NA
HETATM    5  C12 UNL     1      26.540   2.668  51.098  1.00  0.00     0.230 A 
HETATM    6  N3  UNL     1      27.599   2.496  52.044  1.00  0.00    -0.243 NA
HETATM    7  C13 UNL     1      27.259   1.436  52.740  1.00  0.00     0.109 A 
HETATM    8  C14 UNL     1      27.632   0.369  53.739  1.00  0.00     0.151 C 
ENDROOT
BRANCH   3   9
HETATM    9  N1  UNL     1      24.890   0.951  53.267  1.00  0.00    -0.354 N 
HETATM   10  H5  UNL     1      25.096   1.597  54.094  1.00  0.00     0.163 HD
BRANCH   9  11
HETATM   11  C6  UNL     1      23.616   0.291  53.367  1.00  0.00     0.031 A 
HETATM   12  C7  UNL     1      23.269  -0.685  54.259  1.00  0.00     0.029 A 
HETATM   13  C8  UNL     1      22.048  -1.302  54.362  1.00  0.00     0.004 A 
HETATM   14  C9  UNL     1      21.082  -0.891  53.471  1.00  0.00     0.019 A 
HETATM   15  C10 UNL     1      21.370   0.084  52.551  1.00  0.00     0.013 A 
HETATM   16 BR1  UNL     1      20.020   0.640  51.327  1.00  0.00    -0.051 Br
HETATM   17  C11 UNL     1      22.615   0.665  52.500  1.00  0.00     0.048 A 
ENDBRANCH   9  11
ENDBRANCH   3   9
BRANCH   1  18
HETATM   18  C2  UNL     1      27.798  -2.144  53.056  1.00  0.00     0.000 C 
HETATM   19  C1  UNL     1      29.095  -2.313  53.093  1.00  0.00     0.012 C 
ENDBRANCH   1  18
BRANCH   8  20
HETATM   20  O1  UNL     1      29.038   0.403  53.894  1.00  0.00    -0.376 OA
HETATM   21  H11 UNL     1      29.329   0.145  54.786  1.00  0.00     0.211 HD
ENDBRANCH   8  20
BRANCH   8  22
HETATM   22  C15 UNL     1      26.981   0.548  55.016  1.00  0.00     0.213 C 
BRANCH  22  23
HETATM   23  O2  UNL     1      26.382  -0.654  55.425  1.00  0.00    -0.397 OA
HETATM   24  H14 UNL     1      26.852  -1.442  55.052  1.00  0.00     0.209 HD
ENDBRANCH  22  23
ENDBRANCH   8  22
TORSDOF 6
ENDMDL
MODEL 2
REMARK VINA RESULT:      -7.2      4.115      6.142
REMARK  6 active torsions:
REMARK  status: ('A' for Active; 'I' for Inactive)
REMARK    1  A    between atoms: C2_2  and  C3_3 
REMARK    2  A    between atoms: C5_5  and  N1_6 
REMARK    3  A    between atoms: N1_6  and  C6_7 
REMARK    4  A    between atoms: C14_18  and  O1_19 
REMARK    5  A    between atoms: C14_18  and  C15_20 
REMARK    6  A    between atoms: C15_20  and  O2_21 
ROOT
HETATM    1  C3  UNL     1      23.116   3.598  50.593  1.00  0.00    -0.016 C 
HETATM    2  C4  UNL     1      22.893   2.256  50.807  1.00  0.00     0.045 C 
HETATM    3  C5  UNL     1      22.261   2.226  52.123  1.00  0.00     0.191 A 
HETATM    4  N2  UNL     1      21.291   1.191  52.407  1.00  0.00    -0.241 NA
HETATM    5  C12 UNL     1      20.170   1.813  52.627  1.00  0.00     0.230 A 
HETATM    6  N3  UNL     1      20.259   3.236  52.507  1.00  0.00    -0.243 NA
HETATM    7  C13 UNL     1      21.513   3.468  52.191  1.00  0.00     0.109 A 
HETATM    8  C14 UNL     1      22.570   4.432  51.713  1.00  0.00     0.151 C 
ENDROOT
BRANCH   3   9
HETATM    9  N1  UNL     1      23.345   2.074  53.097  1.00  0.00    -0.354 N 
HETATM   10  H5  UNL     1      23.207   2.678  53.968  1.00  0.00     0.163 HD
BRANCH   9  11
HETATM   11  C6  UNL     1      24.562   1.308  53.127  1.00  0.00     0.031 A 
HETATM   12  C7  UNL     1      24.681  -0.046  52.981  1.00  0.00     0.029 A 
HETATM   13  C8  UNL     1      25.844  -0.772  52.995  1.00  0.00     0.004 A 
HETATM   14  C9  UNL     1      27.006  -0.055  53.176  1.00  0.00     0.019 A 
HETATM   15  C10 UNL     1      26.952   1.307  53.328  1.00  0.00     0.013 A 
HETATM   16 BR1  UNL     1      28.571   2.282  53.577  1.00  0.00    -0.051 Br
HETATM   17  C11 UNL     1      25.753   1.976  53.305  1.00  0.00     0.048 A 
ENDBRANCH   9  11
ENDBRANCH   3   9
BRANCH   1  18
HETATM   18  C2  UNL     1      23.742   4.137  49.401  1.00  0.00     0.000 C 
HETATM   19  C1  UNL     1      25.028   4.379  49.356  1.00  0.00     0.012 C 
ENDBRANCH   1  18
BRANCH   8  20
HETATM   20  O1  UNL     1      21.907   5.578  51.213  1.00  0.00    -0.376 OA
HETATM   21  H11 UNL     1      21.445   6.083  51.904  1.00  0.00     0.211 HD
ENDBRANCH   8  20
BRANCH   8  22
HETATM   22  C15 UNL     1      23.498   4.804  52.755  1.00  0.00     0.213 C 
BRANCH  22  23
HETATM   23  O2  UNL     1      24.066   6.056  52.471  1.00  0.00    -0.397 OA
HETATM   24  H14 UNL     1      25.051   6.043  52.580  1.00  0.00     0.209 HD
ENDBRANCH  22  23
ENDBRANCH   8  22
TORSDOF 6
ENDMDL
MODEL 3
REMARK VINA RESULT:      -7.1      3.915      6.179
REMARK  6 active torsions:
REMARK  status: ('A' for Active; 'I' for Inactive)
REMARK    1  A    between atoms: C2_2  and  C3_3 
REMARK    2  A    between atoms: C5_5  and  N1_6 
REMARK    3  A    between atoms: N1_6  and  C6_7 
REMARK    4  A    between atoms: C14_18  and  O1_19 
REMARK    5  A    between atoms: C14_18  and  C15_20 
REMARK    6  A    between atoms: C15_20  and  O2_21 
ROOT
HETATM    1  C3  UNL     1      23.630   3.022  49.563  1.00  0.00    -0.016 C 
HETATM    2  C4  UNL     1      23.699   2.334  50.754  1.00  0.00     0.045 C 
HETATM    3  C5  UNL     1      24.442   3.242  51.624  1.00  0.00     0.191 A 
HETATM    4  N2  UNL     1      24.149   3.243  53.041  1.00  0.00    -0.241 NA
HETATM    5  C12 UNL     1      23.701   4.436  53.305  1.00  0.00     0.230 A 
HETATM    6  N3  UNL     1      23.635   5.299  52.165  1.00  0.00    -0.243 NA
HETATM    7  C13 UNL     1      24.067   4.567  51.164  1.00  0.00     0.109 A 
HETATM    8  C14 UNL     1      24.247   4.385  49.677  1.00  0.00     0.151 C 
ENDROOT
BRANCH   3   9
HETATM    9  N1  UNL     1      25.856   2.886  51.479  1.00  0.00    -0.354 N 
HETATM   10  H5  UNL     1      26.331   3.398  50.669  1.00  0.00     0.163 HD
BRANCH   9  11
HETATM   11  C6  UNL     1      26.736   1.984  52.174  1.00  0.00     0.031 A 
HETATM   12  C7  UNL     1      27.771   2.324  52.998  1.00  0.00     0.029 A 
HETATM   13  C8  UNL     1      28.599   1.462  53.671  1.00  0.00     0.004 A 
HETATM   14  C9  UNL     1      28.354   0.119  53.488  1.00  0.00     0.019 A 
HETATM   15  C10 UNL     1      27.330  -0.285  52.672  1.00  0.00     0.013 A 
HETATM   16 BR1  UNL     1      27.007  -2.148  52.432  1.00  0.00    -0.051 Br
HETATM   17  C11 UNL     1      26.535   0.630  52.025  1.00  0.00     0.048 A 
ENDBRANCH   9  11
ENDBRANCH   3   9
BRANCH   1  18
HETATM   18  C2  UNL     1      22.981   2.516  48.368  1.00  0.00     0.000 C 
HETATM   19  C1  UNL     1      21.788   1.979  48.415  1.00  0.00     0.012 C 
ENDBRANCH   1  18
BRANCH   8  20
HETATM   20  O1  UNL     1      23.449   5.357  49.029  1.00  0.00    -0.376 OA
HETATM   21  H11 UNL     1      22.725   4.969  48.508  1.00  0.00     0.211 HD
ENDBRANCH   8  20
BRANCH   8  22
HETATM   22  C15 UNL     1      25.625   4.507  49.263  1.00  0.00     0.213 C 
BRANCH  22  23
HETATM   23  O2  UNL     1      26.267   5.506  50.014  1.00  0.00    -0.397 OA
HETATM   24  H14 UNL     1      25.705   5.813  50.770  1.00  0.00     0.209 HD
ENDBRANCH  22  23
ENDBRANCH   8  22
TORSDOF 6
ENDMDL
MODEL 4
REMARK VINA RESULT:      -7.1      2.912      4.405
REMARK  6 active torsions:
REMARK  status: ('A' for Active; 'I' for Inactive)
REMARK    1  A    between atoms: C2_2  and  C3_3 
REMARK    2  A    between atoms: C5_5  and  N1_6 
REMARK    3  A    between atoms: N1_6  and  C6_7 
REMARK    4  A    between atoms: C14_18  and  O1_19 
REMARK    5  A    between atoms: C14_18  and  C15_20 
REMARK    6  A    between atoms: C15_20  and  O2_21 
ROOT
HETATM    1  C3  UNL     1      24.107   3.683  52.422  1.00  0.00    -0.016 C 
HETATM    2  C4  UNL     1      24.509   2.844  53.437  1.00  0.00     0.045 C 
HETATM    3  C5  UNL     1      25.313   1.840  52.743  1.00  0.00     0.191 A 
HETATM    4  N2  UNL     1      26.425   1.234  53.443  1.00  0.00    -0.241 NA
HETATM    5  C12 UNL     1      27.487   1.573  52.771  1.00  0.00     0.230 A 
HETATM    6  N3  UNL     1      27.219   2.399  51.635  1.00  0.00    -0.243 NA
HETATM    7  C13 UNL     1      25.916   2.564  51.638  1.00  0.00     0.109 A 
HETATM    8  C14 UNL     1      24.701   3.280  51.105  1.00  0.00     0.151 C 
ENDROOT
BRANCH   3   9
HETATM    9  N1  UNL     1      24.396   0.757  52.379  1.00  0.00    -0.354 N 
HETATM   10  H5  UNL     1      24.553   0.399  51.384  1.00  0.00     0.163 HD
BRANCH   9  11
HETATM   11  C6  UNL     1      23.318   0.089  53.059  1.00  0.00     0.031 A 
HETATM   12  C7  UNL     1      23.416  -0.699  54.171  1.00  0.00     0.029 A 
HETATM   13  C8  UNL     1      22.385  -1.323  54.825  1.00  0.00     0.004 A 
HETATM   14  C9  UNL     1      21.127  -1.131  54.299  1.00  0.00     0.019 A 
HETATM   15  C10 UNL     1      20.964  -0.350  53.184  1.00  0.00     0.013 A 
HETATM   16 BR1  UNL     1      19.215  -0.096  52.471  1.00  0.00    -0.051 Br
HETATM   17  C11 UNL     1      22.040   0.248  52.573  1.00  0.00     0.048 A 
ENDBRANCH   9  11
ENDBRANCH   3   9
BRANCH   1  18
HETATM   18  C2  UNL     1      23.267   4.850  52.618  1.00  0.00     0.000 C 
HETATM   19  C1  UNL     1      22.028   4.877  52.195  1.00  0.00     0.012 C 
ENDBRANCH   1  18
BRANCH   8  20
HETATM   20  O1  UNL     1      25.154   4.412  50.388  1.00  0.00    -0.376 OA
HETATM   21  H11 UNL     1      25.880   4.208  49.773  1.00  0.00     0.211 HD
ENDBRANCH   8  20
BRANCH   8  22
HETATM   22  C15 UNL     1      23.886   2.441  50.258  1.00  0.00     0.213 C 
BRANCH  22  23
HETATM   23  O2  UNL     1      23.594   3.107  49.056  1.00  0.00    -0.397 OA
HETATM   24  H14 UNL     1      24.379   3.607  48.716  1.00  0.00     0.209 HD
ENDBRANCH  22  23
ENDBRANCH   8  22
TORSDOF 6
ENDMDL
MODEL 5
REMARK VINA RESULT:      -7.1      4.028      5.790
REMARK  6 active torsions:
REMARK  status: ('A' for Active; 'I' for Inactive)
REMARK    1  A    between atoms: C2_2  and  C3_3 
REMARK    2  A    between atoms: C5_5  and  N1_6 
REMARK    3  A    between atoms: N1_6  and  C6_7 
REMARK    4  A    between atoms: C14_18  and  O1_19 
REMARK    5  A    between atoms: C14_18  and  C15_20 
REMARK    6  A    between atoms: C15_20  and  O2_21 
ROOT
HETATM    1  C3  UNL     1      25.206   4.903  49.509  1.00  0.00    -0.016 C 
HETATM    2  C4  UNL     1      24.991   3.553  49.343  1.00  0.00     0.045 C 
HETATM    3  C5  UNL     1      23.670   3.348  49.931  1.00  0.00     0.191 A 
HETATM    4  N2  UNL     1      22.816   2.317  49.382  1.00  0.00    -0.241 NA
HETATM    5  C12 UNL     1      21.771   2.939  48.918  1.00  0.00     0.230 A 
HETATM    6  N3  UNL     1      21.818   4.360  49.082  1.00  0.00    -0.243 NA
HETATM    7  C13 UNL     1      22.966   4.592  49.676  1.00  0.00     0.109 A 
HETATM    8  C14 UNL     1      24.016   5.579  50.123  1.00  0.00     0.151 C 
ENDROOT
BRANCH   3   9
HETATM    9  N1  UNL     1      23.894   3.013  51.340  1.00  0.00    -0.354 N 
HETATM   10  H5  UNL     1      23.881   3.871  51.977  1.00  0.00     0.163 HD
BRANCH   9  11
HETATM   11  C6  UNL     1      24.150   1.787  52.047  1.00  0.00     0.031 A 
HETATM   12  C7  UNL     1      25.330   1.099  52.093  1.00  0.00     0.029 A 
HETATM   13  C8  UNL     1      25.574  -0.062  52.780  1.00  0.00     0.004 A 
HETATM   14  C9  UNL     1      24.516  -0.581  53.493  1.00  0.00     0.019 A 
HETATM   15  C10 UNL     1      23.306   0.063  53.485  1.00  0.00     0.013 A 
HETATM   16 BR1  UNL     1      21.853  -0.671  54.477  1.00  0.00    -0.051 Br
HETATM   17  C11 UNL     1      23.125   1.225  52.775  1.00  0.00     0.048 A 
ENDBRANCH   9  11
ENDBRANCH   3   9
BRANCH   1  18
HETATM   18  C2  UNL     1      26.408   5.593  49.082  1.00  0.00     0.000 C 
HETATM   19  C1  UNL     1      27.466   4.935  48.680  1.00  0.00     0.012 C 
ENDBRANCH   1  18
BRANCH   8  20
HETATM   20  O1  UNL     1      23.745   6.809  49.478  1.00  0.00    -0.376 OA
HETATM   21  H11 UNL     1      22.985   7.280  49.861  1.00  0.00     0.211 HD
ENDBRANCH   8  20
BRANCH   8  22
HETATM   22  C15 UNL     1      24.040   5.756  51.556  1.00  0.00     0.213 C 
BRANCH  22  23
HETATM   23  O2  UNL     1      24.485   7.050  51.875  1.00  0.00    -0.397 OA
HETATM   24  H14 UNL     1      25.407   7.039  52.238  1.00  0.00     0.209 HD
ENDBRANCH  22  23
ENDBRANCH   8  22
TORSDOF 6
ENDMDL
MODEL 6
REMARK VINA RESULT:      -6.8      4.638      7.363
REMARK  6 active torsions:
REMARK  status: ('A' for Active; 'I' for Inactive)
REMARK    1  A    between atoms: C2_2  and  C3_3 
REMARK    2  A    between atoms: C5_5  and  N1_6 
REMARK    3  A    between atoms: N1_6  and  C6_7 
REMARK    4  A    between atoms: C14_18  and  O1_19 
REMARK    5  A    between atoms: C14_18  and  C15_20 
REMARK    6  A    between atoms: C15_20  and  O2_21 
ROOT
HETATM    1  C3  UNL     1      23.444   3.261  49.870  1.00  0.00    -0.016 C 
HETATM    2  C4  UNL     1      24.729   3.206  49.377  1.00  0.00     0.045 C 
HETATM    3  C5  UNL     1      25.545   3.599  50.523  1.00  0.00     0.191 A 
HETATM    4  N2  UNL     1      26.871   3.035  50.660  1.00  0.00    -0.241 NA
HETATM    5  C12 UNL     1      26.847   2.352  51.767  1.00  0.00     0.230 A 
HETATM    6  N3  UNL     1      25.583   2.371  52.437  1.00  0.00    -0.243 NA
HETATM    7  C13 UNL     1      24.810   3.108  51.674  1.00  0.00     0.109 A 
HETATM    8  C14 UNL     1      23.428   3.607  51.330  1.00  0.00     0.151 C 
ENDROOT
BRANCH   3   9
HETATM    9  N1  UNL     1      25.706   5.053  50.434  1.00  0.00    -0.354 N 
HETATM   10  H5  UNL     1      25.509   5.549  51.361  1.00  0.00     0.163 HD
BRANCH   9  11
HETATM   11  C6  UNL     1      26.049   5.958  49.370  1.00  0.00     0.031 A 
HETATM   12  C7  UNL     1      27.258   6.061  48.741  1.00  0.00     0.029 A 
HETATM   13  C8  UNL     1      27.576   6.915  47.716  1.00  0.00     0.004 A 
HETATM   14  C9  UNL     1      26.570   7.749  47.284  1.00  0.00     0.019 A 
HETATM   15  C10 UNL     1      25.334   7.693  47.876  1.00  0.00     0.013 A 
HETATM   16 BR1  UNL     1      23.953   8.855  47.264  1.00  0.00    -0.051 Br
HETATM   17  C11 UNL     1      25.078   6.814  48.901  1.00  0.00     0.048 A 
ENDBRANCH   9  11
ENDBRANCH   3   9
BRANCH   1  18
HETATM   18  C2  UNL     1      22.261   2.956  49.089  1.00  0.00     0.000 C 
HETATM   19  C1  UNL     1      22.092   1.780  48.538  1.00  0.00     0.012 C 
ENDBRANCH   1  18
BRANCH   8  20
HETATM   20  O1  UNL     1      22.498   2.803  52.030  1.00  0.00    -0.376 OA
HETATM   21  H11 UNL     1      21.930   2.277  51.440  1.00  0.00     0.211 HD
ENDBRANCH   8  20
BRANCH   8  22
HETATM   22  C15 UNL     1      23.240   5.000  51.662  1.00  0.00     0.213 C 
BRANCH  22  23
HETATM   23  O2  UNL     1      23.874   5.295  52.880  1.00  0.00    -0.397 OA
HETATM   24  H14 UNL     1      23.925   6.273  53.037  1.00  0.00     0.209 HD
ENDBRANCH  22  23
ENDBRANCH   8  22
TORSDOF 6
ENDMDL
MODEL 7
REMARK VINA RESULT:      -6.8      3.387      4.406
REMARK  6 active torsions:
REMARK  status: ('A' for Active; 'I' for Inactive)
REMARK    1  A    between atoms: C2_2  and  C3_3 
REMARK    2  A    between atoms: C5_5  and  N1_6 
REMARK    3  A    between atoms: N1_6  and  C6_7 
REMARK    4  A    between atoms: C14_18  and  O1_19 
REMARK    5  A    between atoms: C14_18  and  C15_20 
REMARK    6  A    between atoms: C15_20  and  O2_21 
ROOT
HETATM    1  C3  UNL     1      24.653   2.622  51.247  1.00  0.00    -0.016 C 
HETATM    2  C4  UNL     1      23.650   1.786  50.806  1.00  0.00     0.045 C 
HETATM    3  C5  UNL     1      22.437   2.561  51.050  1.00  0.00     0.191 A 
HETATM    4  N2  UNL     1      21.310   2.388  50.160  1.00  0.00    -0.241 NA
HETATM    5  C12 UNL     1      21.129   3.547  49.596  1.00  0.00     0.230 A 
HETATM    6  N3  UNL     1      22.063   4.549  50.009  1.00  0.00    -0.243 NA
HETATM    7  C13 UNL     1      22.848   3.941  50.868  1.00  0.00     0.109 A 
HETATM    8  C14 UNL     1      24.110   3.946  51.696  1.00  0.00     0.151 C 
ENDROOT
BRANCH   3   9
HETATM    9  N1  UNL     1      21.979   2.198  52.394  1.00  0.00    -0.354 N 
HETATM   10  H5  UNL     1      21.902   3.041  53.047  1.00  0.00     0.163 HD
BRANCH   9  11
HETATM   11  C6  UNL     1      21.633   0.955  53.031  1.00  0.00     0.031 A 
HETATM   12  C7  UNL     1      22.455   0.166  53.785  1.00  0.00     0.029 A 
HETATM   13  C8  UNL     1      22.118  -1.011  54.403  1.00  0.00     0.004 A 
HETATM   14  C9  UNL     1      20.817  -1.433  54.239  1.00  0.00     0.019 A 
HETATM   15  C10 UNL     1      19.945  -0.684  53.492  1.00  0.00     0.013 A 
HETATM   16 BR1  UNL     1      18.149  -1.284  53.277  1.00  0.00    -0.051 Br
HETATM   17  C11 UNL     1      20.345   0.489  52.898  1.00  0.00     0.048 A 
ENDBRANCH   9  11
ENDBRANCH   3   9
BRANCH   1  18
HETATM   18  C2  UNL     1      26.063   2.284  51.216  1.00  0.00     0.000 C 
HETATM   19  C1  UNL     1      26.697   1.904  52.296  1.00  0.00     0.012 C 
ENDBRANCH   1  18
BRANCH   8  20
HETATM   20  O1  UNL     1      24.920   5.008  51.232  1.00  0.00    -0.376 OA
HETATM   21  H11 UNL     1      25.543   4.736  50.535  1.00  0.00     0.211 HD
ENDBRANCH   8  20
BRANCH   8  22
HETATM   22  C15 UNL     1      23.849   4.092  53.108  1.00  0.00     0.213 C 
BRANCH  22  23
HETATM   23  O2  UNL     1      23.891   5.449  53.469  1.00  0.00    -0.397 OA
HETATM   24  H14 UNL     1      23.164   5.681  54.102  1.00  0.00     0.209 HD
ENDBRANCH  22  23
ENDBRANCH   8  22
TORSDOF 6
ENDMDL
MODEL 8
REMARK VINA RESULT:      -6.7      8.200     10.382
REMARK  6 active torsions:
REMARK  status: ('A' for Active; 'I' for Inactive)
REMARK    1  A    between atoms: C2_2  and  C3_3 
REMARK    2  A    between atoms: C5_5  and  N1_6 
REMARK    3  A    between atoms: N1_6  and  C6_7 
REMARK    4  A    between atoms: C14_18  and  O1_19 
REMARK    5  A    between atoms: C14_18  and  C15_20 
REMARK    6  A    between atoms: C15_20  and  O2_21 
ROOT
HETATM    1  C3  UNL     1      33.088   5.125  45.453  1.00  0.00    -0.016 C 
HETATM    2  C4  UNL     1      32.422   6.293  45.754  1.00  0.00     0.045 C 
HETATM    3  C5  UNL     1      32.390   6.294  47.214  1.00  0.00     0.191 A 
HETATM    4  N2  UNL     1      32.425   7.562  47.909  1.00  0.00    -0.241 NA
HETATM    5  C12 UNL     1      33.526   7.550  48.604  1.00  0.00     0.230 A 
HETATM    6  N3  UNL     1      34.301   6.358  48.447  1.00  0.00    -0.243 NA
HETATM    7  C13 UNL     1      33.617   5.622  47.601  1.00  0.00     0.109 A 
HETATM    8  C14 UNL     1      33.550   4.419  46.693  1.00  0.00     0.151 C 
ENDROOT
BRANCH   3   9
HETATM    9  N1  UNL     1      31.143   5.629  47.600  1.00  0.00    -0.354 N 
HETATM   10  H5  UNL     1      31.275   4.588  47.805  1.00  0.00     0.163 HD
BRANCH   9  11
HETATM   11  C6  UNL     1      29.780   6.066  47.741  1.00  0.00     0.031 A 
HETATM   12  C7  UNL     1      29.251   7.250  47.308  1.00  0.00     0.029 A 
HETATM   13  C8  UNL     1      27.947   7.657  47.431  1.00  0.00     0.004 A 
HETATM   14  C9  UNL     1      27.092   6.777  48.056  1.00  0.00     0.019 A 
HETATM   15  C10 UNL     1      27.563   5.573  48.513  1.00  0.00     0.013 A 
HETATM   16 BR1  UNL     1      26.364   4.369  49.375  1.00  0.00    -0.051 Br
HETATM   17  C11 UNL     1      28.883   5.224  48.359  1.00  0.00     0.048 A 
ENDBRANCH   9  11
ENDBRANCH   3   9
BRANCH   1  18
HETATM   18  C2  UNL     1      33.364   4.672  44.103  1.00  0.00     0.000 C 
HETATM   19  C1  UNL     1      33.155   5.446  43.068  1.00  0.00     0.012 C 
ENDBRANCH   1  18
BRANCH   8  20
HETATM   20  O1  UNL     1      34.868   3.930  46.534  1.00  0.00    -0.376 OA
HETATM   21  H11 UNL     1      35.465   4.575  46.117  1.00  0.00     0.211 HD
ENDBRANCH   8  20
BRANCH   8  22
HETATM   22  C15 UNL     1      32.687   3.381  47.206  1.00  0.00     0.213 C 
BRANCH  22  23
HETATM   23  O2  UNL     1      32.750   3.351  48.609  1.00  0.00    -0.397 OA
HETATM   24  H14 UNL     1      32.365   2.514  48.974  1.00  0.00     0.209 HD
ENDBRANCH  22  23
ENDBRANCH   8  22
TORSDOF 6
ENDMDL
MODEL 9
REMARK VINA RESULT:      -6.6      8.206     11.252
REMARK  6 active torsions:
REMARK  status: ('A' for Active; 'I' for Inactive)
REMARK    1  A    between atoms: C2_2  and  C3_3 
REMARK    2  A    between atoms: C5_5  and  N1_6 
REMARK    3  A    between atoms: N1_6  and  C6_7 
REMARK    4  A    between atoms: C14_18  and  O1_19 
REMARK    5  A    between atoms: C14_18  and  C15_20 
REMARK    6  A    between atoms: C15_20  and  O2_21 
ROOT
HETATM    1  C3  UNL     1      28.609   8.402  47.112  1.00  0.00    -0.016 C 
HETATM    2  C4  UNL     1      29.125   7.133  46.965  1.00  0.00     0.045 C 
HETATM    3  C5  UNL     1      28.849   6.508  48.256  1.00  0.00     0.191 A 
HETATM    4  N2  UNL     1      28.592   5.084  48.298  1.00  0.00    -0.241 NA
HETATM    5  C12 UNL     1      27.373   4.962  48.738  1.00  0.00     0.230 A 
HETATM    6  N3  UNL     1      26.721   6.208  49.004  1.00  0.00    -0.243 NA
HETATM    7  C13 UNL     1      27.611   7.124  48.697  1.00  0.00     0.109 A 
HETATM    8  C14 UNL     1      27.940   8.574  48.444  1.00  0.00     0.151 C 
ENDROOT
BRANCH   3   9
HETATM    9  N1  UNL     1      30.025   6.755  49.094  1.00  0.00    -0.354 N 
HETATM   10  H5  UNL     1      29.773   6.962  50.112  1.00  0.00     0.163 HD
BRANCH   9  11
HETATM   11  C6  UNL     1      31.441   6.801  48.841  1.00  0.00     0.031 A 
HETATM   12  C7  UNL     1      32.250   7.899  48.920  1.00  0.00     0.029 A 
HETATM   13  C8  UNL     1      33.603   7.937  48.692  1.00  0.00     0.004 A 
HETATM   14  C9  UNL     1      34.195   6.742  48.348  1.00  0.00     0.019 A 
HETATM   15  C10 UNL     1      33.434   5.605  48.252  1.00  0.00     0.013 A 
HETATM   16 BR1  UNL     1      34.272   3.961  47.776  1.00  0.00    -0.051 Br
HETATM   17  C11 UNL     1      32.082   5.633  48.493  1.00  0.00     0.048 A 
ENDBRANCH   9  11
ENDBRANCH   3   9
BRANCH   1  18
HETATM   18  C2  UNL     1      28.651   9.420  46.080  1.00  0.00     0.000 C 
HETATM   19  C1  UNL     1      29.718  10.154  45.889  1.00  0.00     0.012 C 
ENDBRANCH   1  18
BRANCH   8  20
HETATM   20  O1  UNL     1      26.717   9.272  48.308  1.00  0.00    -0.376 OA
HETATM   21  H11 UNL     1      26.303   9.148  47.437  1.00  0.00     0.211 HD
ENDBRANCH   8  20
BRANCH   8  22
HETATM   22  C15 UNL     1      28.738   9.157  49.497  1.00  0.00     0.213 C 
BRANCH  22  23
HETATM   23  O2  UNL     1      27.960   9.323  50.655  1.00  0.00    -0.397 OA
HETATM   24  H14 UNL     1      27.312  10.066  50.556  1.00  0.00     0.209 HD
ENDBRANCH  22  23
ENDBRANCH   8  22
TORSDOF 6
ENDMDL
