MODEL 1
REMARK VINA RESULT:      -7.4      0.000      0.000
REMARK  9 active torsions:
REMARK  status: ('A' for Active; 'I' for Inactive)
REMARK    1  A    between atoms: O1_2  and  C2_3 
REMARK    2  A    between atoms: C2_3  and  C3_4 
REMARK    3  A    between atoms: C3_4  and  O2_5 
REMARK    4  A    between atoms: O2_5  and  C4_6 
REMARK    5  A    between atoms: C8_12  and  N3_13 
REMARK    6  A    between atoms: C17_22  and  O3_23 
REMARK    7  A    between atoms: O3_23  and  C18_24 
REMARK    8  A    between atoms: C18_24  and  C19_25 
REMARK    9  A    between atoms: C19_25  and  O4_26 
ROOT
HETATM    1  C4  UNL     1      23.153   1.953  51.481  1.00  0.00     0.104 A 
HETATM    2  C5  UNL     1      22.678   1.072  52.455  1.00  0.00     0.072 A 
HETATM    3  C6  UNL     1      23.471   0.323  53.298  1.00  0.00     0.075 A 
HETATM    4  N1  UNL     1      23.010  -0.510  54.232  1.00  0.00    -0.241 NA
HETATM    5  C7  UNL     1      23.884  -1.180  55.003  1.00  0.00     0.236 A 
HETATM    6  N2  UNL     1      25.223  -1.046  54.871  1.00  0.00    -0.223 NA
HETATM    7  C8  UNL     1      25.738  -0.210  53.936  1.00  0.00     0.144 A 
HETATM    8  C15 UNL     1      24.833   0.470  53.155  1.00  0.00     0.042 A 
HETATM    9  C16 UNL     1      25.347   1.326  52.212  1.00  0.00     0.057 A 
HETATM   10  C17 UNL     1      24.565   2.082  51.358  1.00  0.00     0.103 A 
ENDROOT
BRANCH   7  11
HETATM   11  N3  UNL     1      27.155  -0.188  53.870  1.00  0.00    -0.332 N 
HETATM   12  C9  UNL     1      28.009   0.817  54.498  1.00  0.00     0.158 A 
HETATM   13  C10 UNL     1      29.428   0.546  54.267  1.00  0.00    -0.007 A 
HETATM   14  C11 UNL     1      29.972  -0.443  53.590  1.00  0.00    -0.001 A 
HETATM   15  C12 UNL     1      29.016  -1.373  53.006  1.00  0.00     0.024 A 
HETATM   16  C13 UNL     1      27.679  -1.284  53.116  1.00  0.00     0.009 A 
HETATM   17  C14 UNL     1      26.850  -2.315  52.458  1.00  0.00     0.068 C 
ENDBRANCH   7  11
BRANCH  10  18
HETATM   18  O3  UNL     1      24.928   2.959  50.381  1.00  0.00    -0.346 OA
BRANCH  18  19
HETATM   19  C18 UNL     1      26.199   3.222  49.961  1.00  0.00     0.201 C 
BRANCH  19  20
HETATM   20  C19 UNL     1      26.475   4.478  49.219  1.00  0.00     0.193 C 
BRANCH  20  21
HETATM   21  O4  UNL     1      27.843   4.430  48.859  1.00  0.00    -0.394 OA
HETATM   22  C20 UNL     1      28.298   5.631  48.369  1.00  0.00     0.201 C 
ENDBRANCH  20  21
ENDBRANCH  19  20
ENDBRANCH  18  19
ENDBRANCH  10  18
BRANCH   1  23
HETATM   23  O2  UNL     1      22.388   2.646  50.698  1.00  0.00    -0.346 OA
BRANCH  23  24
HETATM   24  C3  UNL     1      21.579   3.664  50.422  1.00  0.00     0.201 C 
BRANCH  24  25
HETATM   25  C2  UNL     1      21.867   5.018  51.029  1.00  0.00     0.193 C 
BRANCH  25  26
HETATM   26  O1  UNL     1      22.875   5.717  50.441  1.00  0.00    -0.394 OA
HETATM   27  C1  UNL     1      23.846   6.163  51.335  1.00  0.00     0.201 C 
ENDBRANCH  25  26
ENDBRANCH  24  25
ENDBRANCH  23  24
ENDBRANCH   1  23
TORSDOF 9
ENDMDL
MODEL 2
REMARK VINA RESULT:      -7.2      1.360      1.850
REMARK  9 active torsions:
REMARK  status: ('A' for Active; 'I' for Inactive)
REMARK    1  A    between atoms: O1_2  and  C2_3 
REMARK    2  A    between atoms: C2_3  and  C3_4 
REMARK    3  A    between atoms: C3_4  and  O2_5 
REMARK    4  A    between atoms: O2_5  and  C4_6 
REMARK    5  A    between atoms: C8_12  and  N3_13 
REMARK    6  A    between atoms: C17_22  and  O3_23 
REMARK    7  A    between atoms: O3_23  and  C18_24 
REMARK    8  A    between atoms: C18_24  and  C19_25 
REMARK    9  A    between atoms: C19_25  and  O4_26 
ROOT
HETATM    1  C4  UNL     1      22.764   1.447  51.916  1.00  0.00     0.104 A 
HETATM    2  C5  UNL     1      22.441   0.560  52.945  1.00  0.00     0.072 A 
HETATM    3  C6  UNL     1      23.356  -0.086  53.749  1.00  0.00     0.075 A 
HETATM    4  N1  UNL     1      23.040  -0.926  54.735  1.00  0.00    -0.241 NA
HETATM    5  C7  UNL     1      24.024  -1.488  55.458  1.00  0.00     0.236 A 
HETATM    6  N2  UNL     1      25.333  -1.239  55.225  1.00  0.00    -0.223 NA
HETATM    7  C8  UNL     1      25.702  -0.392  54.233  1.00  0.00     0.144 A 
HETATM    8  C15 UNL     1      24.685   0.178  53.503  1.00  0.00     0.042 A 
HETATM    9  C16 UNL     1      25.051   1.044  52.502  1.00  0.00     0.057 A 
HETATM   10  C17 UNL     1      24.145   1.699  51.687  1.00  0.00     0.103 A 
ENDROOT
BRANCH   7  11
HETATM   11  N3  UNL     1      27.103  -0.245  54.064  1.00  0.00    -0.332 N 
HETATM   12  C9  UNL     1      27.922   0.783  54.700  1.00  0.00     0.158 A 
HETATM   13  C10 UNL     1      29.335   0.650  54.345  1.00  0.00    -0.007 A 
HETATM   14  C11 UNL     1      29.899  -0.240  53.556  1.00  0.00    -0.001 A 
HETATM   15  C12 UNL     1      28.976  -1.206  52.977  1.00  0.00     0.024 A 
HETATM   16  C13 UNL     1      27.649  -1.238  53.193  1.00  0.00     0.009 A 
HETATM   17  C14 UNL     1      26.855  -2.288  52.523  1.00  0.00     0.068 C 
ENDBRANCH   7  11
BRANCH  10  18
HETATM   18  O3  UNL     1      24.357   2.572  50.664  1.00  0.00    -0.346 OA
BRANCH  18  19
HETATM   19  C18 UNL     1      25.240   3.612  50.656  1.00  0.00     0.201 C 
BRANCH  19  20
HETATM   20  C19 UNL     1      26.477   3.511  49.841  1.00  0.00     0.193 C 
BRANCH  20  21
HETATM   21  O4  UNL     1      26.493   4.656  49.008  1.00  0.00    -0.394 OA
HETATM   22  C20 UNL     1      27.761   4.977  48.587  1.00  0.00     0.201 C 
ENDBRANCH  20  21
ENDBRANCH  19  20
ENDBRANCH  18  19
ENDBRANCH  10  18
BRANCH   1  23
HETATM   23  O2  UNL     1      21.885   2.042  51.173  1.00  0.00    -0.346 OA
BRANCH  23  24
HETATM   24  C3  UNL     1      20.683   2.557  50.933  1.00  0.00     0.201 C 
BRANCH  24  25
HETATM   25  C2  UNL     1      19.889   3.137  52.081  1.00  0.00     0.193 C 
BRANCH  25  26
HETATM   26  O1  UNL     1      18.747   3.788  51.728  1.00  0.00    -0.394 OA
HETATM   27  C1  UNL     1      17.677   2.938  51.456  1.00  0.00     0.201 C 
ENDBRANCH  25  26
ENDBRANCH  24  25
ENDBRANCH  23  24
ENDBRANCH   1  23
TORSDOF 9
ENDMDL
MODEL 3
REMARK VINA RESULT:      -7.1      2.119      5.870
REMARK  9 active torsions:
REMARK  status: ('A' for Active; 'I' for Inactive)
REMARK    1  A    between atoms: O1_2  and  C2_3 
REMARK    2  A    between atoms: C2_3  and  C3_4 
REMARK    3  A    between atoms: C3_4  and  O2_5 
REMARK    4  A    between atoms: O2_5  and  C4_6 
REMARK    5  A    between atoms: C8_12  and  N3_13 
REMARK    6  A    between atoms: C17_22  and  O3_23 
REMARK    7  A    between atoms: O3_23  and  C18_24 
REMARK    8  A    between atoms: C18_24  and  C19_25 
REMARK    9  A    between atoms: C19_25  and  O4_26 
ROOT
HETATM    1  C4  UNL     1      25.786  -0.014  52.801  1.00  0.00     0.104 A 
HETATM    2  C5  UNL     1      24.784  -0.587  53.588  1.00  0.00     0.072 A 
HETATM    3  C6  UNL     1      23.463  -0.191  53.598  1.00  0.00     0.075 A 
HETATM    4  N1  UNL     1      22.510  -0.747  54.346  1.00  0.00    -0.241 NA
HETATM    5  C7  UNL     1      21.253  -0.279  54.262  1.00  0.00     0.236 A 
HETATM    6  N2  UNL     1      20.910   0.743  53.445  1.00  0.00    -0.223 NA
HETATM    7  C8  UNL     1      21.845   1.340  52.666  1.00  0.00     0.144 A 
HETATM    8  C15 UNL     1      23.126   0.849  52.761  1.00  0.00     0.042 A 
HETATM    9  C16 UNL     1      24.077   1.443  51.968  1.00  0.00     0.057 A 
HETATM   10  C17 UNL     1      25.406   1.058  51.947  1.00  0.00     0.103 A 
ENDROOT
BRANCH   7  11
HETATM   11  N3  UNL     1      21.368   2.424  51.885  1.00  0.00    -0.332 N 
HETATM   12  C9  UNL     1      21.339   3.819  52.314  1.00  0.00     0.158 A 
HETATM   13  C10 UNL     1      20.814   4.699  51.270  1.00  0.00    -0.007 A 
HETATM   14  C11 UNL     1      20.388   4.376  50.067  1.00  0.00    -0.001 A 
HETATM   15  C12 UNL     1      20.459   2.954  49.762  1.00  0.00     0.024 A 
HETATM   16  C13 UNL     1      20.914   2.003  50.596  1.00  0.00     0.009 A 
HETATM   17  C14 UNL     1      20.918   0.602  50.127  1.00  0.00     0.068 C 
ENDBRANCH   7  11
BRANCH  10  18
HETATM   18  O3  UNL     1      26.450   1.550  51.225  1.00  0.00    -0.346 OA
BRANCH  18  19
HETATM   19  C18 UNL     1      26.727   2.865  50.994  1.00  0.00     0.201 C 
BRANCH  19  20
HETATM   20  C19 UNL     1      26.250   3.501  49.739  1.00  0.00     0.193 C 
BRANCH  20  21
HETATM   21  O4  UNL     1      27.411   3.871  49.020  1.00  0.00    -0.394 OA
HETATM   22  C20 UNL     1      27.386   5.188  48.629  1.00  0.00     0.201 C 
ENDBRANCH  20  21
ENDBRANCH  19  20
ENDBRANCH  18  19
ENDBRANCH  10  18
BRANCH   1  23
HETATM   23  O2  UNL     1      27.022  -0.403  52.809  1.00  0.00    -0.346 OA
BRANCH  23  24
HETATM   24  C3  UNL     1      28.210  -0.576  53.378  1.00  0.00     0.201 C 
BRANCH  24  25
HETATM   25  C2  UNL     1      28.547   0.203  54.630  1.00  0.00     0.193 C 
BRANCH  25  26
HETATM   26  O1  UNL     1      28.116   1.493  54.646  1.00  0.00    -0.394 OA
HETATM   27  C1  UNL     1      28.881   2.351  53.859  1.00  0.00     0.201 C 
ENDBRANCH  25  26
ENDBRANCH  24  25
ENDBRANCH  23  24
ENDBRANCH   1  23
TORSDOF 9
ENDMDL
MODEL 4
REMARK VINA RESULT:      -7.0      3.180      7.584
REMARK  9 active torsions:
REMARK  status: ('A' for Active; 'I' for Inactive)
REMARK    1  A    between atoms: O1_2  and  C2_3 
REMARK    2  A    between atoms: C2_3  and  C3_4 
REMARK    3  A    between atoms: C3_4  and  O2_5 
REMARK    4  A    between atoms: O2_5  and  C4_6 
REMARK    5  A    between atoms: C8_12  and  N3_13 
REMARK    6  A    between atoms: C17_22  and  O3_23 
REMARK    7  A    between atoms: O3_23  and  C18_24 
REMARK    8  A    between atoms: C18_24  and  C19_25 
REMARK    9  A    between atoms: C19_25  and  O4_26 
ROOT
HETATM    1  C4  UNL     1      26.273   0.455  52.395  1.00  0.00     0.104 A 
HETATM    2  C5  UNL     1      26.870   1.450  51.617  1.00  0.00     0.072 A 
HETATM    3  C6  UNL     1      26.195   2.476  50.991  1.00  0.00     0.075 A 
HETATM    4  N1  UNL     1      26.772   3.427  50.257  1.00  0.00    -0.241 NA
HETATM    5  C7  UNL     1      26.007   4.384  49.703  1.00  0.00     0.236 A 
HETATM    6  N2  UNL     1      24.664   4.423  49.859  1.00  0.00    -0.223 NA
HETATM    7  C8  UNL     1      24.032   3.477  50.597  1.00  0.00     0.144 A 
HETATM    8  C15 UNL     1      24.828   2.506  51.159  1.00  0.00     0.042 A 
HETATM    9  C16 UNL     1      24.197   1.549  51.916  1.00  0.00     0.057 A 
HETATM   10  C17 UNL     1      24.860   0.514  52.549  1.00  0.00     0.103 A 
ENDROOT
BRANCH   7  11
HETATM   11  N3  UNL     1      22.621   3.605  50.651  1.00  0.00    -0.332 N 
HETATM   12  C9  UNL     1      21.876   4.241  51.735  1.00  0.00     0.158 A 
HETATM   13  C10 UNL     1      20.435   4.236  51.481  1.00  0.00    -0.007 A 
HETATM   14  C11 UNL     1      19.789   3.742  50.446  1.00  0.00    -0.001 A 
HETATM   15  C12 UNL     1      20.642   3.128  49.438  1.00  0.00     0.024 A 
HETATM   16  C13 UNL     1      21.983   3.043  49.502  1.00  0.00     0.009 A 
HETATM   17  C14 UNL     1      22.698   2.384  48.390  1.00  0.00     0.068 C 
ENDBRANCH   7  11
BRANCH  10  18
HETATM   18  O3  UNL     1      24.374  -0.498  53.319  1.00  0.00    -0.346 OA
BRANCH  18  19
HETATM   19  C18 UNL     1      23.116  -0.589  53.838  1.00  0.00     0.201 C 
BRANCH  19  20
HETATM   20  C19 UNL     1      22.910  -1.286  55.133  1.00  0.00     0.193 C 
BRANCH  20  21
HETATM   21  O4  UNL     1      21.573  -1.751  55.122  1.00  0.00    -0.394 OA
HETATM   22  C20 UNL     1      20.853  -1.246  54.065  1.00  0.00     0.201 C 
ENDBRANCH  20  21
ENDBRANCH  19  20
ENDBRANCH  18  19
ENDBRANCH  10  18
BRANCH   1  23
HETATM   23  O2  UNL     1      26.930  -0.500  52.974  1.00  0.00    -0.346 OA
BRANCH  23  24
HETATM   24  C3  UNL     1      28.012  -1.245  53.179  1.00  0.00     0.201 C 
BRANCH  24  25
HETATM   25  C2  UNL     1      29.205  -0.631  53.875  1.00  0.00     0.193 C 
BRANCH  25  26
HETATM   26  O1  UNL     1      28.913   0.322  54.801  1.00  0.00    -0.394 OA
HETATM   27  C1  UNL     1      29.306   1.605  54.429  1.00  0.00     0.201 C 
ENDBRANCH  25  26
ENDBRANCH  24  25
ENDBRANCH  23  24
ENDBRANCH   1  23
TORSDOF 9
ENDMDL
MODEL 5
REMARK VINA RESULT:      -6.6      3.220      7.729
REMARK  9 active torsions:
REMARK  status: ('A' for Active; 'I' for Inactive)
REMARK    1  A    between atoms: O1_2  and  C2_3 
REMARK    2  A    between atoms: C2_3  and  C3_4 
REMARK    3  A    between atoms: C3_4  and  O2_5 
REMARK    4  A    between atoms: O2_5  and  C4_6 
REMARK    5  A    between atoms: C8_12  and  N3_13 
REMARK    6  A    between atoms: C17_22  and  O3_23 
REMARK    7  A    between atoms: O3_23  and  C18_24 
REMARK    8  A    between atoms: C18_24  and  C19_25 
REMARK    9  A    between atoms: C19_25  and  O4_26 
ROOT
HETATM    1  C4  UNL     1      25.442   1.340  52.074  1.00  0.00     0.104 A 
HETATM    2  C5  UNL     1      26.381   1.884  51.195  1.00  0.00     0.072 A 
HETATM    3  C6  UNL     1      26.210   3.047  50.476  1.00  0.00     0.075 A 
HETATM    4  N1  UNL     1      27.115   3.565  49.644  1.00  0.00    -0.241 NA
HETATM    5  C7  UNL     1      26.836   4.714  49.005  1.00  0.00     0.236 A 
HETATM    6  N2  UNL     1      25.667   5.374  49.168  1.00  0.00    -0.223 NA
HETATM    7  C8  UNL     1      24.716   4.885  50.003  1.00  0.00     0.144 A 
HETATM    8  C15 UNL     1      25.016   3.710  50.652  1.00  0.00     0.042 A 
HETATM    9  C16 UNL     1      24.062   3.214  51.507  1.00  0.00     0.057 A 
HETATM   10  C17 UNL     1      24.218   2.048  52.234  1.00  0.00     0.103 A 
ENDROOT
BRANCH   7  11
HETATM   11  N3  UNL     1      23.521   5.646  50.057  1.00  0.00    -0.332 N 
HETATM   12  C9  UNL     1      23.265   6.745  50.985  1.00  0.00     0.158 A 
HETATM   13  C10 UNL     1      21.948   7.344  50.769  1.00  0.00    -0.007 A 
HETATM   14  C11 UNL     1      21.031   7.007  49.886  1.00  0.00    -0.001 A 
HETATM   15  C12 UNL     1      21.401   5.893  49.026  1.00  0.00     0.024 A 
HETATM   16  C13 UNL     1      22.567   5.225  49.078  1.00  0.00     0.009 A 
HETATM   17  C14 UNL     1      22.783   4.114  48.128  1.00  0.00     0.068 C 
ENDBRANCH   7  11
BRANCH  10  18
HETATM   18  O3  UNL     1      23.369   1.437  53.106  1.00  0.00    -0.346 OA
BRANCH  18  19
HETATM   19  C18 UNL     1      22.230   0.758  52.786  1.00  0.00     0.201 C 
BRANCH  19  20
HETATM   20  C19 UNL     1      22.055  -0.636  53.268  1.00  0.00     0.193 C 
BRANCH  20  21
HETATM   21  O4  UNL     1      21.978  -0.557  54.679  1.00  0.00    -0.394 OA
HETATM   22  C20 UNL     1      22.915  -1.349  55.299  1.00  0.00     0.201 C 
ENDBRANCH  20  21
ENDBRANCH  19  20
ENDBRANCH  18  19
ENDBRANCH  10  18
BRANCH   1  23
HETATM   23  O2  UNL     1      25.625   0.243  52.739  1.00  0.00    -0.346 OA
BRANCH  23  24
HETATM   24  C3  UNL     1      26.228  -0.503  53.659  1.00  0.00     0.201 C 
BRANCH  24  25
HETATM   25  C2  UNL     1      26.884   0.173  54.841  1.00  0.00     0.193 C 
BRANCH  25  26
HETATM   26  O1  UNL     1      28.163  -0.212  55.097  1.00  0.00    -0.394 OA
HETATM   27  C1  UNL     1      29.087   0.256  54.166  1.00  0.00     0.201 C 
ENDBRANCH  25  26
ENDBRANCH  24  25
ENDBRANCH  23  24
ENDBRANCH   1  23
TORSDOF 9
ENDMDL
MODEL 6
REMARK VINA RESULT:      -6.2      3.292      7.742
REMARK  9 active torsions:
REMARK  status: ('A' for Active; 'I' for Inactive)
REMARK    1  A    between atoms: O1_2  and  C2_3 
REMARK    2  A    between atoms: C2_3  and  C3_4 
REMARK    3  A    between atoms: C3_4  and  O2_5 
REMARK    4  A    between atoms: O2_5  and  C4_6 
REMARK    5  A    between atoms: C8_12  and  N3_13 
REMARK    6  A    between atoms: C17_22  and  O3_23 
REMARK    7  A    between atoms: O3_23  and  C18_24 
REMARK    8  A    between atoms: C18_24  and  C19_25 
REMARK    9  A    between atoms: C19_25  and  O4_26 
ROOT
HETATM    1  C4  UNL     1      25.218   1.559  51.609  1.00  0.00     0.104 A 
HETATM    2  C5  UNL     1      26.309   2.159  50.974  1.00  0.00     0.072 A 
HETATM    3  C6  UNL     1      26.243   3.293  50.192  1.00  0.00     0.075 A 
HETATM    4  N1  UNL     1      27.289   3.865  49.596  1.00  0.00    -0.241 NA
HETATM    5  C7  UNL     1      27.101   4.977  48.865  1.00  0.00     0.236 A 
HETATM    6  N2  UNL     1      25.884   5.546  48.705  1.00  0.00    -0.223 NA
HETATM    7  C8  UNL     1      24.791   5.000  49.293  1.00  0.00     0.144 A 
HETATM    8  C15 UNL     1      24.999   3.864  50.039  1.00  0.00     0.042 A 
HETATM    9  C16 UNL     1      23.898   3.310  50.645  1.00  0.00     0.057 A 
HETATM   10  C17 UNL     1      23.947   2.173  51.431  1.00  0.00     0.103 A 
ENDROOT
BRANCH   7  11
HETATM   11  N3  UNL     1      23.570   5.666  49.017  1.00  0.00    -0.332 N 
HETATM   12  C9  UNL     1      22.673   5.351  47.907  1.00  0.00     0.158 A 
HETATM   13  C10 UNL     1      21.482   6.202  47.912  1.00  0.00    -0.007 A 
HETATM   14  C11 UNL     1      21.166   7.161  48.756  1.00  0.00    -0.001 A 
HETATM   15  C12 UNL     1      22.143   7.384  49.812  1.00  0.00     0.024 A 
HETATM   16  C13 UNL     1      23.290   6.699  49.966  1.00  0.00     0.009 A 
HETATM   17  C14 UNL     1      24.174   7.054  51.096  1.00  0.00     0.068 C 
ENDBRANCH   7  11
BRANCH  10  18
HETATM   18  O3  UNL     1      22.950   1.514  52.084  1.00  0.00    -0.346 OA
BRANCH  18  19
HETATM   19  C18 UNL     1      21.621   1.547  51.778  1.00  0.00     0.201 C 
BRANCH  19  20
HETATM   20  C19 UNL     1      21.001   0.379  51.103  1.00  0.00     0.193 C 
BRANCH  20  21
HETATM   21  O4  UNL     1      20.394   0.881  49.927  1.00  0.00    -0.394 OA
HETATM   22  C20 UNL     1      21.313   1.163  48.944  1.00  0.00     0.201 C 
ENDBRANCH  20  21
ENDBRANCH  19  20
ENDBRANCH  18  19
ENDBRANCH  10  18
BRANCH   1  23
HETATM   23  O2  UNL     1      25.304   0.492  52.338  1.00  0.00    -0.346 OA
BRANCH  23  24
HETATM   24  C3  UNL     1      25.650  -0.173  53.436  1.00  0.00     0.201 C 
BRANCH  24  25
HETATM   25  C2  UNL     1      26.471   0.529  54.494  1.00  0.00     0.193 C 
BRANCH  25  26
HETATM   26  O1  UNL     1      27.439  -0.228  55.076  1.00  0.00    -0.394 OA
HETATM   27  C1  UNL     1      28.735   0.180  54.767  1.00  0.00     0.201 C 
ENDBRANCH  25  26
ENDBRANCH  24  25
ENDBRANCH  23  24
ENDBRANCH   1  23
TORSDOF 9
ENDMDL
MODEL 7
REMARK VINA RESULT:      -5.9      4.085      8.312
REMARK  9 active torsions:
REMARK  status: ('A' for Active; 'I' for Inactive)
REMARK    1  A    between atoms: O1_2  and  C2_3 
REMARK    2  A    between atoms: C2_3  and  C3_4 
REMARK    3  A    between atoms: C3_4  and  O2_5 
REMARK    4  A    between atoms: O2_5  and  C4_6 
REMARK    5  A    between atoms: C8_12  and  N3_13 
REMARK    6  A    between atoms: C17_22  and  O3_23 
REMARK    7  A    between atoms: O3_23  and  C18_24 
REMARK    8  A    between atoms: C18_24  and  C19_25 
REMARK    9  A    between atoms: C19_25  and  O4_26 
ROOT
HETATM    1  C4  UNL     1      25.301   3.619  49.958  1.00  0.00     0.104 A 
HETATM    2  C5  UNL     1      26.636   3.664  49.551  1.00  0.00     0.072 A 
HETATM    3  C6  UNL     1      27.241   4.744  48.944  1.00  0.00     0.075 A 
HETATM    4  N1  UNL     1      28.518   4.784  48.564  1.00  0.00    -0.241 NA
HETATM    5  C7  UNL     1      28.998   5.900  47.989  1.00  0.00     0.236 A 
HETATM    6  N2  UNL     1      28.234   6.995  47.776  1.00  0.00    -0.223 NA
HETATM    7  C8  UNL     1      26.929   7.002  48.145  1.00  0.00     0.144 A 
HETATM    8  C15 UNL     1      26.452   5.854  48.733  1.00  0.00     0.042 A 
HETATM    9  C16 UNL     1      25.134   5.856  49.118  1.00  0.00     0.057 A 
HETATM   10  C17 UNL     1      24.513   4.780  49.727  1.00  0.00     0.103 A 
ENDROOT
BRANCH   7  11
HETATM   11  N3  UNL     1      26.226   8.192  47.830  1.00  0.00    -0.332 N 
HETATM   12  C9  UNL     1      25.437   8.407  46.619  1.00  0.00     0.158 A 
HETATM   13  C10 UNL     1      24.813   9.731  46.605  1.00  0.00    -0.007 A 
HETATM   14  C11 UNL     1      24.894  10.683  47.510  1.00  0.00    -0.001 A 
HETATM   15  C12 UNL     1      25.715  10.351  48.666  1.00  0.00     0.024 A 
HETATM   16  C13 UNL     1      26.360   9.185  48.850  1.00  0.00     0.009 A 
HETATM   17  C14 UNL     1      27.154   9.011  50.084  1.00  0.00     0.068 C 
ENDBRANCH   7  11
BRANCH  10  18
HETATM   18  O3  UNL     1      23.228   4.637  50.154  1.00  0.00    -0.346 OA
BRANCH  18  19
HETATM   19  C18 UNL     1      22.568   5.454  51.024  1.00  0.00     0.201 C 
BRANCH  19  20
HETATM   20  C19 UNL     1      21.493   6.343  50.514  1.00  0.00     0.193 C 
BRANCH  20  21
HETATM   21  O4  UNL     1      21.911   7.666  50.794  1.00  0.00    -0.394 OA
HETATM   22  C20 UNL     1      22.504   8.267  49.709  1.00  0.00     0.201 C 
ENDBRANCH  20  21
ENDBRANCH  19  20
ENDBRANCH  18  19
ENDBRANCH  10  18
BRANCH   1  23
HETATM   23  O2  UNL     1      24.753   2.591  50.527  1.00  0.00    -0.346 OA
BRANCH  23  24
HETATM   24  C3  UNL     1      24.218   1.949  51.560  1.00  0.00     0.201 C 
BRANCH  24  25
HETATM   25  C2  UNL     1      24.211   2.614  52.917  1.00  0.00     0.193 C 
BRANCH  25  26
HETATM   26  O1  UNL     1      25.387   2.560  53.598  1.00  0.00    -0.394 OA
HETATM   27  C1  UNL     1      25.947   1.286  53.653  1.00  0.00     0.201 C 
ENDBRANCH  25  26
ENDBRANCH  24  25
ENDBRANCH  23  24
ENDBRANCH   1  23
TORSDOF 9
ENDMDL
MODEL 8
REMARK VINA RESULT:      -5.8      1.673      5.095
REMARK  9 active torsions:
REMARK  status: ('A' for Active; 'I' for Inactive)
REMARK    1  A    between atoms: O1_2  and  C2_3 
REMARK    2  A    between atoms: C2_3  and  C3_4 
REMARK    3  A    between atoms: C3_4  and  O2_5 
REMARK    4  A    between atoms: O2_5  and  C4_6 
REMARK    5  A    between atoms: C8_12  and  N3_13 
REMARK    6  A    between atoms: C17_22  and  O3_23 
REMARK    7  A    between atoms: O3_23  and  C18_24 
REMARK    8  A    between atoms: C18_24  and  C19_25 
REMARK    9  A    between atoms: C19_25  and  O4_26 
ROOT
HETATM    1  C4  UNL     1      25.682   3.419  50.801  1.00  0.00     0.104 A 
HETATM    2  C5  UNL     1      26.644   2.449  51.093  1.00  0.00     0.072 A 
HETATM    3  C6  UNL     1      26.398   1.263  51.750  1.00  0.00     0.075 A 
HETATM    4  N1  UNL     1      27.320   0.338  52.018  1.00  0.00    -0.241 NA
HETATM    5  C7  UNL     1      26.955  -0.786  52.658  1.00  0.00     0.236 A 
HETATM    6  N2  UNL     1      25.682  -1.022  53.047  1.00  0.00    -0.223 NA
HETATM    7  C8  UNL     1      24.709  -0.111  52.796  1.00  0.00     0.144 A 
HETATM    8  C15 UNL     1      25.096   1.034  52.139  1.00  0.00     0.042 A 
HETATM    9  C16 UNL     1      24.116   1.958  51.873  1.00  0.00     0.057 A 
HETATM   10  C17 UNL     1      24.348   3.152  51.216  1.00  0.00     0.103 A 
ENDROOT
BRANCH   7  11
HETATM   11  N3  UNL     1      23.425  -0.457  53.289  1.00  0.00    -0.332 N 
HETATM   12  C9  UNL     1      22.186  -0.397  52.518  1.00  0.00     0.158 A 
HETATM   13  C10 UNL     1      21.035  -0.844  53.303  1.00  0.00    -0.007 A 
HETATM   14  C11 UNL     1      21.009  -1.260  54.552  1.00  0.00    -0.001 A 
HETATM   15  C12 UNL     1      22.305  -1.266  55.214  1.00  0.00     0.024 A 
HETATM   16  C13 UNL     1      23.467  -0.893  54.650  1.00  0.00     0.009 A 
HETATM   17  C14 UNL     1      24.697  -0.960  55.466  1.00  0.00     0.068 C 
ENDBRANCH   7  11
BRANCH  10  18
HETATM   18  O3  UNL     1      23.486   4.155  50.890  1.00  0.00    -0.346 OA
BRANCH  18  19
HETATM   19  C18 UNL     1      22.587   4.754  51.723  1.00  0.00     0.201 C 
BRANCH  19  20
HETATM   20  C19 UNL     1      21.231   5.082  51.216  1.00  0.00     0.193 C 
BRANCH  20  21
HETATM   21  O4  UNL     1      21.411   6.083  50.232  1.00  0.00    -0.394 OA
HETATM   22  C20 UNL     1      21.680   7.314  50.782  1.00  0.00     0.201 C 
ENDBRANCH  20  21
ENDBRANCH  19  20
ENDBRANCH  18  19
ENDBRANCH  10  18
BRANCH   1  23
HETATM   23  O2  UNL     1      25.938   4.528  50.182  1.00  0.00    -0.346 OA
BRANCH  23  24
HETATM   24  C3  UNL     1      26.318   5.239  49.125  1.00  0.00     0.201 C 
BRANCH  24  25
HETATM   25  C2  UNL     1      27.702   5.029  48.555  1.00  0.00     0.193 C 
BRANCH  25  26
HETATM   26  O1  UNL     1      28.353   6.161  48.174  1.00  0.00    -0.394 OA
HETATM   27  C1  UNL     1      29.738   6.026  48.134  1.00  0.00     0.201 C 
ENDBRANCH  25  26
ENDBRANCH  24  25
ENDBRANCH  23  24
ENDBRANCH   1  23
TORSDOF 9
ENDMDL
MODEL 9
REMARK VINA RESULT:      -5.8      2.102      4.989
REMARK  9 active torsions:
REMARK  status: ('A' for Active; 'I' for Inactive)
REMARK    1  A    between atoms: O1_2  and  C2_3 
REMARK    2  A    between atoms: C2_3  and  C3_4 
REMARK    3  A    between atoms: C3_4  and  O2_5 
REMARK    4  A    between atoms: O2_5  and  C4_6 
REMARK    5  A    between atoms: C8_12  and  N3_13 
REMARK    6  A    between atoms: C17_22  and  O3_23 
REMARK    7  A    between atoms: O3_23  and  C18_24 
REMARK    8  A    between atoms: C18_24  and  C19_25 
REMARK    9  A    between atoms: C19_25  and  O4_26 
ROOT
HETATM    1  C4  UNL     1      24.450   3.991  50.964  1.00  0.00     0.104 A 
HETATM    2  C5  UNL     1      25.645   3.268  50.952  1.00  0.00     0.072 A 
HETATM    3  C6  UNL     1      25.819   2.020  51.513  1.00  0.00     0.075 A 
HETATM    4  N1  UNL     1      26.961   1.332  51.491  1.00  0.00    -0.241 NA
HETATM    5  C7  UNL     1      27.005   0.117  52.065  1.00  0.00     0.236 A 
HETATM    6  N2  UNL     1      25.933  -0.442  52.671  1.00  0.00    -0.223 NA
HETATM    7  C8  UNL     1      24.752   0.221  52.719  1.00  0.00     0.144 A 
HETATM    8  C15 UNL     1      24.720   1.462  52.126  1.00  0.00     0.042 A 
HETATM    9  C16 UNL     1      23.524   2.136  52.162  1.00  0.00     0.057 A 
HETATM   10  C17 UNL     1      23.333   3.387  51.605  1.00  0.00     0.103 A 
ENDROOT
BRANCH   7  11
HETATM   11  N3  UNL     1      23.717  -0.452  53.417  1.00  0.00    -0.332 N 
HETATM   12  C9  UNL     1      22.411  -0.793  52.858  1.00  0.00     0.158 A 
HETATM   13  C10 UNL     1      21.577  -1.510  53.824  1.00  0.00    -0.007 A 
HETATM   14  C11 UNL     1      21.866  -1.847  55.063  1.00  0.00    -0.001 A 
HETATM   15  C12 UNL     1      23.193  -1.444  55.505  1.00  0.00     0.024 A 
HETATM   16  C13 UNL     1      24.094  -0.783  54.756  1.00  0.00     0.009 A 
HETATM   17  C14 UNL     1      25.400  -0.449  55.361  1.00  0.00     0.068 C 
ENDBRANCH   7  11
BRANCH  10  18
HETATM   18  O3  UNL     1      22.220   4.170  51.567  1.00  0.00    -0.346 OA
BRANCH  18  19
HETATM   19  C18 UNL     1      21.065   3.904  50.892  1.00  0.00     0.201 C 
BRANCH  19  20
HETATM   20  C19 UNL     1      19.764   4.025  51.599  1.00  0.00     0.193 C 
BRANCH  20  21
HETATM   21  O4  UNL     1      19.735   2.978  52.550  1.00  0.00    -0.394 OA
HETATM   22  C20 UNL     1      19.769   1.736  51.962  1.00  0.00     0.201 C 
ENDBRANCH  20  21
ENDBRANCH  19  20
ENDBRANCH  18  19
ENDBRANCH  10  18
BRANCH   1  23
HETATM   23  O2  UNL     1      24.310   5.164  50.430  1.00  0.00    -0.346 OA
BRANCH  23  24
HETATM   24  C3  UNL     1      24.562   6.466  50.338  1.00  0.00     0.201 C 
BRANCH  24  25
HETATM   25  C2  UNL     1      23.419   7.447  50.465  1.00  0.00     0.193 C 
BRANCH  25  26
HETATM   26  O1  UNL     1      22.273   7.091  49.825  1.00  0.00    -0.394 OA
HETATM   27  C1  UNL     1      21.123   7.651  50.378  1.00  0.00     0.201 C 
ENDBRANCH  25  26
ENDBRANCH  24  25
ENDBRANCH  23  24
ENDBRANCH   1  23
TORSDOF 9
ENDMDL
