MODEL 1
REMARK VINA RESULT:      -7.6      0.000      0.000
REMARK  4 active torsions:
REMARK  status: ('A' for Active; 'I' for Inactive)
REMARK    1  A    between atoms: N1_7  and  C6_8 
REMARK    2  A    between atoms: C6_8  and  C7_9 
REMARK    3  A    between atoms: C8_10  and  C9_11 
REMARK       I    between atoms: C9_11  and  N2_13 
REMARK    4  A    between atoms: N2_13  and  C10_14 
ROOT
HETATM    1  C9  UNL     1      24.573  -0.577  54.506  1.00  0.00     0.301 C 
HETATM    2  O2  UNL     1      25.214  -1.201  55.415  1.00  0.00    -0.258 OA
HETATM    3  N2  UNL     1      25.193   0.376  53.644  1.00  0.00    -0.314 N 
HETATM    4  H13 UNL     1      24.651   0.886  52.898  1.00  0.00     0.170 HD
ENDROOT
BRANCH   1   5
HETATM    5  C8  UNL     1      23.164  -0.827  54.322  1.00  0.00    -0.004 C 
HETATM    6  C7  UNL     1      21.976  -1.037  54.152  1.00  0.00    -0.066 C 
BRANCH   6   7
HETATM    7  C6  UNL     1      20.548  -1.310  53.961  1.00  0.00     0.366 C 
BRANCH   7   8
HETATM    8  N1  UNL     1      19.900  -0.145  53.442  1.00  0.00     0.107 N 
HETATM    9  C2  UNL     1      18.906  -0.537  52.470  1.00  0.00     0.243 C 
HETATM   10  C1  UNL     1      17.873  -1.386  53.183  1.00  0.00     0.045 C 
HETATM   11  C3  UNL     1      18.172   0.647  51.889  1.00  0.00     0.203 C 
HETATM   12  O1  UNL     1      18.992   1.765  51.773  1.00  0.00    -0.387 OA
HETATM   13  C4  UNL     1      20.332   1.383  51.636  1.00  0.00     0.198 C 
HETATM   14  C5  UNL     1      20.769   0.899  53.000  1.00  0.00     0.300 C 
ENDBRANCH   7   8
ENDBRANCH   6   7
ENDBRANCH   1   5
BRANCH   3  15
HETATM   15  C10 UNL     1      26.566   0.814  53.602  1.00  0.00     0.067 A 
HETATM   16  C11 UNL     1      27.016   2.056  53.590  1.00  0.00     0.034 A 
HETATM   17  C12 UNL     1      28.475   1.996  53.546  1.00  0.00     0.036 A 
HETATM   18  C13 UNL     1      28.837   0.727  53.533  1.00  0.00     0.089 A 
HETATM   19  N3  UNL     1      30.014  -0.067  53.497  1.00  0.00    -0.240 NA
HETATM   20  C15 UNL     1      27.650  -0.156  53.569  1.00  0.00     0.113 A 
HETATM   21  C14 UNL     1      29.585  -1.283  53.510  1.00  0.00     0.234 A 
HETATM   22  N4  UNL     1      28.170  -1.337  53.554  1.00  0.00    -0.237 NA
ENDBRANCH   3  15
TORSDOF 4
ENDMDL
MODEL 2
REMARK VINA RESULT:      -7.3      6.035      9.569
REMARK  4 active torsions:
REMARK  status: ('A' for Active; 'I' for Inactive)
REMARK    1  A    between atoms: N1_7  and  C6_8 
REMARK    2  A    between atoms: C6_8  and  C7_9 
REMARK    3  A    between atoms: C8_10  and  C9_11 
REMARK       I    between atoms: C9_11  and  N2_13 
REMARK    4  A    between atoms: N2_13  and  C10_14 
ROOT
HETATM    1  C9  UNL     1      26.346   3.585  49.856  1.00  0.00     0.301 C 
HETATM    2  O2  UNL     1      25.264   3.137  49.351  1.00  0.00    -0.258 OA
HETATM    3  N2  UNL     1      26.851   3.137  51.113  1.00  0.00    -0.314 N 
HETATM    4  H13 UNL     1      27.745   3.516  51.521  1.00  0.00     0.170 HD
ENDROOT
BRANCH   1   5
HETATM    5  C8  UNL     1      27.108   4.585  49.149  1.00  0.00    -0.004 C 
HETATM    6  C7  UNL     1      27.745   5.440  48.559  1.00  0.00    -0.066 C 
BRANCH   6   7
HETATM    7  C6  UNL     1      28.533   6.456  47.855  1.00  0.00     0.366 C 
BRANCH   7   8
HETATM    8  N1  UNL     1      29.754   6.696  48.562  1.00  0.00     0.107 N 
HETATM    9  C2  UNL     1      30.105   8.093  48.462  1.00  0.00     0.243 C 
HETATM   10  C1  UNL     1      29.000   8.895  49.121  1.00  0.00     0.045 C 
HETATM   11  C3  UNL     1      31.381   8.420  49.199  1.00  0.00     0.203 C 
HETATM   12  O1  UNL     1      32.294   7.371  49.154  1.00  0.00    -0.387 OA
HETATM   13  C4  UNL     1      32.091   6.589  48.010  1.00  0.00     0.198 C 
HETATM   14  C5  UNL     1      30.826   5.801  48.263  1.00  0.00     0.300 C 
ENDBRANCH   7   8
ENDBRANCH   6   7
ENDBRANCH   1   5
BRANCH   3  15
HETATM   15  C10 UNL     1      26.305   2.160  52.022  1.00  0.00     0.067 A 
HETATM   16  C11 UNL     1      25.038   1.817  52.173  1.00  0.00     0.034 A 
HETATM   17  C12 UNL     1      24.979   0.788  53.209  1.00  0.00     0.036 A 
HETATM   18  C13 UNL     1      26.207   0.558  53.633  1.00  0.00     0.089 A 
HETATM   19  N3  UNL     1      26.898  -0.258  54.569  1.00  0.00    -0.240 NA
HETATM   20  C15 UNL     1      27.178   1.413  52.915  1.00  0.00     0.113 A 
HETATM   21  C14 UNL     1      28.138   0.068  54.428  1.00  0.00     0.234 A 
HETATM   22  N4  UNL     1      28.306   1.068  53.438  1.00  0.00    -0.237 NA
ENDBRANCH   3  15
TORSDOF 4
ENDMDL
MODEL 3
REMARK VINA RESULT:      -7.3      1.749      2.344
REMARK  4 active torsions:
REMARK  status: ('A' for Active; 'I' for Inactive)
REMARK    1  A    between atoms: N1_7  and  C6_8 
REMARK    2  A    between atoms: C6_8  and  C7_9 
REMARK    3  A    between atoms: C8_10  and  C9_11 
REMARK       I    between atoms: C9_11  and  N2_13 
REMARK    4  A    between atoms: N2_13  and  C10_14 
ROOT
HETATM    1  C9  UNL     1      24.504   0.097  53.444  1.00  0.00     0.301 C 
HETATM    2  O2  UNL     1      24.719  -0.648  54.457  1.00  0.00    -0.258 OA
HETATM    3  N2  UNL     1      25.525   0.890  52.842  1.00  0.00    -0.314 N 
HETATM    4  H13 UNL     1      25.333   1.503  52.007  1.00  0.00     0.170 HD
ENDROOT
BRANCH   1   5
HETATM    5  C8  UNL     1      23.183   0.158  52.867  1.00  0.00    -0.004 C 
HETATM    6  C7  UNL     1      22.067   0.195  52.379  1.00  0.00    -0.066 C 
BRANCH   6   7
HETATM    7  C6  UNL     1      20.717   0.254  51.810  1.00  0.00     0.366 C 
BRANCH   7   8
HETATM    8  N1  UNL     1      20.405   1.602  51.447  1.00  0.00     0.107 N 
HETATM    9  C2  UNL     1      21.267   2.025  50.368  1.00  0.00     0.243 C 
HETATM   10  C1  UNL     1      20.989   1.129  49.178  1.00  0.00     0.045 C 
HETATM   11  C3  UNL     1      20.983   3.440  49.925  1.00  0.00     0.203 C 
HETATM   12  O1  UNL     1      20.590   4.250  50.985  1.00  0.00    -0.387 OA
HETATM   13  C4  UNL     1      21.117   3.775  52.193  1.00  0.00     0.198 C 
HETATM   14  C5  UNL     1      20.328   2.530  52.530  1.00  0.00     0.300 C 
ENDBRANCH   7   8
ENDBRANCH   6   7
ENDBRANCH   1   5
BRANCH   3  15
HETATM   15  C10 UNL     1      26.914   1.021  53.204  1.00  0.00     0.067 A 
HETATM   16  C11 UNL     1      27.567   2.126  53.516  1.00  0.00     0.034 A 
HETATM   17  C12 UNL     1      28.950   1.755  53.808  1.00  0.00     0.036 A 
HETATM   18  C13 UNL     1      29.068   0.449  53.659  1.00  0.00     0.089 A 
HETATM   19  N3  UNL     1      30.050  -0.572  53.764  1.00  0.00    -0.240 NA
HETATM   20  C15 UNL     1      27.776  -0.151  53.258  1.00  0.00     0.113 A 
HETATM   21  C14 UNL     1      29.422  -1.657  53.461  1.00  0.00     0.234 A 
HETATM   22  N4  UNL     1      28.061  -1.406  53.159  1.00  0.00    -0.237 NA
ENDBRANCH   3  15
TORSDOF 4
ENDMDL
MODEL 4
REMARK VINA RESULT:      -7.1      6.040      8.828
REMARK  4 active torsions:
REMARK  status: ('A' for Active; 'I' for Inactive)
REMARK    1  A    between atoms: N1_7  and  C6_8 
REMARK    2  A    between atoms: C6_8  and  C7_9 
REMARK    3  A    between atoms: C8_10  and  C9_11 
REMARK       I    between atoms: C9_11  and  N2_13 
REMARK    4  A    between atoms: N2_13  and  C10_14 
ROOT
HETATM    1  C9  UNL     1      26.383   3.536  49.938  1.00  0.00     0.301 C 
HETATM    2  O2  UNL     1      25.336   2.992  49.453  1.00  0.00    -0.258 OA
HETATM    3  N2  UNL     1      26.927   3.165  51.203  1.00  0.00    -0.314 N 
HETATM    4  H13 UNL     1      27.792   3.623  51.593  1.00  0.00     0.170 HD
ENDROOT
BRANCH   1   5
HETATM    5  C8  UNL     1      27.062   4.572  49.197  1.00  0.00    -0.004 C 
HETATM    6  C7  UNL     1      27.624   5.446  48.561  1.00  0.00    -0.066 C 
BRANCH   6   7
HETATM    7  C6  UNL     1      28.303   6.511  47.817  1.00  0.00     0.366 C 
BRANCH   7   8
HETATM    8  N1  UNL     1      27.829   7.786  48.260  1.00  0.00     0.107 N 
HETATM    9  C2  UNL     1      28.873   8.463  48.993  1.00  0.00     0.243 C 
HETATM   10  C1  UNL     1      30.034   8.684  48.045  1.00  0.00     0.045 C 
HETATM   11  C3  UNL     1      28.442   9.825  49.482  1.00  0.00     0.203 C 
HETATM   12  O1  UNL     1      27.093   9.858  49.817  1.00  0.00    -0.387 OA
HETATM   13  C4  UNL     1      26.647   8.585  50.195  1.00  0.00     0.198 C 
HETATM   14  C5  UNL     1      26.562   7.778  48.920  1.00  0.00     0.300 C 
ENDBRANCH   7   8
ENDBRANCH   6   7
ENDBRANCH   1   5
BRANCH   3  15
HETATM   15  C10 UNL     1      26.463   2.175  52.143  1.00  0.00     0.067 A 
HETATM   16  C11 UNL     1      25.217   1.804  52.375  1.00  0.00     0.034 A 
HETATM   17  C12 UNL     1      25.248   0.773  53.410  1.00  0.00     0.036 A 
HETATM   18  C13 UNL     1      26.506   0.570  53.753  1.00  0.00     0.089 A 
HETATM   19  N3  UNL     1      27.275  -0.232  54.639  1.00  0.00    -0.240 NA
HETATM   20  C15 UNL     1      27.409   1.447  52.975  1.00  0.00     0.113 A 
HETATM   21  C14 UNL     1      28.495   0.122  54.420  1.00  0.00     0.234 A 
HETATM   22  N4  UNL     1      28.576   1.126  53.423  1.00  0.00    -0.237 NA
ENDBRANCH   3  15
TORSDOF 4
ENDMDL
MODEL 5
REMARK VINA RESULT:      -7.0      6.423      8.616
REMARK  4 active torsions:
REMARK  status: ('A' for Active; 'I' for Inactive)
REMARK    1  A    between atoms: N1_7  and  C6_8 
REMARK    2  A    between atoms: C6_8  and  C7_9 
REMARK    3  A    between atoms: C8_10  and  C9_11 
REMARK       I    between atoms: C9_11  and  N2_13 
REMARK    4  A    between atoms: N2_13  and  C10_14 
ROOT
HETATM    1  C9  UNL     1      26.138   3.624  49.967  1.00  0.00     0.301 C 
HETATM    2  O2  UNL     1      25.113   3.017  49.512  1.00  0.00    -0.258 OA
HETATM    3  N2  UNL     1      26.823   3.200  51.144  1.00  0.00    -0.314 N 
HETATM    4  H13 UNL     1      27.668   3.712  51.511  1.00  0.00     0.170 HD
ENDROOT
BRANCH   1   5
HETATM    5  C8  UNL     1      26.644   4.789  49.283  1.00  0.00    -0.004 C 
HETATM    6  C7  UNL     1      27.078   5.764  48.695  1.00  0.00    -0.066 C 
BRANCH   6   7
HETATM    7  C6  UNL     1      27.577   6.947  47.987  1.00  0.00     0.366 C 
BRANCH   7   8
HETATM    8  N1  UNL     1      27.025   8.129  48.574  1.00  0.00     0.107 N 
HETATM    9  C2  UNL     1      26.432   8.950  47.545  1.00  0.00     0.243 C 
HETATM   10  C1  UNL     1      25.307   8.156  46.912  1.00  0.00     0.045 C 
HETATM   11  C3  UNL     1      25.818  10.213  48.099  1.00  0.00     0.203 C 
HETATM   12  O1  UNL     1      26.528  10.704  49.190  1.00  0.00    -0.387 OA
HETATM   13  C4  UNL     1      27.870  10.312  49.123  1.00  0.00     0.198 C 
HETATM   14  C5  UNL     1      27.891   8.839  49.461  1.00  0.00     0.300 C 
ENDBRANCH   7   8
ENDBRANCH   6   7
ENDBRANCH   1   5
BRANCH   3  15
HETATM   15  C10 UNL     1      26.543   2.085  52.014  1.00  0.00     0.067 A 
HETATM   16  C11 UNL     1      25.423   1.390  52.101  1.00  0.00     0.034 A 
HETATM   17  C12 UNL     1      25.618   0.362  53.120  1.00  0.00     0.036 A 
HETATM   18  C13 UNL     1      26.841   0.483  53.600  1.00  0.00     0.089 A 
HETATM   19  N3  UNL     1      27.697  -0.124  54.558  1.00  0.00    -0.240 NA
HETATM   20  C15 UNL     1      27.555   1.598  52.939  1.00  0.00     0.113 A 
HETATM   21  C14 UNL     1      28.795   0.547  54.482  1.00  0.00     0.234 A 
HETATM   22  N4  UNL     1      28.711   1.577  53.513  1.00  0.00    -0.237 NA
ENDBRANCH   3  15
TORSDOF 4
ENDMDL
MODEL 6
REMARK VINA RESULT:      -6.9      2.623      3.674
REMARK  4 active torsions:
REMARK  status: ('A' for Active; 'I' for Inactive)
REMARK    1  A    between atoms: N1_7  and  C6_8 
REMARK    2  A    between atoms: C6_8  and  C7_9 
REMARK    3  A    between atoms: C8_10  and  C9_11 
REMARK       I    between atoms: C9_11  and  N2_13 
REMARK    4  A    between atoms: N2_13  and  C10_14 
ROOT
HETATM    1  C9  UNL     1      26.056   2.693  51.079  1.00  0.00     0.301 C 
HETATM    2  O2  UNL     1      27.027   3.229  50.448  1.00  0.00    -0.258 OA
HETATM    3  N2  UNL     1      26.240   1.938  52.275  1.00  0.00    -0.314 N 
HETATM    4  H13 UNL     1      25.431   1.499  52.786  1.00  0.00     0.170 HD
ENDROOT
BRANCH   1   5
HETATM    5  C8  UNL     1      24.710   2.842  50.584  1.00  0.00    -0.004 C 
HETATM    6  C7  UNL     1      23.567   2.966  50.180  1.00  0.00    -0.066 C 
BRANCH   6   7
HETATM    7  C6  UNL     1      22.199   3.136  49.681  1.00  0.00     0.366 C 
BRANCH   7   8
HETATM    8  N1  UNL     1      21.316   2.256  50.383  1.00  0.00     0.107 N 
HETATM    9  C2  UNL     1      21.152   2.717  51.742  1.00  0.00     0.243 C 
HETATM   10  C1  UNL     1      20.518   4.093  51.688  1.00  0.00     0.045 C 
HETATM   11  C3  UNL     1      20.220   1.838  52.539  1.00  0.00     0.203 C 
HETATM   12  O1  UNL     1      20.314   0.501  52.165  1.00  0.00    -0.387 OA
HETATM   13  C4  UNL     1      21.583   0.224  51.641  1.00  0.00     0.198 C 
HETATM   14  C5  UNL     1      21.616   0.864  50.272  1.00  0.00     0.300 C 
ENDBRANCH   7   8
ENDBRANCH   6   7
ENDBRANCH   1   5
BRANCH   3  15
HETATM   15  C10 UNL     1      27.457   1.634  52.987  1.00  0.00     0.067 A 
HETATM   16  C11 UNL     1      28.244   2.473  53.636  1.00  0.00     0.034 A 
HETATM   17  C12 UNL     1      29.351   1.701  54.194  1.00  0.00     0.036 A 
HETATM   18  C13 UNL     1      29.183   0.436  53.856  1.00  0.00     0.089 A 
HETATM   19  N3  UNL     1      29.813  -0.826  54.025  1.00  0.00    -0.240 NA
HETATM   20  C15 UNL     1      27.953   0.268  53.051  1.00  0.00     0.113 A 
HETATM   21  C14 UNL     1      29.052  -1.655  53.394  1.00  0.00     0.234 A 
HETATM   22  N4  UNL     1      27.939  -1.001  52.812  1.00  0.00    -0.237 NA
ENDBRANCH   3  15
TORSDOF 4
ENDMDL
MODEL 7
REMARK VINA RESULT:      -6.9      6.856      8.619
REMARK  4 active torsions:
REMARK  status: ('A' for Active; 'I' for Inactive)
REMARK    1  A    between atoms: N1_7  and  C6_8 
REMARK    2  A    between atoms: C6_8  and  C7_9 
REMARK    3  A    between atoms: C8_10  and  C9_11 
REMARK       I    between atoms: C9_11  and  N2_13 
REMARK    4  A    between atoms: N2_13  and  C10_14 
ROOT
HETATM    1  C9  UNL     1      28.803   5.932  48.337  1.00  0.00     0.301 C 
HETATM    2  O2  UNL     1      28.611   6.742  47.371  1.00  0.00    -0.258 OA
HETATM    3  N2  UNL     1      30.030   5.878  49.063  1.00  0.00    -0.314 N 
HETATM    4  H13 UNL     1      30.177   5.203  49.858  1.00  0.00     0.170 HD
ENDROOT
BRANCH   1   5
HETATM    5  C8  UNL     1      27.754   5.024  48.732  1.00  0.00    -0.004 C 
HETATM    6  C7  UNL     1      26.873   4.258  49.079  1.00  0.00    -0.066 C 
BRANCH   6   7
HETATM    7  C6  UNL     1      25.796   3.350  49.487  1.00  0.00     0.366 C 
BRANCH   7   8
HETATM    8  N1  UNL     1      25.420   3.625  50.840  1.00  0.00     0.107 N 
HETATM    9  C2  UNL     1      25.198   2.384  51.543  1.00  0.00     0.243 C 
HETATM   10  C1  UNL     1      26.506   1.620  51.553  1.00  0.00     0.045 C 
HETATM   11  C3  UNL     1      24.808   2.602  52.985  1.00  0.00     0.203 C 
HETATM   12  O1  UNL     1      24.043   3.751  53.152  1.00  0.00    -0.387 OA
HETATM   13  C4  UNL     1      23.345   4.055  51.976  1.00  0.00     0.198 C 
HETATM   14  C5  UNL     1      24.375   4.586  51.005  1.00  0.00     0.300 C 
ENDBRANCH   7   8
ENDBRANCH   6   7
ENDBRANCH   1   5
BRANCH   3  15
HETATM   15  C10 UNL     1      31.230   6.658  48.889  1.00  0.00     0.067 A 
HETATM   16  C11 UNL     1      31.366   7.967  49.006  1.00  0.00     0.034 A 
HETATM   17  C12 UNL     1      32.765   8.292  48.739  1.00  0.00     0.036 A 
HETATM   18  C13 UNL     1      33.407   7.169  48.473  1.00  0.00     0.089 A 
HETATM   19  N3  UNL     1      34.711   6.716  48.139  1.00  0.00    -0.240 NA
HETATM   20  C15 UNL     1      32.487   6.012  48.543  1.00  0.00     0.113 A 
HETATM   21  C14 UNL     1      34.590   5.438  48.022  1.00  0.00     0.234 A 
HETATM   22  N4  UNL     1      33.259   5.016  48.265  1.00  0.00    -0.237 NA
ENDBRANCH   3  15
TORSDOF 4
ENDMDL
MODEL 8
REMARK VINA RESULT:      -6.8      5.283      8.446
REMARK  4 active torsions:
REMARK  status: ('A' for Active; 'I' for Inactive)
REMARK    1  A    between atoms: N1_7  and  C6_8 
REMARK    2  A    between atoms: C6_8  and  C7_9 
REMARK    3  A    between atoms: C8_10  and  C9_11 
REMARK       I    between atoms: C9_11  and  N2_13 
REMARK    4  A    between atoms: N2_13  and  C10_14 
ROOT
HETATM    1  C9  UNL     1      24.760   3.655  50.605  1.00  0.00     0.301 C 
HETATM    2  O2  UNL     1      24.498   3.523  49.364  1.00  0.00    -0.258 OA
HETATM    3  N2  UNL     1      24.647   4.903  51.287  1.00  0.00    -0.314 N 
HETATM    4  H13 UNL     1      24.868   4.999  52.312  1.00  0.00     0.170 HD
ENDROOT
BRANCH   1   5
HETATM    5  C8  UNL     1      25.191   2.512  51.373  1.00  0.00    -0.004 C 
HETATM    6  C7  UNL     1      25.553   1.555  52.033  1.00  0.00    -0.066 C 
BRANCH   6   7
HETATM    7  C6  UNL     1      25.972   0.388  52.817  1.00  0.00     0.366 C 
BRANCH   7   8
HETATM    8  N1  UNL     1      27.397   0.267  52.778  1.00  0.00     0.107 N 
HETATM    9  C2  UNL     1      27.792  -0.998  53.352  1.00  0.00     0.243 C 
HETATM   10  C1  UNL     1      27.191  -2.098  52.502  1.00  0.00     0.045 C 
HETATM   11  C3  UNL     1      29.288  -1.197  53.332  1.00  0.00     0.203 C 
HETATM   12  O1  UNL     1      29.977  -0.001  53.506  1.00  0.00    -0.387 OA
HETATM   13  C4  UNL     1      29.202   0.915  54.228  1.00  0.00     0.198 C 
HETATM   14  C5  UNL     1      28.125   1.389  53.279  1.00  0.00     0.300 C 
ENDBRANCH   7   8
ENDBRANCH   6   7
ENDBRANCH   1   5
BRANCH   3  15
HETATM   15  C10 UNL     1      24.243   6.190  50.776  1.00  0.00     0.067 A 
HETATM   16  C11 UNL     1      23.025   6.700  50.746  1.00  0.00     0.034 A 
HETATM   17  C12 UNL     1      23.116   8.026  50.139  1.00  0.00     0.036 A 
HETATM   18  C13 UNL     1      24.379   8.254  49.832  1.00  0.00     0.089 A 
HETATM   19  N3  UNL     1      25.190   9.264  49.249  1.00  0.00    -0.240 NA
HETATM   20  C15 UNL     1      25.226   7.101  50.210  1.00  0.00     0.113 A 
HETATM   21  C14 UNL     1      26.383   8.776  49.274  1.00  0.00     0.234 A 
HETATM   22  N4  UNL     1      26.405   7.482  49.850  1.00  0.00    -0.237 NA
ENDBRANCH   3  15
TORSDOF 4
ENDMDL
MODEL 9
REMARK VINA RESULT:      -6.7      4.535      8.414
REMARK  4 active torsions:
REMARK  status: ('A' for Active; 'I' for Inactive)
REMARK    1  A    between atoms: N1_7  and  C6_8 
REMARK    2  A    between atoms: C6_8  and  C7_9 
REMARK    3  A    between atoms: C8_10  and  C9_11 
REMARK       I    between atoms: C9_11  and  N2_13 
REMARK    4  A    between atoms: N2_13  and  C10_14 
ROOT
HETATM    1  C9  UNL     1      26.231   2.911  50.830  1.00  0.00     0.301 C 
HETATM    2  O2  UNL     1      26.867   3.269  49.785  1.00  0.00    -0.258 OA
HETATM    3  N2  UNL     1      24.822   3.086  50.971  1.00  0.00    -0.314 N 
HETATM    4  H13 UNL     1      24.309   2.787  51.841  1.00  0.00     0.170 HD
ENDROOT
BRANCH   1   5
HETATM    5  C8  UNL     1      26.941   2.302  51.928  1.00  0.00    -0.004 C 
HETATM    6  C7  UNL     1      27.528   1.782  52.861  1.00  0.00    -0.066 C 
BRANCH   6   7
HETATM    7  C6  UNL     1      28.252   1.147  53.967  1.00  0.00     0.366 C 
BRANCH   7   8
HETATM    8  N1  UNL     1      28.028  -0.266  53.941  1.00  0.00     0.107 N 
HETATM    9  C2  UNL     1      29.055  -0.905  53.151  1.00  0.00     0.243 C 
HETATM   10  C1  UNL     1      30.386  -0.640  53.824  1.00  0.00     0.045 C 
HETATM   11  C3  UNL     1      28.886  -2.404  53.091  1.00  0.00     0.203 C 
HETATM   12  O1  UNL     1      27.546  -2.779  53.098  1.00  0.00    -0.387 OA
HETATM   13  C4  UNL     1      26.745  -1.762  52.563  1.00  0.00     0.198 C 
HETATM   14  C5  UNL     1      26.699  -0.674  53.612  1.00  0.00     0.300 C 
ENDBRANCH   7   8
ENDBRANCH   6   7
ENDBRANCH   1   5
BRANCH   3  15
HETATM   15  C10 UNL     1      23.874   3.655  50.046  1.00  0.00     0.067 A 
HETATM   16  C11 UNL     1      23.529   3.193  48.857  1.00  0.00     0.034 A 
HETATM   17  C12 UNL     1      22.538   4.109  48.298  1.00  0.00     0.036 A 
HETATM   18  C13 UNL     1      22.332   5.078  49.170  1.00  0.00     0.089 A 
HETATM   19  N3  UNL     1      21.554   6.257  49.320  1.00  0.00    -0.240 NA
HETATM   20  C15 UNL     1      23.167   4.883  50.376  1.00  0.00     0.113 A 
HETATM   21  C14 UNL     1      21.884   6.717  50.479  1.00  0.00     0.234 A 
HETATM   22  N4  UNL     1      22.848   5.894  51.111  1.00  0.00    -0.237 NA
ENDBRANCH   3  15
TORSDOF 4
ENDMDL
