MODEL 1
REMARK VINA RESULT:      -6.6      0.000      0.000
REMARK  7 active torsions:
REMARK  status: ('A' for Active; 'I' for Inactive)
REMARK    1  A    between atoms: C1_2  and  C2_3 
REMARK    2  A    between atoms: C2_3  and  C3_4 
REMARK    3  A    between atoms: C3_4  and  C4_5 
REMARK    4  A    between atoms: S1_8  and  C7_9 
REMARK    5  A    between atoms: C7_9  and  C8_10 
REMARK    6  A    between atoms: C8_10  and  O1_11 
REMARK    7  A    between atoms: O1_11  and  C9_12 
ROOT
HETATM    1  C7  UNL     1      24.004   2.870  52.153  1.00  0.00     0.097 C 
ENDROOT
BRANCH   1   2
HETATM    2  S1  UNL     1      24.872   3.340  50.607  1.00  0.00    -0.160 SA
HETATM    3  C6  UNL     1      24.115   4.559  49.459  1.00  0.00     0.099 C 
HETATM    4  C5  UNL     1      25.278   5.377  48.991  1.00  0.00     0.010 C 
HETATM    5  C4  UNL     1      26.551   5.077  48.969  1.00  0.00     0.033 C 
HETATM    6  N2  UNL     1      26.954   3.797  49.447  1.00  0.00    -0.245 NA
HETATM    7  C15 UNL     1      26.477   3.250  50.465  1.00  0.00     0.119 C 
BRANCH   5   8
HETATM    8  C3  UNL     1      27.583   6.047  48.454  1.00  0.00     0.060 C 
BRANCH   8   9
HETATM    9  C2  UNL     1      28.883   5.289  48.308  1.00  0.00     0.021 C 
BRANCH   9  10
HETATM   10  C1  UNL     1      30.069   6.231  48.267  1.00  0.00     0.115 C 
HETATM   11 CL1  UNL     1      31.470   5.436  47.523  1.00  0.00    -0.130 Cl
ENDBRANCH   9  10
ENDBRANCH   8   9
ENDBRANCH   5   8
ENDBRANCH   1   2
BRANCH   1  12
HETATM   12  C8  UNL     1      23.533   1.427  52.167  1.00  0.00     0.185 C 
BRANCH  12  13
HETATM   13  O1  UNL     1      24.268   0.768  53.152  1.00  0.00    -0.353 OA
BRANCH  13  14
HETATM   14  C9  UNL     1      25.568   0.305  53.010  1.00  0.00     0.070 C 
HETATM   15  C10 UNL     1      26.473   0.098  54.021  1.00  0.00     0.046 A 
HETATM   16  N1  UNL     1      27.458  -0.136  55.019  1.00  0.00    -0.367 N 
HETATM   17  C13 UNL     1      27.459   0.513  52.886  1.00  0.00     0.068 A 
HETATM   18  C11 UNL     1      28.831  -0.024  54.722  1.00  0.00     0.085 A 
HETATM   19  H14 UNL     1      27.017  -0.393  55.962  1.00  0.00     0.165 HD
HETATM   20  C12 UNL     1      28.739   0.336  53.466  1.00  0.00     0.001 A 
HETATM   21  C14 UNL     1      26.627  -0.194  51.984  1.00  0.00     0.081 C 
ENDBRANCH  13  14
ENDBRANCH  12  13
ENDBRANCH   1  12
TORSDOF 7
ENDMDL
MODEL 2
REMARK VINA RESULT:      -6.5      3.651      5.871
REMARK  7 active torsions:
REMARK  status: ('A' for Active; 'I' for Inactive)
REMARK    1  A    between atoms: C1_2  and  C2_3 
REMARK    2  A    between atoms: C2_3  and  C3_4 
REMARK    3  A    between atoms: C3_4  and  C4_5 
REMARK    4  A    between atoms: S1_8  and  C7_9 
REMARK    5  A    between atoms: C7_9  and  C8_10 
REMARK    6  A    between atoms: C8_10  and  O1_11 
REMARK    7  A    between atoms: O1_11  and  C9_12 
ROOT
HETATM    1  C7  UNL     1      25.194   4.377  50.341  1.00  0.00     0.097 C 
ENDROOT
BRANCH   1   2
HETATM    2  S1  UNL     1      23.590   3.573  50.718  1.00  0.00    -0.160 SA
HETATM    3  C6  UNL     1      22.802   2.462  49.484  1.00  0.00     0.099 C 
HETATM    4  C5  UNL     1      22.234   1.354  50.314  1.00  0.00     0.010 C 
HETATM    5  C4  UNL     1      21.915   1.345  51.583  1.00  0.00     0.033 C 
HETATM    6  N2  UNL     1      22.114   2.534  52.341  1.00  0.00    -0.245 NA
HETATM    7  C15 UNL     1      23.119   3.271  52.232  1.00  0.00     0.119 C 
BRANCH   5   8
HETATM    8  C3  UNL     1      21.348   0.116  52.246  1.00  0.00     0.060 C 
BRANCH   8   9
HETATM    9  C2  UNL     1      21.154   0.440  53.710  1.00  0.00     0.021 C 
BRANCH   9  10
HETATM   10  C1  UNL     1      21.799  -0.605  54.597  1.00  0.00     0.115 C 
HETATM   11 CL1  UNL     1      23.536  -0.725  54.257  1.00  0.00    -0.130 Cl
ENDBRANCH   9  10
ENDBRANCH   8   9
ENDBRANCH   5   8
ENDBRANCH   1   2
BRANCH   1  12
HETATM   12  C8  UNL     1      26.234   3.421  49.788  1.00  0.00     0.185 C 
BRANCH  12  13
HETATM   13  O1  UNL     1      27.072   3.073  50.848  1.00  0.00    -0.353 OA
BRANCH  13  14
HETATM   14  C9  UNL     1      26.837   2.052  51.756  1.00  0.00     0.070 C 
HETATM   15  C10 UNL     1      27.490   1.857  52.948  1.00  0.00     0.046 A 
HETATM   16  N1  UNL     1      28.126   1.596  54.192  1.00  0.00    -0.367 N 
HETATM   17  C13 UNL     1      27.199   0.369  52.577  1.00  0.00     0.068 A 
HETATM   18  C11 UNL     1      28.224   0.283  54.695  1.00  0.00     0.085 A 
HETATM   19  H14 UNL     1      28.490   2.495  54.649  1.00  0.00     0.165 HD
HETATM   20  C12 UNL     1      27.647  -0.356  53.709  1.00  0.00     0.001 A 
HETATM   21  C14 UNL     1      25.956   0.803  52.055  1.00  0.00     0.081 C 
ENDBRANCH  13  14
ENDBRANCH  12  13
ENDBRANCH   1  12
TORSDOF 7
ENDMDL
MODEL 3
REMARK VINA RESULT:      -6.5      1.884      2.712
REMARK  7 active torsions:
REMARK  status: ('A' for Active; 'I' for Inactive)
REMARK    1  A    between atoms: C1_2  and  C2_3 
REMARK    2  A    between atoms: C2_3  and  C3_4 
REMARK    3  A    between atoms: C3_4  and  C4_5 
REMARK    4  A    between atoms: S1_8  and  C7_9 
REMARK    5  A    between atoms: C7_9  and  C8_10 
REMARK    6  A    between atoms: C8_10  and  O1_11 
REMARK    7  A    between atoms: O1_11  and  C9_12 
ROOT
HETATM    1  C7  UNL     1      22.256   0.485  53.489  1.00  0.00     0.097 C 
ENDROOT
BRANCH   1   2
HETATM    2  S1  UNL     1      22.789   1.811  52.340  1.00  0.00    -0.160 SA
HETATM    3  C6  UNL     1      24.050   3.039  52.871  1.00  0.00     0.099 C 
HETATM    4  C5  UNL     1      24.890   3.238  51.648  1.00  0.00     0.010 C 
HETATM    5  C4  UNL     1      24.595   3.021  50.392  1.00  0.00     0.033 C 
HETATM    6  N2  UNL     1      23.299   2.522  50.076  1.00  0.00    -0.245 NA
HETATM    7  C15 UNL     1      22.711   1.638  50.737  1.00  0.00     0.119 C 
BRANCH   5   8
HETATM    8  C3  UNL     1      25.587   3.287  49.289  1.00  0.00     0.060 C 
BRANCH   8   9
HETATM    9  C2  UNL     1      26.175   4.659  49.529  1.00  0.00     0.021 C 
BRANCH   9  10
HETATM   10  C1  UNL     1      27.467   4.848  48.760  1.00  0.00     0.115 C 
HETATM   11 CL1  UNL     1      27.615   6.523  48.194  1.00  0.00    -0.130 Cl
ENDBRANCH   9  10
ENDBRANCH   8   9
ENDBRANCH   5   8
ENDBRANCH   1   2
BRANCH   1  12
HETATM   12  C8  UNL     1      23.126  -0.756  53.424  1.00  0.00     0.185 C 
BRANCH  12  13
HETATM   13  O1  UNL     1      24.285  -0.481  54.150  1.00  0.00    -0.353 OA
BRANCH  13  14
HETATM   14  C9  UNL     1      25.551  -0.312  53.609  1.00  0.00     0.070 C 
HETATM   15  C10 UNL     1      26.730  -0.234  54.308  1.00  0.00     0.046 A 
HETATM   16  N1  UNL     1      27.986  -0.143  54.968  1.00  0.00    -0.367 N 
HETATM   17  C13 UNL     1      27.083   0.711  53.117  1.00  0.00     0.068 A 
HETATM   18  C11 UNL     1      29.049   0.590  54.406  1.00  0.00     0.085 A 
HETATM   19  H14 UNL     1      27.988  -0.686  55.893  1.00  0.00     0.165 HD
HETATM   20  C12 UNL     1      28.446   1.033  53.331  1.00  0.00     0.001 A 
HETATM   21  C14 UNL     1      26.348  -0.164  52.280  1.00  0.00     0.081 C 
ENDBRANCH  13  14
ENDBRANCH  12  13
ENDBRANCH   1  12
TORSDOF 7
ENDMDL
MODEL 4
REMARK VINA RESULT:      -6.4      3.552      5.681
REMARK  7 active torsions:
REMARK  status: ('A' for Active; 'I' for Inactive)
REMARK    1  A    between atoms: C1_2  and  C2_3 
REMARK    2  A    between atoms: C2_3  and  C3_4 
REMARK    3  A    between atoms: C3_4  and  C4_5 
REMARK    4  A    between atoms: S1_8  and  C7_9 
REMARK    5  A    between atoms: C7_9  and  C8_10 
REMARK    6  A    between atoms: C8_10  and  O1_11 
REMARK    7  A    between atoms: O1_11  and  C9_12 
ROOT
HETATM    1  C7  UNL     1      22.621   3.951  51.126  1.00  0.00     0.097 C 
ENDROOT
BRANCH   1   2
HETATM    2  S1  UNL     1      24.275   3.375  51.669  1.00  0.00    -0.160 SA
HETATM    3  C6  UNL     1      24.535   2.819  53.402  1.00  0.00     0.099 C 
HETATM    4  C5  UNL     1      25.449   1.642  53.265  1.00  0.00     0.010 C 
HETATM    5  C4  UNL     1      26.264   1.331  52.290  1.00  0.00     0.033 C 
HETATM    6  N2  UNL     1      26.338   2.200  51.164  1.00  0.00    -0.245 NA
HETATM    7  C15 UNL     1      25.344   2.745  50.636  1.00  0.00     0.119 C 
BRANCH   5   8
HETATM    8  C3  UNL     1      27.114   0.087  52.337  1.00  0.00     0.060 C 
BRANCH   8   9
HETATM    9  C2  UNL     1      27.370  -0.233  53.792  1.00  0.00     0.021 C 
BRANCH   9  10
HETATM   10  C1  UNL     1      28.769   0.175  54.209  1.00  0.00     0.115 C 
HETATM   11 CL1  UNL     1      29.953  -1.038  53.685  1.00  0.00    -0.130 Cl
ENDBRANCH   9  10
ENDBRANCH   8   9
ENDBRANCH   5   8
ENDBRANCH   1   2
BRANCH   1  12
HETATM   12  C8  UNL     1      21.613   4.046  52.256  1.00  0.00     0.185 C 
BRANCH  12  13
HETATM   13  O1  UNL     1      20.699   3.009  52.075  1.00  0.00    -0.353 OA
BRANCH  13  14
HETATM   14  C9  UNL     1      20.969   1.659  52.250  1.00  0.00     0.070 C 
HETATM   15  C10 UNL     1      20.825   0.945  53.413  1.00  0.00     0.046 A 
HETATM   16  N1  UNL     1      20.700   0.147  54.583  1.00  0.00    -0.367 N 
HETATM   17  C13 UNL     1      22.042   0.183  52.802  1.00  0.00     0.068 A 
HETATM   18  C11 UNL     1      21.526  -0.977  54.785  1.00  0.00     0.085 A 
HETATM   19  H14 UNL     1      19.932   0.513  55.234  1.00  0.00     0.165 HD
HETATM   20  C12 UNL     1      22.256  -0.891  53.701  1.00  0.00     0.001 A 
HETATM   21  C14 UNL     1      21.442   0.362  51.531  1.00  0.00     0.081 C 
ENDBRANCH  13  14
ENDBRANCH  12  13
ENDBRANCH   1  12
TORSDOF 7
ENDMDL
MODEL 5
REMARK VINA RESULT:      -6.1      3.079      6.709
REMARK  7 active torsions:
REMARK  status: ('A' for Active; 'I' for Inactive)
REMARK    1  A    between atoms: C1_2  and  C2_3 
REMARK    2  A    between atoms: C2_3  and  C3_4 
REMARK    3  A    between atoms: C3_4  and  C4_5 
REMARK    4  A    between atoms: S1_8  and  C7_9 
REMARK    5  A    between atoms: C7_9  and  C8_10 
REMARK    6  A    between atoms: C8_10  and  O1_11 
REMARK    7  A    between atoms: O1_11  and  C9_12 
ROOT
HETATM    1  C7  UNL     1      23.330   2.570  52.001  1.00  0.00     0.097 C 
ENDROOT
BRANCH   1   2
HETATM    2  S1  UNL     1      24.713   1.385  52.220  1.00  0.00    -0.160 SA
HETATM    3  C6  UNL     1      26.375   1.770  51.534  1.00  0.00     0.099 C 
HETATM    4  C5  UNL     1      27.317   1.279  52.588  1.00  0.00     0.010 C 
HETATM    5  C4  UNL     1      27.126   0.386  53.524  1.00  0.00     0.033 C 
HETATM    6  N2  UNL     1      25.853  -0.249  53.606  1.00  0.00    -0.245 NA
HETATM    7  C15 UNL     1      24.765   0.348  53.455  1.00  0.00     0.119 C 
BRANCH   5   8
HETATM    8  C3  UNL     1      28.212   0.021  54.503  1.00  0.00     0.060 C 
BRANCH   8   9
HETATM    9  C2  UNL     1      29.523   0.032  53.751  1.00  0.00     0.021 C 
BRANCH   9  10
HETATM   10  C1  UNL     1      30.175  -1.336  53.758  1.00  0.00     0.115 C 
HETATM   11 CL1  UNL     1      29.045  -2.566  53.160  1.00  0.00    -0.130 Cl
ENDBRANCH   9  10
ENDBRANCH   8   9
ENDBRANCH   5   8
ENDBRANCH   1   2
BRANCH   1  12
HETATM   12  C8  UNL     1      23.049   2.908  50.549  1.00  0.00     0.185 C 
BRANCH  12  13
HETATM   13  O1  UNL     1      23.303   4.270  50.391  1.00  0.00    -0.353 OA
BRANCH  13  14
HETATM   14  C9  UNL     1      24.532   4.826  50.068  1.00  0.00     0.070 C 
HETATM   15  C10 UNL     1      24.998   6.056  50.463  1.00  0.00     0.046 A 
HETATM   16  N1  UNL     1      25.541   7.316  50.833  1.00  0.00    -0.367 N 
HETATM   17  C13 UNL     1      25.690   5.964  49.067  1.00  0.00     0.068 A 
HETATM   18  C11 UNL     1      26.466   7.980  50.004  1.00  0.00     0.085 A 
HETATM   19  H14 UNL     1      25.159   7.651  51.777  1.00  0.00     0.165 HD
HETATM   20  C12 UNL     1      26.508   7.119  49.017  1.00  0.00     0.001 A 
HETATM   21  C14 UNL     1      25.872   4.581  49.312  1.00  0.00     0.081 C 
ENDBRANCH  13  14
ENDBRANCH  12  13
ENDBRANCH   1  12
TORSDOF 7
ENDMDL
MODEL 6
REMARK VINA RESULT:      -5.9      4.011      4.612
REMARK  7 active torsions:
REMARK  status: ('A' for Active; 'I' for Inactive)
REMARK    1  A    between atoms: C1_2  and  C2_3 
REMARK    2  A    between atoms: C2_3  and  C3_4 
REMARK    3  A    between atoms: C3_4  and  C4_5 
REMARK    4  A    between atoms: S1_8  and  C7_9 
REMARK    5  A    between atoms: C7_9  and  C8_10 
REMARK    6  A    between atoms: C8_10  and  O1_11 
REMARK    7  A    between atoms: O1_11  and  C9_12 
ROOT
HETATM    1  C7  UNL     1      21.833  -0.448  53.743  1.00  0.00     0.097 C 
ENDROOT
BRANCH   1   2
HETATM    2  S1  UNL     1      21.671   0.794  52.403  1.00  0.00    -0.160 SA
HETATM    3  C6  UNL     1      22.460   2.445  52.576  1.00  0.00     0.099 C 
HETATM    4  C5  UNL     1      22.981   2.736  51.203  1.00  0.00     0.010 C 
HETATM    5  C4  UNL     1      22.604   2.247  50.050  1.00  0.00     0.033 C 
HETATM    6  N2  UNL     1      21.548   1.291  50.031  1.00  0.00    -0.245 NA
HETATM    7  C15 UNL     1      21.427   0.368  50.866  1.00  0.00     0.119 C 
BRANCH   5   8
HETATM    8  C3  UNL     1      23.258   2.670  48.760  1.00  0.00     0.060 C 
BRANCH   8   9
HETATM    9  C2  UNL     1      22.357   2.230  47.629  1.00  0.00     0.021 C 
BRANCH   9  10
HETATM   10  C1  UNL     1      21.724   3.417  46.933  1.00  0.00     0.115 C 
HETATM   11 CL1  UNL     1      22.454   4.933  47.499  1.00  0.00    -0.130 Cl
ENDBRANCH   9  10
ENDBRANCH   8   9
ENDBRANCH   5   8
ENDBRANCH   1   2
BRANCH   1  12
HETATM   12  C8  UNL     1      23.256  -0.612  54.246  1.00  0.00     0.185 C 
BRANCH  12  13
HETATM   13  O1  UNL     1      24.089  -0.585  53.128  1.00  0.00    -0.353 OA
BRANCH  13  14
HETATM   14  C9  UNL     1      25.452  -0.842  53.136  1.00  0.00     0.070 C 
HETATM   15  C10 UNL     1      26.344  -0.476  54.113  1.00  0.00     0.046 A 
HETATM   16  N1  UNL     1      27.319  -0.127  55.086  1.00  0.00    -0.367 N 
HETATM   17  C13 UNL     1      27.285  -0.386  52.872  1.00  0.00     0.068 A 
HETATM   18  C11 UNL     1      28.663   0.087  54.721  1.00  0.00     0.085 A 
HETATM   19  H14 UNL     1      26.895  -0.059  56.069  1.00  0.00     0.165 HD
HETATM   20  C12 UNL     1      28.556  -0.102  53.429  1.00  0.00     0.001 A 
HETATM   21  C14 UNL     1      26.614  -1.521  52.354  1.00  0.00     0.081 C 
ENDBRANCH  13  14
ENDBRANCH  12  13
ENDBRANCH   1  12
TORSDOF 7
ENDMDL
MODEL 7
REMARK VINA RESULT:      -5.8      2.727      3.565
REMARK  7 active torsions:
REMARK  status: ('A' for Active; 'I' for Inactive)
REMARK    1  A    between atoms: C1_2  and  C2_3 
REMARK    2  A    between atoms: C2_3  and  C3_4 
REMARK    3  A    between atoms: C3_4  and  C4_5 
REMARK    4  A    between atoms: S1_8  and  C7_9 
REMARK    5  A    between atoms: C7_9  and  C8_10 
REMARK    6  A    between atoms: C8_10  and  O1_11 
REMARK    7  A    between atoms: O1_11  and  C9_12 
ROOT
HETATM    1  C7  UNL     1      24.008   4.367  51.560  1.00  0.00     0.097 C 
ENDROOT
BRANCH   1   2
HETATM    2  S1  UNL     1      25.114   4.391  50.097  1.00  0.00    -0.160 SA
HETATM    3  C6  UNL     1      25.105   5.835  48.959  1.00  0.00     0.099 C 
HETATM    4  C5  UNL     1      26.548   6.018  48.606  1.00  0.00     0.010 C 
HETATM    5  C4  UNL     1      27.531   5.156  48.651  1.00  0.00     0.033 C 
HETATM    6  N2  UNL     1      27.252   3.831  49.095  1.00  0.00    -0.245 NA
HETATM    7  C15 UNL     1      26.497   3.561  50.055  1.00  0.00     0.119 C 
BRANCH   5   8
HETATM    8  C3  UNL     1      28.934   5.534  48.249  1.00  0.00     0.060 C 
BRANCH   8   9
HETATM    9  C2  UNL     1      28.958   7.031  48.043  1.00  0.00     0.021 C 
BRANCH   9  10
HETATM   10  C1  UNL     1      30.377   7.547  47.909  1.00  0.00     0.115 C 
HETATM   11 CL1  UNL     1      31.356   7.044  49.301  1.00  0.00    -0.130 Cl
ENDBRANCH   9  10
ENDBRANCH   8   9
ENDBRANCH   5   8
ENDBRANCH   1   2
BRANCH   1  12
HETATM   12  C8  UNL     1      24.276   3.206  52.500  1.00  0.00     0.185 C 
BRANCH  12  13
HETATM   13  O1  UNL     1      23.130   2.411  52.502  1.00  0.00    -0.353 OA
BRANCH  13  14
HETATM   14  C9  UNL     1      23.077   1.079  52.885  1.00  0.00     0.070 C 
HETATM   15  C10 UNL     1      21.941   0.335  53.088  1.00  0.00     0.046 A 
HETATM   16  N1  UNL     1      20.807  -0.491  53.317  1.00  0.00    -0.367 N 
HETATM   17  C13 UNL     1      22.870  -0.336  54.147  1.00  0.00     0.068 A 
HETATM   18  C11 UNL     1      20.862  -1.562  54.229  1.00  0.00     0.085 A 
HETATM   19  H14 UNL     1      19.967  -0.186  52.723  1.00  0.00     0.165 HD
HETATM   20  C12 UNL     1      22.095  -1.410  54.648  1.00  0.00     0.001 A 
HETATM   21  C14 UNL     1      23.937  -0.173  53.229  1.00  0.00     0.081 C 
ENDBRANCH  13  14
ENDBRANCH  12  13
ENDBRANCH   1  12
TORSDOF 7
ENDMDL
MODEL 8
REMARK VINA RESULT:      -5.8      3.727      5.868
REMARK  7 active torsions:
REMARK  status: ('A' for Active; 'I' for Inactive)
REMARK    1  A    between atoms: C1_2  and  C2_3 
REMARK    2  A    between atoms: C2_3  and  C3_4 
REMARK    3  A    between atoms: C3_4  and  C4_5 
REMARK    4  A    between atoms: S1_8  and  C7_9 
REMARK    5  A    between atoms: C7_9  and  C8_10 
REMARK    6  A    between atoms: C8_10  and  O1_11 
REMARK    7  A    between atoms: O1_11  and  C9_12 
ROOT
HETATM    1  C7  UNL     1      24.982   4.254  50.756  1.00  0.00     0.097 C 
ENDROOT
BRANCH   1   2
HETATM    2  S1  UNL     1      23.616   3.644  51.817  1.00  0.00    -0.160 SA
HETATM    3  C6  UNL     1      22.179   4.729  52.185  1.00  0.00     0.099 C 
HETATM    4  C5  UNL     1      21.008   3.798  52.137  1.00  0.00     0.010 C 
HETATM    5  C4  UNL     1      20.973   2.498  52.284  1.00  0.00     0.033 C 
HETATM    6  N2  UNL     1      22.195   1.809  52.528  1.00  0.00    -0.245 NA
HETATM    7  C15 UNL     1      23.272   2.073  51.950  1.00  0.00     0.119 C 
BRANCH   5   8
HETATM    8  C3  UNL     1      19.680   1.729  52.201  1.00  0.00     0.060 C 
BRANCH   8   9
HETATM    9  C2  UNL     1      19.870   0.632  51.178  1.00  0.00     0.021 C 
BRANCH   9  10
HETATM   10  C1  UNL     1      19.838   1.182  49.767  1.00  0.00     0.115 C 
HETATM   11 CL1  UNL     1      21.413   0.965  48.979  1.00  0.00    -0.130 Cl
ENDBRANCH   9  10
ENDBRANCH   8   9
ENDBRANCH   5   8
ENDBRANCH   1   2
BRANCH   1  12
HETATM   12  C8  UNL     1      25.806   3.143  50.132  1.00  0.00     0.185 C 
BRANCH  12  13
HETATM   13  O1  UNL     1      26.994   3.059  50.858  1.00  0.00    -0.353 OA
BRANCH  13  14
HETATM   14  C9  UNL     1      27.189   2.287  51.993  1.00  0.00     0.070 C 
HETATM   15  C10 UNL     1      26.677   1.034  52.223  1.00  0.00     0.046 A 
HETATM   16  N1  UNL     1      26.178  -0.263  52.526  1.00  0.00    -0.367 N 
HETATM   17  C13 UNL     1      26.686   1.572  53.688  1.00  0.00     0.068 A 
HETATM   18  C11 UNL     1      25.949  -0.658  53.859  1.00  0.00     0.085 A 
HETATM   19  H14 UNL     1      26.019  -0.844  51.640  1.00  0.00     0.165 HD
HETATM   20  C12 UNL     1      26.286   0.455  54.462  1.00  0.00     0.001 A 
HETATM   21  C14 UNL     1      27.900   2.231  53.377  1.00  0.00     0.081 C 
ENDBRANCH  13  14
ENDBRANCH  12  13
ENDBRANCH   1  12
TORSDOF 7
ENDMDL
MODEL 9
REMARK VINA RESULT:      -5.8      4.910      7.207
REMARK  7 active torsions:
REMARK  status: ('A' for Active; 'I' for Inactive)
REMARK    1  A    between atoms: C1_2  and  C2_3 
REMARK    2  A    between atoms: C2_3  and  C3_4 
REMARK    3  A    between atoms: C3_4  and  C4_5 
REMARK    4  A    between atoms: S1_8  and  C7_9 
REMARK    5  A    between atoms: C7_9  and  C8_10 
REMARK    6  A    between atoms: C8_10  and  O1_11 
REMARK    7  A    between atoms: O1_11  and  C9_12 
ROOT
HETATM    1  C7  UNL     1      23.633   3.840  50.440  1.00  0.00     0.097 C 
ENDROOT
BRANCH   1   2
HETATM    2  S1  UNL     1      22.182   2.864  50.992  1.00  0.00    -0.160 SA
HETATM    3  C6  UNL     1      22.084   1.066  50.618  1.00  0.00     0.099 C 
HETATM    4  C5  UNL     1      21.495   0.475  51.861  1.00  0.00     0.010 C 
HETATM    5  C4  UNL     1      20.778   1.046  52.794  1.00  0.00     0.033 C 
HETATM    6  N2  UNL     1      20.479   2.433  52.667  1.00  0.00    -0.245 NA
HETATM    7  C15 UNL     1      21.299   3.291  52.274  1.00  0.00     0.119 C 
BRANCH   5   8
HETATM    8  C3  UNL     1      20.271   0.273  53.984  1.00  0.00     0.060 C 
BRANCH   8   9
HETATM    9  C2  UNL     1      19.843  -1.090  53.491  1.00  0.00     0.021 C 
BRANCH   9  10
HETATM   10  C1  UNL     1      18.341  -1.164  53.306  1.00  0.00     0.115 C 
HETATM   11 CL1  UNL     1      17.739  -2.776  53.739  1.00  0.00    -0.130 Cl
ENDBRANCH   9  10
ENDBRANCH   8   9
ENDBRANCH   5   8
ENDBRANCH   1   2
BRANCH   1  12
HETATM   12  C8  UNL     1      24.867   3.623  51.295  1.00  0.00     0.185 C 
BRANCH  12  13
HETATM   13  O1  UNL     1      25.213   2.277  51.177  1.00  0.00    -0.353 OA
BRANCH  13  14
HETATM   14  C9  UNL     1      25.983   1.563  52.083  1.00  0.00     0.070 C 
HETATM   15  C10 UNL     1      26.955   2.075  52.906  1.00  0.00     0.046 A 
HETATM   16  N1  UNL     1      27.973   2.539  53.783  1.00  0.00    -0.367 N 
HETATM   17  C13 UNL     1      27.563   0.660  52.654  1.00  0.00     0.068 A 
HETATM   18  C11 UNL     1      29.030   1.694  54.178  1.00  0.00     0.085 A 
HETATM   19  H14 UNL     1      27.815   3.559  54.073  1.00  0.00     0.165 HD
HETATM   20  C12 UNL     1      28.702   0.625  53.495  1.00  0.00     0.001 A 
HETATM   21  C14 UNL     1      26.241   0.151  52.685  1.00  0.00     0.081 C 
ENDBRANCH  13  14
ENDBRANCH  12  13
ENDBRANCH   1  12
TORSDOF 7
ENDMDL
