MODEL 1
REMARK VINA RESULT:      -7.6      0.000      0.000
REMARK  1 active torsions:
REMARK  status: ('A' for Active; 'I' for Inactive)
REMARK    1  A    between atoms: C13_19  and  N7_20 
ROOT
HETATM    1  C1  UNL     1      23.848   5.808  51.577  1.00  0.00     0.024 C 
HETATM    2  C2  UNL     1      24.021   4.775  50.753  1.00  0.00    -0.031 C 
HETATM    3  C3  UNL     1      23.910   5.146  49.361  1.00  0.00     0.025 C 
HETATM    4  C4  UNL     1      24.083   4.032  48.644  1.00  0.00    -0.007 C 
HETATM    5  C5  UNL     1      22.856   3.459  48.570  1.00  0.00     0.119 C 
HETATM    6  N1  UNL     1      22.015   3.460  49.672  1.00  0.00    -0.310 N 
HETATM    7  N2  UNL     1      21.212   3.463  50.723  1.00  0.00    -0.286 N 
HETATM    8  C6  UNL     1      20.326   2.523  51.317  1.00  0.00     0.139 C 
HETATM    9  N3  UNL     1      19.657   1.972  50.368  1.00  0.00    -0.224 NA
HETATM   10  C7  UNL     1      19.236   0.580  50.479  1.00  0.00     0.256 C 
HETATM   11  N4  UNL     1      19.537  -0.102  51.536  1.00  0.00    -0.170 NA
HETATM   12  N5  UNL     1      20.081   0.517  52.669  1.00  0.00    -0.297 N 
HETATM   13  C8  UNL     1      20.695  -0.293  53.686  1.00  0.00     0.147 C 
HETATM   14  C9  UNL     1      22.180  -0.516  53.517  1.00  0.00     0.052 C 
HETATM   15  C10 UNL     1      22.977   0.750  53.513  1.00  0.00     0.274 C 
HETATM   16  N6  UNL     1      24.376   0.667  53.410  1.00  0.00     0.094 N 
HETATM   17  C11 UNL     1      24.921  -0.547  53.888  1.00  0.00     0.275 C 
HETATM   18  C12 UNL     1      26.432  -0.558  53.954  1.00  0.00     0.065 C 
HETATM   19  C13 UNL     1      26.862  -0.545  52.481  1.00  0.00     0.221 C 
HETATM   20  C14 UNL     1      26.356   0.745  51.927  1.00  0.00     0.072 C 
HETATM   21  C15 UNL     1      24.875   0.969  52.081  1.00  0.00     0.243 C 
HETATM   22  C16 UNL     1      24.574   2.316  51.646  1.00  0.00     0.125 A 
HETATM   23  C17 UNL     1      24.306   3.590  51.528  1.00  0.00     0.004 A 
HETATM   24 BR1  UNL     1      24.485   3.596  53.421  1.00  0.00    -0.119 Br
HETATM   25  C18 UNL     1      19.924   1.983  52.649  1.00  0.00     0.224 C 
HETATM   26  H5  UNL     1      22.350   2.550  49.755  1.00  0.00     0.186 HD
HETATM   27  H6  UNL     1      20.972   4.135  51.435  1.00  0.00     0.188 HD
ENDROOT
BRANCH  19  28
HETATM   28  N7  UNL     1      26.343  -1.703  51.816  1.00  0.00     0.083 N 
HETATM   29  H19 UNL     1      26.942  -2.055  51.042  1.00  0.00     0.313 HD
HETATM   30  H20 UNL     1      26.244  -2.484  52.523  1.00  0.00     0.313 HD
ENDBRANCH  19  28
TORSDOF 1
ENDMDL
MODEL 2
REMARK VINA RESULT:      -7.3      8.283     11.305
REMARK  1 active torsions:
REMARK  status: ('A' for Active; 'I' for Inactive)
REMARK    1  A    between atoms: C13_19  and  N7_20 
ROOT
HETATM    1  C1  UNL     1      28.992  11.968  45.454  1.00  0.00     0.024 C 
HETATM    2  C2  UNL     1      29.039  11.814  46.777  1.00  0.00    -0.031 C 
HETATM    3  C3  UNL     1      29.687  12.919  47.445  1.00  0.00     0.025 C 
HETATM    4  C4  UNL     1      29.687  12.641  48.753  1.00  0.00    -0.007 C 
HETATM    5  C5  UNL     1      30.796  11.889  48.959  1.00  0.00     0.119 C 
HETATM    6  N1  UNL     1      31.170  10.924  48.037  1.00  0.00    -0.310 N 
HETATM    7  N2  UNL     1      31.528  10.005  47.156  1.00  0.00    -0.286 N 
HETATM    8  C6  UNL     1      32.043   8.682  47.232  1.00  0.00     0.139 C 
HETATM    9  N3  UNL     1      32.960   8.677  48.133  1.00  0.00    -0.224 NA
HETATM   10  C7  UNL     1      33.180   7.489  48.950  1.00  0.00     0.256 C 
HETATM   11  N4  UNL     1      32.449   6.437  48.766  1.00  0.00    -0.170 NA
HETATM   12  N5  UNL     1      31.588   6.333  47.667  1.00  0.00    -0.297 N 
HETATM   13  C8  UNL     1      30.571   5.317  47.664  1.00  0.00     0.147 C 
HETATM   14  C9  UNL     1      29.237   5.743  48.234  1.00  0.00     0.052 C 
HETATM   15  C10 UNL     1      28.619   6.895  47.509  1.00  0.00     0.274 C 
HETATM   16  N6  UNL     1      27.354   7.350  47.917  1.00  0.00     0.094 N 
HETATM   17  C11 UNL     1      26.562   6.367  48.553  1.00  0.00     0.275 C 
HETATM   18  C12 UNL     1      25.138   6.802  48.819  1.00  0.00     0.065 C 
HETATM   19  C13 UNL     1      25.282   7.879  49.901  1.00  0.00     0.221 C 
HETATM   20  C14 UNL     1      26.073   8.978  49.273  1.00  0.00     0.072 C 
HETATM   21  C15 UNL     1      27.408   8.562  48.713  1.00  0.00     0.243 C 
HETATM   22  C16 UNL     1      27.971   9.692  48.004  1.00  0.00     0.125 A 
HETATM   23  C17 UNL     1      28.381  10.580  47.137  1.00  0.00     0.004 A 
HETATM   24 BR1  UNL     1      27.521   9.447  45.875  1.00  0.00    -0.119 Br
HETATM   25  C18 UNL     1      31.877   7.331  46.621  1.00  0.00     0.224 C 
HETATM   26  H5  UNL     1      30.746  10.337  48.686  1.00  0.00     0.186 HD
HETATM   27  H6  UNL     1      31.551   9.953  46.149  1.00  0.00     0.188 HD
ENDROOT
BRANCH  19  28
HETATM   28  N7  UNL     1      25.899   7.315  51.065  1.00  0.00     0.083 N 
HETATM   29  H19 UNL     1      26.574   7.949  51.540  1.00  0.00     0.313 HD
HETATM   30  H20 UNL     1      25.144   7.073  51.765  1.00  0.00     0.313 HD
ENDBRANCH  19  28
TORSDOF 1
ENDMDL
MODEL 3
REMARK VINA RESULT:      -7.2     10.170     13.306
REMARK  1 active torsions:
REMARK  status: ('A' for Active; 'I' for Inactive)
REMARK    1  A    between atoms: C13_19  and  N7_20 
ROOT
HETATM    1  C1  UNL     1      35.637   5.490  48.601  1.00  0.00     0.024 C 
HETATM    2  C2  UNL     1      34.518   4.873  48.222  1.00  0.00    -0.031 C 
HETATM    3  C3  UNL     1      34.654   3.435  48.200  1.00  0.00     0.025 C 
HETATM    4  C4  UNL     1      33.483   2.937  47.791  1.00  0.00    -0.007 C 
HETATM    5  C5  UNL     1      33.542   2.945  46.437  1.00  0.00     0.119 C 
HETATM    6  N1  UNL     1      34.123   4.013  45.768  1.00  0.00    -0.310 N 
HETATM    7  N2  UNL     1      34.678   5.029  45.130  1.00  0.00    -0.286 N 
HETATM    8  C6  UNL     1      34.375   5.768  43.954  1.00  0.00     0.139 C 
HETATM    9  N3  UNL     1      34.045   4.923  43.043  1.00  0.00    -0.224 NA
HETATM   10  C7  UNL     1      33.051   5.279  42.037  1.00  0.00     0.256 C 
HETATM   11  N4  UNL     1      32.499   6.449  42.063  1.00  0.00    -0.170 NA
HETATM   12  N5  UNL     1      32.978   7.460  42.906  1.00  0.00    -0.297 N 
HETATM   13  C8  UNL     1      32.163   8.620  43.146  1.00  0.00     0.147 C 
HETATM   14  C9  UNL     1      31.250   8.523  44.348  1.00  0.00     0.052 C 
HETATM   15  C10 UNL     1      31.978   8.303  45.635  1.00  0.00     0.274 C 
HETATM   16  N6  UNL     1      31.239   8.244  46.828  1.00  0.00     0.094 N 
HETATM   17  C11 UNL     1      30.013   8.946  46.784  1.00  0.00     0.275 C 
HETATM   18  C12 UNL     1      29.312   9.043  48.122  1.00  0.00     0.065 C 
HETATM   19  C13 UNL     1      28.872   7.601  48.408  1.00  0.00     0.221 C 
HETATM   20  C14 UNL     1      30.133   6.810  48.516  1.00  0.00     0.072 C 
HETATM   21  C15 UNL     1      31.042   6.892  47.318  1.00  0.00     0.243 C 
HETATM   22  C16 UNL     1      32.278   6.212  47.642  1.00  0.00     0.125 A 
HETATM   23  C17 UNL     1      33.489   5.857  47.982  1.00  0.00     0.004 A 
HETATM   24 BR1  UNL     1      33.735   7.720  48.273  1.00  0.00    -0.119 Br
HETATM   25  C18 UNL     1      34.321   7.168  43.440  1.00  0.00     0.224 C 
HETATM   26  H5  UNL     1      33.191   4.267  45.651  1.00  0.00     0.186 HD
HETATM   27  H6  UNL     1      35.496   5.601  45.275  1.00  0.00     0.188 HD
ENDROOT
BRANCH  19  28
HETATM   28  N7  UNL     1      27.993   7.149  47.370  1.00  0.00     0.083 N 
HETATM   29  H19 UNL     1      27.079   7.644  47.340  1.00  0.00     0.313 HD
HETATM   30  H20 UNL     1      28.467   7.300  46.436  1.00  0.00     0.313 HD
ENDBRANCH  19  28
TORSDOF 1
ENDMDL
MODEL 4
REMARK VINA RESULT:      -7.2     10.112     13.155
REMARK  1 active torsions:
REMARK  status: ('A' for Active; 'I' for Inactive)
REMARK    1  A    between atoms: C13_19  and  N7_20 
ROOT
HETATM    1  C1  UNL     1      34.192   4.559  48.228  1.00  0.00     0.024 C 
HETATM    2  C2  UNL     1      33.381   4.809  47.199  1.00  0.00    -0.031 C 
HETATM    3  C3  UNL     1      33.758   4.092  46.003  1.00  0.00     0.025 C 
HETATM    4  C4  UNL     1      32.888   4.437  45.049  1.00  0.00    -0.007 C 
HETATM    5  C5  UNL     1      33.387   5.574  44.503  1.00  0.00     0.119 C 
HETATM    6  N1  UNL     1      33.966   6.542  45.309  1.00  0.00    -0.310 N 
HETATM    7  N2  UNL     1      34.520   7.466  46.077  1.00  0.00    -0.286 N 
HETATM    8  C6  UNL     1      34.501   8.886  46.119  1.00  0.00     0.139 C 
HETATM    9  N3  UNL     1      34.636   9.309  44.913  1.00  0.00    -0.224 NA
HETATM   10  C7  UNL     1      33.983  10.542  44.489  1.00  0.00     0.256 C 
HETATM   11  N4  UNL     1      33.264  11.212  45.331  1.00  0.00    -0.170 NA
HETATM   12  N5  UNL     1      33.261  10.897  46.696  1.00  0.00    -0.297 N 
HETATM   13  C8  UNL     1      32.229  11.436  47.539  1.00  0.00     0.147 C 
HETATM   14  C9  UNL     1      31.001  10.565  47.685  1.00  0.00     0.052 C 
HETATM   15  C10 UNL     1      31.292   9.216  48.262  1.00  0.00     0.274 C 
HETATM   16  N6  UNL     1      30.223   8.334  48.490  1.00  0.00     0.094 N 
HETATM   17  C11 UNL     1      28.979   8.974  48.698  1.00  0.00     0.275 C 
HETATM   18  C12 UNL     1      27.872   8.038  49.131  1.00  0.00     0.065 C 
HETATM   19  C13 UNL     1      27.613   7.179  47.887  1.00  0.00     0.221 C 
HETATM   20  C14 UNL     1      28.882   6.434  47.641  1.00  0.00     0.072 C 
HETATM   21  C15 UNL     1      30.107   7.296  47.483  1.00  0.00     0.243 C 
HETATM   22  C16 UNL     1      31.264   6.428  47.415  1.00  0.00     0.125 A 
HETATM   23  C17 UNL     1      32.337   5.712  47.625  1.00  0.00     0.004 A 
HETATM   24 BR1  UNL     1      32.156   6.333  49.413  1.00  0.00    -0.119 Br
HETATM   25  C18 UNL     1      34.382  10.021  47.081  1.00  0.00     0.224 C 
HETATM   26  H5  UNL     1      33.096   6.961  45.192  1.00  0.00     0.186 HD
HETATM   27  H6  UNL     1      35.135   7.453  46.876  1.00  0.00     0.188 HD
ENDROOT
BRANCH  19  28
HETATM   28  N7  UNL     1      27.214   8.017  46.795  1.00  0.00     0.083 N 
HETATM   29  H19 UNL     1      28.000   8.340  46.196  1.00  0.00     0.313 HD
HETATM   30  H20 UNL     1      26.546   7.475  46.178  1.00  0.00     0.313 HD
ENDBRANCH  19  28
TORSDOF 1
ENDMDL
MODEL 5
REMARK VINA RESULT:      -7.1      4.194      7.879
REMARK  1 active torsions:
REMARK  status: ('A' for Active; 'I' for Inactive)
REMARK    1  A    between atoms: C13_19  and  N7_20 
ROOT
HETATM    1  C1  UNL     1      24.166   3.546  52.206  1.00  0.00     0.024 C 
HETATM    2  C2  UNL     1      24.634   3.461  50.960  1.00  0.00    -0.031 C 
HETATM    3  C3  UNL     1      25.945   2.860  50.896  1.00  0.00     0.025 C 
HETATM    4  C4  UNL     1      26.308   2.847  49.609  1.00  0.00    -0.007 C 
HETATM    5  C5  UNL     1      26.873   4.060  49.385  1.00  0.00     0.119 C 
HETATM    6  N1  UNL     1      26.326   5.202  49.949  1.00  0.00    -0.310 N 
HETATM    7  N2  UNL     1      25.807   6.292  50.489  1.00  0.00    -0.286 N 
HETATM    8  C6  UNL     1      25.574   7.624  50.048  1.00  0.00     0.139 C 
HETATM    9  N3  UNL     1      26.630   8.012  49.425  1.00  0.00    -0.224 NA
HETATM   10  C7  UNL     1      26.520   8.932  48.299  1.00  0.00     0.256 C 
HETATM   11  N4  UNL     1      25.357   9.358  47.926  1.00  0.00    -0.170 NA
HETATM   12  N5  UNL     1      24.214   9.122  48.700  1.00  0.00    -0.297 N 
HETATM   13  C8  UNL     1      22.916   9.318  48.116  1.00  0.00     0.147 C 
HETATM   14  C9  UNL     1      22.312   8.092  47.469  1.00  0.00     0.052 C 
HETATM   15  C10 UNL     1      22.129   6.948  48.415  1.00  0.00     0.274 C 
HETATM   16  N6  UNL     1      21.532   5.769  47.940  1.00  0.00     0.094 N 
HETATM   17  C11 UNL     1      20.669   5.960  46.837  1.00  0.00     0.275 C 
HETATM   18  C12 UNL     1      19.883   4.726  46.450  1.00  0.00     0.065 C 
HETATM   19  C13 UNL     1      20.949   3.774  45.892  1.00  0.00     0.221 C 
HETATM   20  C14 UNL     1      21.871   3.491  47.031  1.00  0.00     0.072 C 
HETATM   21  C15 UNL     1      22.485   4.708  47.672  1.00  0.00     0.243 C 
HETATM   22  C16 UNL     1      23.215   4.279  48.846  1.00  0.00     0.125 A 
HETATM   23  C17 UNL     1      23.644   3.977  50.044  1.00  0.00     0.004 A 
HETATM   24 BR1  UNL     1      21.925   4.580  50.591  1.00  0.00    -0.119 Br
HETATM   25  C18 UNL     1      24.536   8.694  50.074  1.00  0.00     0.224 C 
HETATM   26  H5  UNL     1      25.953   5.297  49.056  1.00  0.00     0.186 HD
HETATM   27  H6  UNL     1      25.412   6.524  51.388  1.00  0.00     0.188 HD
ENDROOT
BRANCH  19  28
HETATM   28  N7  UNL     1      21.593   4.379  44.763  1.00  0.00     0.083 N 
HETATM   29  H19 UNL     1      22.489   3.925  44.490  1.00  0.00     0.313 HD
HETATM   30  H20 UNL     1      20.942   4.322  43.932  1.00  0.00     0.313 HD
ENDBRANCH  19  28
TORSDOF 1
ENDMDL
MODEL 6
REMARK VINA RESULT:      -6.8      9.312     12.225
REMARK  1 active torsions:
REMARK  status: ('A' for Active; 'I' for Inactive)
REMARK    1  A    between atoms: C13_19  and  N7_20 
ROOT
HETATM    1  C1  UNL     1      31.314  10.774  43.922  1.00  0.00     0.024 C 
HETATM    2  C2  UNL     1      31.530  10.916  45.230  1.00  0.00    -0.031 C 
HETATM    3  C3  UNL     1      32.658  11.770  45.521  1.00  0.00     0.025 C 
HETATM    4  C4  UNL     1      32.780  11.819  46.851  1.00  0.00    -0.007 C 
HETATM    5  C5  UNL     1      33.534  10.741  47.181  1.00  0.00     0.119 C 
HETATM    6  N1  UNL     1      33.341   9.527  46.538  1.00  0.00    -0.310 N 
HETATM    7  N2  UNL     1      33.158   8.371  45.923  1.00  0.00    -0.286 N 
HETATM    8  C6  UNL     1      33.130   7.008  46.327  1.00  0.00     0.139 C 
HETATM    9  N3  UNL     1      34.117   6.824  47.130  1.00  0.00    -0.224 NA
HETATM   10  C7  UNL     1      34.004   5.869  48.226  1.00  0.00     0.256 C 
HETATM   11  N4  UNL     1      32.906   5.206  48.391  1.00  0.00    -0.170 NA
HETATM   12  N5  UNL     1      31.892   5.226  47.425  1.00  0.00    -0.297 N 
HETATM   13  C8  UNL     1      30.580   4.753  47.773  1.00  0.00     0.147 C 
HETATM   14  C9  UNL     1      29.634   5.813  48.293  1.00  0.00     0.052 C 
HETATM   15  C10 UNL     1      29.388   6.922  47.321  1.00  0.00     0.274 C 
HETATM   16  N6  UNL     1      28.488   7.942  47.673  1.00  0.00     0.094 N 
HETATM   17  C11 UNL     1      27.504   7.548  48.608  1.00  0.00     0.275 C 
HETATM   18  C12 UNL     1      26.427   8.584  48.840  1.00  0.00     0.065 C 
HETATM   19  C13 UNL     1      27.161   9.716  49.570  1.00  0.00     0.221 C 
HETATM   20  C14 UNL     1      28.190  10.213  48.610  1.00  0.00     0.072 C 
HETATM   21  C15 UNL     1      29.143   9.166  48.097  1.00  0.00     0.243 C 
HETATM   22  C16 UNL     1      29.962   9.767  47.066  1.00  0.00     0.125 A 
HETATM   23  C17 UNL     1      30.522  10.184  45.961  1.00  0.00     0.004 A 
HETATM   24 BR1  UNL     1      29.086   9.260  45.124  1.00  0.00    -0.119 Br
HETATM   25  C18 UNL     1      32.354   5.750  46.126  1.00  0.00     0.224 C 
HETATM   26  H5  UNL     1      32.845   9.333  47.352  1.00  0.00     0.186 HD
HETATM   27  H6  UNL     1      32.982   8.089  44.971  1.00  0.00     0.188 HD
ENDROOT
BRANCH  19  28
HETATM   28  N7  UNL     1      27.708   9.223  50.800  1.00  0.00     0.083 N 
HETATM   29  H19 UNL     1      28.026   8.234  50.758  1.00  0.00     0.313 HD
HETATM   30  H20 UNL     1      28.546   9.816  51.059  1.00  0.00     0.313 HD
ENDBRANCH  19  28
TORSDOF 1
ENDMDL
MODEL 7
REMARK VINA RESULT:      -6.8     10.302     12.585
REMARK  1 active torsions:
REMARK  status: ('A' for Active; 'I' for Inactive)
REMARK    1  A    between atoms: C13_19  and  N7_20 
ROOT
HETATM    1  C1  UNL     1      33.164  11.490  47.127  1.00  0.00     0.024 C 
HETATM    2  C2  UNL     1      32.307  10.977  46.244  1.00  0.00    -0.031 C 
HETATM    3  C3  UNL     1      31.153  11.819  46.031  1.00  0.00     0.025 C 
HETATM    4  C4  UNL     1      30.369  11.193  45.148  1.00  0.00    -0.007 C 
HETATM    5  C5  UNL     1      29.599  10.354  45.883  1.00  0.00     0.119 C 
HETATM    6  N1  UNL     1      30.143   9.660  46.953  1.00  0.00    -0.310 N 
HETATM    7  N2  UNL     1      30.662   9.000  47.975  1.00  0.00    -0.286 N 
HETATM    8  C6  UNL     1      30.538   7.681  48.490  1.00  0.00     0.139 C 
HETATM    9  N3  UNL     1      29.288   7.378  48.478  1.00  0.00    -0.224 NA
HETATM   10  C7  UNL     1      28.868   6.002  48.243  1.00  0.00     0.256 C 
HETATM   11  N4  UNL     1      29.757   5.082  48.046  1.00  0.00    -0.170 NA
HETATM   12  N5  UNL     1      31.119   5.331  48.255  1.00  0.00    -0.297 N 
HETATM   13  C8  UNL     1      32.091   4.412  47.728  1.00  0.00     0.147 C 
HETATM   14  C9  UNL     1      32.595   4.738  46.341  1.00  0.00     0.052 C 
HETATM   15  C10 UNL     1      33.254   6.076  46.244  1.00  0.00     0.274 C 
HETATM   16  N6  UNL     1      33.806   6.470  45.014  1.00  0.00     0.094 N 
HETATM   17  C11 UNL     1      34.193   5.395  44.182  1.00  0.00     0.275 C 
HETATM   18  C12 UNL     1      34.958   5.818  42.947  1.00  0.00     0.065 C 
HETATM   19  C13 UNL     1      33.908   6.548  42.099  1.00  0.00     0.221 C 
HETATM   20  C14 UNL     1      33.490   7.731  42.907  1.00  0.00     0.072 C 
HETATM   21  C15 UNL     1      32.976   7.413  44.286  1.00  0.00     0.243 C 
HETATM   22  C16 UNL     1      32.770   8.661  44.989  1.00  0.00     0.125 A 
HETATM   23  C17 UNL     1      32.833   9.729  45.741  1.00  0.00     0.004 A 
HETATM   24 BR1  UNL     1      34.532   9.034  46.236  1.00  0.00    -0.119 Br
HETATM   25  C18 UNL     1      31.361   6.560  49.033  1.00  0.00     0.224 C 
HETATM   26  H5  UNL     1      30.164   8.941  46.297  1.00  0.00     0.186 HD
HETATM   27  H6  UNL     1      31.309   9.225  48.715  1.00  0.00     0.188 HD
ENDROOT
BRANCH  19  28
HETATM   28  N7  UNL     1      32.832   5.653  41.787  1.00  0.00     0.083 N 
HETATM   29  H19 UNL     1      31.920   5.917  42.212  1.00  0.00     0.313 HD
HETATM   30  H20 UNL     1      32.700   5.635  40.738  1.00  0.00     0.313 HD
ENDBRANCH  19  28
TORSDOF 1
ENDMDL
MODEL 8
REMARK VINA RESULT:      -6.5     10.602     13.447
REMARK  1 active torsions:
REMARK  status: ('A' for Active; 'I' for Inactive)
REMARK    1  A    between atoms: C13_19  and  N7_20 
ROOT
HETATM    1  C1  UNL     1      32.243   8.531  42.730  1.00  0.00     0.024 C 
HETATM    2  C2  UNL     1      32.868   9.235  43.674  1.00  0.00    -0.031 C 
HETATM    3  C3  UNL     1      34.177   9.686  43.262  1.00  0.00     0.025 C 
HETATM    4  C4  UNL     1      34.702  10.358  44.291  1.00  0.00    -0.007 C 
HETATM    5  C5  UNL     1      35.292   9.418  45.069  1.00  0.00     0.119 C 
HETATM    6  N1  UNL     1      34.678   8.191  45.272  1.00  0.00    -0.310 N 
HETATM    7  N2  UNL     1      34.093   7.020  45.465  1.00  0.00    -0.286 N 
HETATM    8  C6  UNL     1      33.921   6.150  46.575  1.00  0.00     0.139 C 
HETATM    9  N3  UNL     1      35.048   6.083  47.190  1.00  0.00    -0.224 NA
HETATM   10  C7  UNL     1      35.085   5.916  48.639  1.00  0.00     0.256 C 
HETATM   11  N4  UNL     1      33.980   5.837  49.306  1.00  0.00    -0.170 NA
HETATM   12  N5  UNL     1      32.747   5.701  48.656  1.00  0.00    -0.297 N 
HETATM   13  C8  UNL     1      31.534   5.937  49.392  1.00  0.00     0.147 C 
HETATM   14  C9  UNL     1      31.018   7.357  49.338  1.00  0.00     0.052 C 
HETATM   15  C10 UNL     1      30.714   7.829  47.952  1.00  0.00     0.274 C 
HETATM   16  N6  UNL     1      30.182   9.117  47.778  1.00  0.00     0.094 N 
HETATM   17  C11 UNL     1      29.469   9.605  48.897  1.00  0.00     0.275 C 
HETATM   18  C12 UNL     1      28.738  10.905  48.641  1.00  0.00     0.065 C 
HETATM   19  C13 UNL     1      29.867  11.931  48.479  1.00  0.00     0.221 C 
HETATM   20  C14 UNL     1      30.634  11.498  47.274  1.00  0.00     0.072 C 
HETATM   21  C15 UNL     1      31.162  10.088  47.327  1.00  0.00     0.243 C 
HETATM   22  C16 UNL     1      31.733   9.773  46.035  1.00  0.00     0.125 A 
HETATM   23  C17 UNL     1      32.005   9.358  44.825  1.00  0.00     0.004 A 
HETATM   24 BR1  UNL     1      30.230   8.675  44.880  1.00  0.00    -0.119 Br
HETATM   25  C18 UNL     1      32.888   5.306  47.243  1.00  0.00     0.224 C 
HETATM   26  H5  UNL     1      34.423   8.614  46.111  1.00  0.00     0.186 HD
HETATM   27  H6  UNL     1      33.587   6.372  44.881  1.00  0.00     0.188 HD
ENDROOT
BRANCH  19  28
HETATM   28  N7  UNL     1      30.652  11.981  49.677  1.00  0.00     0.083 N 
HETATM   29  H19 UNL     1      30.145  11.670  50.531  1.00  0.00     0.313 HD
HETATM   30  H20 UNL     1      31.491  11.348  49.558  1.00  0.00     0.313 HD
ENDBRANCH  19  28
TORSDOF 1
ENDMDL
MODEL 9
REMARK VINA RESULT:      -6.5      3.328      6.184
REMARK  1 active torsions:
REMARK  status: ('A' for Active; 'I' for Inactive)
REMARK    1  A    between atoms: C13_19  and  N7_20 
ROOT
HETATM    1  C1  UNL     1      19.781   2.987  47.300  1.00  0.00     0.024 C 
HETATM    2  C2  UNL     1      19.861   3.568  48.498  1.00  0.00    -0.031 C 
HETATM    3  C3  UNL     1      18.621   4.191  48.901  1.00  0.00     0.025 C 
HETATM    4  C4  UNL     1      18.834   4.748  50.097  1.00  0.00    -0.007 C 
HETATM    5  C5  UNL     1      19.344   5.977  49.835  1.00  0.00     0.119 C 
HETATM    6  N1  UNL     1      20.260   6.150  48.808  1.00  0.00    -0.310 N 
HETATM    7  N2  UNL     1      21.131   6.316  47.827  1.00  0.00    -0.286 N 
HETATM    8  C6  UNL     1      22.324   7.071  47.654  1.00  0.00     0.139 C 
HETATM    9  N3  UNL     1      22.108   8.245  48.132  1.00  0.00    -0.224 NA
HETATM   10  C7  UNL     1      23.192   8.991  48.760  1.00  0.00     0.256 C 
HETATM   11  N4  UNL     1      24.373   8.470  48.838  1.00  0.00    -0.170 NA
HETATM   12  N5  UNL     1      24.693   7.291  48.153  1.00  0.00    -0.297 N 
HETATM   13  C8  UNL     1      25.887   6.574  48.508  1.00  0.00     0.147 C 
HETATM   14  C9  UNL     1      25.703   5.506  49.563  1.00  0.00     0.052 C 
HETATM   15  C10 UNL     1      24.729   4.441  49.170  1.00  0.00     0.274 C 
HETATM   16  N6  UNL     1      24.510   3.368  50.050  1.00  0.00     0.094 N 
HETATM   17  C11 UNL     1      25.599   3.092  50.908  1.00  0.00     0.275 C 
HETATM   18  C12 UNL     1      25.437   1.823  51.717  1.00  0.00     0.065 C 
HETATM   19  C13 UNL     1      24.304   2.157  52.696  1.00  0.00     0.221 C 
HETATM   20  C14 UNL     1      23.103   2.412  51.848  1.00  0.00     0.072 C 
HETATM   21  C15 UNL     1      23.275   3.483  50.803  1.00  0.00     0.243 C 
HETATM   22  C16 UNL     1      22.091   3.495  49.970  1.00  0.00     0.125 A 
HETATM   23  C17 UNL     1      21.182   3.357  49.041  1.00  0.00     0.004 A 
HETATM   24 BR1  UNL     1      22.518   2.320  48.172  1.00  0.00    -0.119 Br
HETATM   25  C18 UNL     1      23.708   6.953  47.110  1.00  0.00     0.224 C 
HETATM   26  H5  UNL     1      20.888   6.133  49.551  1.00  0.00     0.186 HD
HETATM   27  H6  UNL     1      21.224   5.960  46.887  1.00  0.00     0.188 HD
ENDROOT
BRANCH  19  28
HETATM   28  N7  UNL     1      24.683   3.273  53.512  1.00  0.00     0.083 N 
HETATM   29  H19 UNL     1      24.056   4.098  53.424  1.00  0.00     0.313 HD
HETATM   30  H20 UNL     1      24.669   2.970  54.526  1.00  0.00     0.313 HD
ENDBRANCH  19  28
TORSDOF 1
ENDMDL
