MODEL 1
REMARK VINA RESULT:      -9.9      0.000      0.000
REMARK  6 active torsions:
REMARK  status: ('A' for Active; 'I' for Inactive)
REMARK    1  A    between atoms: O1_2  and  C2_3 
REMARK    2  A    between atoms: C6_7  and  C7_8 
REMARK    3  A    between atoms: C18_20  and  C19_21 
REMARK    4  A    between atoms: C19_21  and  C20_22 
REMARK    5  A    between atoms: C20_22  and  C21_23 
REMARK    6  A    between atoms: C21_23  and  O3_25 
ROOT
HETATM    1  C7  UNL     1      24.995   2.676  51.361  1.00  0.00    -0.035 C 
HETATM    2  C8  UNL     1      23.838   3.110  51.754  1.00  0.00     0.052 C 
HETATM    3  C9  UNL     1      22.645   3.779  51.982  1.00  0.00    -0.019 C 
HETATM    4  C10 UNL     1      21.810   4.777  51.731  1.00  0.00    -0.001 C 
HETATM    5  C11 UNL     1      22.299   5.705  50.696  1.00  0.00     0.297 C 
HETATM    6  N1  UNL     1      22.428   7.032  51.289  1.00  0.00     0.090 N 
HETATM    7  C12 UNL     1      23.025   7.934  50.288  1.00  0.00     0.297 C 
HETATM    8  C13 UNL     1      24.396   7.380  50.118  1.00  0.00     0.005 C 
HETATM    9  C14 UNL     1      25.116   6.876  49.139  1.00  0.00     0.030 C 
HETATM   10  C15 UNL     1      26.404   6.302  48.796  1.00  0.00     0.068 A 
HETATM   11  C16 UNL     1      27.403   7.024  48.204  1.00  0.00    -0.025 A 
HETATM   12  C17 UNL     1      27.298   8.456  47.809  1.00  0.00     0.051 C 
HETATM   13  C18 UNL     1      28.446   6.090  48.086  1.00  0.00    -0.031 A 
HETATM   14  C22 UNL     1      27.957   4.917  48.617  1.00  0.00     0.131 A 
HETATM   15  N2  UNL     1      26.694   5.037  49.059  1.00  0.00    -0.232 N 
HETATM   16  O4  UNL     1      25.729   4.245  49.655  1.00  0.00    -0.269 OA
HETATM   17  C23 UNL     1      26.080   3.067  50.357  1.00  0.00     0.237 C 
HETATM   18  H12 UNL     1      23.115   6.957  52.063  1.00  0.00     0.316 HD
ENDROOT
BRANCH   1  19
HETATM   19  C6  UNL     1      25.448   1.462  52.009  1.00  0.00    -0.028 A 
HETATM   20  C5  UNL     1      26.573   0.762  51.834  1.00  0.00     0.012 A 
HETATM   21  C4  UNL     1      26.871  -0.451  52.421  1.00  0.00     0.004 A 
HETATM   22  C3  UNL     1      25.910  -0.951  53.253  1.00  0.00     0.037 A 
HETATM   23  C2  UNL     1      24.717  -0.340  53.523  1.00  0.00     0.069 A 
HETATM   24  C24 UNL     1      24.522   0.858  52.890  1.00  0.00     0.048 A 
BRANCH  23  25
HETATM   25  O1  UNL     1      23.770  -0.885  54.362  1.00  0.00    -0.356 OA
HETATM   26  C1  UNL     1      22.439  -1.150  54.125  1.00  0.00     0.210 C 
ENDBRANCH  23  25
ENDBRANCH   1  19
BRANCH  13  27
HETATM   27  C19 UNL     1      29.771   6.426  47.526  1.00  0.00     0.051 C 
BRANCH  27  28
HETATM   28  C20 UNL     1      30.766   6.976  48.490  1.00  0.00     0.114 C 
BRANCH  28  29
HETATM   29  C21 UNL     1      31.363   5.867  49.327  1.00  0.00     0.139 C 
HETATM   30  O2  UNL     1      31.923   4.862  48.769  1.00  0.00    -0.650 OA
BRANCH  29  31
HETATM   31  O3  UNL     1      31.528   5.540  50.676  1.00  0.00    -0.776 OA
HETATM   32  H24 UNL     1      32.155   6.029  51.309  1.00  0.00     0.167 HD
ENDBRANCH  29  31
ENDBRANCH  28  29
ENDBRANCH  27  28
ENDBRANCH  13  27
TORSDOF 6
ENDMDL
MODEL 2
REMARK VINA RESULT:      -9.8      1.213      1.895
REMARK  6 active torsions:
REMARK  status: ('A' for Active; 'I' for Inactive)
REMARK    1  A    between atoms: O1_2  and  C2_3 
REMARK    2  A    between atoms: C6_7  and  C7_8 
REMARK    3  A    between atoms: C18_20  and  C19_21 
REMARK    4  A    between atoms: C19_21  and  C20_22 
REMARK    5  A    between atoms: C20_22  and  C21_23 
REMARK    6  A    between atoms: C21_23  and  O3_25 
ROOT
HETATM    1  C7  UNL     1      25.035   2.617  51.485  1.00  0.00    -0.035 C 
HETATM    2  C8  UNL     1      23.872   3.027  51.887  1.00  0.00     0.052 C 
HETATM    3  C9  UNL     1      22.666   3.669  52.122  1.00  0.00    -0.019 C 
HETATM    4  C10 UNL     1      21.802   4.641  51.867  1.00  0.00    -0.001 C 
HETATM    5  C11 UNL     1      22.252   5.565  50.811  1.00  0.00     0.297 C 
HETATM    6  N1  UNL     1      22.354   6.904  51.381  1.00  0.00     0.090 N 
HETATM    7  C12 UNL     1      22.914   7.805  50.357  1.00  0.00     0.297 C 
HETATM    8  C13 UNL     1      24.296   7.284  50.177  1.00  0.00     0.005 C 
HETATM    9  C14 UNL     1      25.016   6.783  49.196  1.00  0.00     0.030 C 
HETATM   10  C15 UNL     1      26.314   6.238  48.844  1.00  0.00     0.068 A 
HETATM   11  C16 UNL     1      27.285   6.976  48.226  1.00  0.00    -0.025 A 
HETATM   12  C17 UNL     1      27.138   8.398  47.811  1.00  0.00     0.051 C 
HETATM   13  C18 UNL     1      28.351   6.067  48.109  1.00  0.00    -0.031 A 
HETATM   14  C22 UNL     1      27.900   4.890  48.665  1.00  0.00     0.131 A 
HETATM   15  N2  UNL     1      26.640   4.985  49.123  1.00  0.00    -0.232 N 
HETATM   16  O4  UNL     1      25.704   4.177  49.745  1.00  0.00    -0.269 OA
HETATM   17  C23 UNL     1      26.096   3.020  50.460  1.00  0.00     0.237 C 
HETATM   18  H12 UNL     1      23.053   6.859  52.146  1.00  0.00     0.316 HD
ENDROOT
BRANCH   1  19
HETATM   19  C6  UNL     1      25.528   1.427  52.145  1.00  0.00    -0.028 A 
HETATM   20  C5  UNL     1      24.861   0.393  52.668  1.00  0.00     0.012 A 
HETATM   21  C4  UNL     1      25.414  -0.651  53.380  1.00  0.00     0.004 A 
HETATM   22  C3  UNL     1      26.769  -0.596  53.545  1.00  0.00     0.037 A 
HETATM   23  C2  UNL     1      27.573   0.400  53.063  1.00  0.00     0.069 A 
HETATM   24  C24 UNL     1      26.924   1.387  52.371  1.00  0.00     0.048 A 
BRANCH  23  25
HETATM   25  O1  UNL     1      28.936   0.423  53.260  1.00  0.00    -0.356 OA
HETATM   26  C1  UNL     1      29.786  -0.600  53.622  1.00  0.00     0.210 C 
ENDBRANCH  23  25
ENDBRANCH   1  19
BRANCH  13  27
HETATM   27  C19 UNL     1      29.659   6.428  47.525  1.00  0.00     0.051 C 
BRANCH  27  28
HETATM   28  C20 UNL     1      30.667   6.978  48.475  1.00  0.00     0.114 C 
BRANCH  28  29
HETATM   29  C21 UNL     1      31.331   5.861  49.250  1.00  0.00     0.139 C 
HETATM   30  O2  UNL     1      31.770   4.823  48.646  1.00  0.00    -0.650 OA
BRANCH  29  31
HETATM   31  O3  UNL     1      31.667   5.554  50.571  1.00  0.00    -0.776 OA
HETATM   32  H24 UNL     1      32.606   5.325  50.882  1.00  0.00     0.167 HD
ENDBRANCH  29  31
ENDBRANCH  28  29
ENDBRANCH  27  28
ENDBRANCH  13  27
TORSDOF 6
ENDMDL
MODEL 3
REMARK VINA RESULT:      -9.6      2.709      7.294
REMARK  6 active torsions:
REMARK  status: ('A' for Active; 'I' for Inactive)
REMARK    1  A    between atoms: O1_2  and  C2_3 
REMARK    2  A    between atoms: C6_7  and  C7_8 
REMARK    3  A    between atoms: C18_20  and  C19_21 
REMARK    4  A    between atoms: C19_21  and  C20_22 
REMARK    5  A    between atoms: C20_22  and  C21_23 
REMARK    6  A    between atoms: C21_23  and  O3_25 
ROOT
HETATM    1  C7  UNL     1      24.861   4.988  49.230  1.00  0.00    -0.035 C 
HETATM    2  C8  UNL     1      23.779   5.008  48.515  1.00  0.00     0.052 C 
HETATM    3  C9  UNL     1      22.523   4.853  47.949  1.00  0.00    -0.019 C 
HETATM    4  C10 UNL     1      21.309   4.322  47.952  1.00  0.00    -0.001 C 
HETATM    5  C11 UNL     1      21.061   3.429  49.098  1.00  0.00     0.297 C 
HETATM    6  N1  UNL     1      20.763   2.095  48.588  1.00  0.00     0.090 N 
HETATM    7  C12 UNL     1      20.630   1.177  49.733  1.00  0.00     0.297 C 
HETATM    8  C13 UNL     1      22.006   1.148  50.298  1.00  0.00     0.005 C 
HETATM    9  C14 UNL     1      22.584   1.449  51.440  1.00  0.00     0.030 C 
HETATM   10  C15 UNL     1      23.852   1.494  52.146  1.00  0.00     0.068 A 
HETATM   11  C16 UNL     1      24.250   0.520  53.018  1.00  0.00    -0.025 A 
HETATM   12  C17 UNL     1      23.445  -0.677  53.382  1.00  0.00     0.051 C 
HETATM   13  C18 UNL     1      25.521   0.961  53.430  1.00  0.00    -0.031 A 
HETATM   14  C22 UNL     1      25.739   2.145  52.763  1.00  0.00     0.131 A 
HETATM   15  N2  UNL     1      24.712   2.485  51.964  1.00  0.00    -0.232 N 
HETATM   16  O4  UNL     1      24.374   3.509  51.097  1.00  0.00    -0.269 OA
HETATM   17  C23 UNL     1      25.366   4.335  50.517  1.00  0.00     0.237 C 
HETATM   18  H12 UNL     1      21.594   1.778  48.054  1.00  0.00     0.316 HD
ENDROOT
BRANCH   1  19
HETATM   19  C6  UNL     1      25.942   5.812  48.732  1.00  0.00    -0.028 A 
HETATM   20  C5  UNL     1      25.908   7.010  48.139  1.00  0.00     0.012 A 
HETATM   21  C4  UNL     1      26.988   7.674  47.595  1.00  0.00     0.004 A 
HETATM   22  C3  UNL     1      28.186   7.024  47.691  1.00  0.00     0.037 A 
HETATM   23  C2  UNL     1      28.364   5.799  48.273  1.00  0.00     0.069 A 
HETATM   24  C24 UNL     1      27.229   5.228  48.781  1.00  0.00     0.048 A 
BRANCH  23  25
HETATM   25  O1  UNL     1      29.589   5.174  48.340  1.00  0.00    -0.356 OA
HETATM   26  C1  UNL     1      30.851   5.724  48.410  1.00  0.00     0.210 C 
ENDBRANCH  23  25
ENDBRANCH   1  19
BRANCH  13  27
HETATM   27  C19 UNL     1      26.374   0.199  54.364  1.00  0.00     0.051 C 
BRANCH  27  28
HETATM   28  C20 UNL     1      27.593  -0.423  53.775  1.00  0.00     0.114 C 
BRANCH  28  29
HETATM   29  C21 UNL     1      28.807   0.441  54.029  1.00  0.00     0.139 C 
HETATM   30  O2  UNL     1      28.822   1.269  55.004  1.00  0.00    -0.650 OA
BRANCH  29  31
HETATM   31  O3  UNL     1      30.076   0.659  53.484  1.00  0.00    -0.776 OA
HETATM   32  H24 UNL     1      30.934   0.677  54.028  1.00  0.00     0.167 HD
ENDBRANCH  29  31
ENDBRANCH  28  29
ENDBRANCH  27  28
ENDBRANCH  13  27
TORSDOF 6
ENDMDL
MODEL 4
REMARK VINA RESULT:      -9.1      3.697      9.544
REMARK  6 active torsions:
REMARK  status: ('A' for Active; 'I' for Inactive)
REMARK    1  A    between atoms: O1_2  and  C2_3 
REMARK    2  A    between atoms: C6_7  and  C7_8 
REMARK    3  A    between atoms: C18_20  and  C19_21 
REMARK    4  A    between atoms: C19_21  and  C20_22 
REMARK    5  A    between atoms: C20_22  and  C21_23 
REMARK    6  A    between atoms: C21_23  and  O3_25 
ROOT
HETATM    1  C7  UNL     1      25.534   2.663  50.845  1.00  0.00    -0.035 C 
HETATM    2  C8  UNL     1      26.510   2.164  51.539  1.00  0.00     0.052 C 
HETATM    3  C9  UNL     1      27.361   1.436  52.355  1.00  0.00    -0.019 C 
HETATM    4  C10 UNL     1      27.593   0.421  53.175  1.00  0.00    -0.001 C 
HETATM    5  C11 UNL     1      26.413  -0.434  53.399  1.00  0.00     0.297 C 
HETATM    6  N1  UNL     1      26.090  -0.412  54.821  1.00  0.00     0.090 N 
HETATM    7  C12 UNL     1      24.845  -1.172  55.028  1.00  0.00     0.297 C 
HETATM    8  C13 UNL     1      23.830  -0.345  54.321  1.00  0.00     0.005 C 
HETATM    9  C14 UNL     1      22.990  -0.499  53.320  1.00  0.00     0.030 C 
HETATM   10  C15 UNL     1      21.976   0.160  52.518  1.00  0.00     0.068 A 
HETATM   11  C16 UNL     1      20.636  -0.008  52.733  1.00  0.00    -0.025 A 
HETATM   12  C17 UNL     1      20.046  -0.892  53.774  1.00  0.00     0.051 C 
HETATM   13  C18 UNL     1      20.051   0.822  51.760  1.00  0.00    -0.031 A 
HETATM   14  C22 UNL     1      21.101   1.389  51.073  1.00  0.00     0.131 A 
HETATM   15  N2  UNL     1      22.297   0.986  51.534  1.00  0.00    -0.232 N 
HETATM   16  O4  UNL     1      23.636   1.200  51.256  1.00  0.00    -0.269 OA
HETATM   17  C23 UNL     1      24.063   2.357  50.560  1.00  0.00     0.237 C 
HETATM   18  H12 UNL     1      25.878   0.572  55.072  1.00  0.00     0.316 HD
ENDROOT
BRANCH   1  19
HETATM   19  C6  UNL     1      25.866   3.847  50.081  1.00  0.00    -0.028 A 
HETATM   20  C5  UNL     1      26.896   4.082  49.263  1.00  0.00     0.012 A 
HETATM   21  C4  UNL     1      27.192   5.288  48.659  1.00  0.00     0.004 A 
HETATM   22  C3  UNL     1      26.332   6.312  48.942  1.00  0.00     0.037 A 
HETATM   23  C2  UNL     1      25.240   6.210  49.759  1.00  0.00     0.069 A 
HETATM   24  C24 UNL     1      25.037   4.971  50.305  1.00  0.00     0.048 A 
BRANCH  23  25
HETATM   25  O1  UNL     1      24.403   7.271  50.025  1.00  0.00    -0.356 OA
HETATM   26  C1  UNL     1      23.245   7.307  50.772  1.00  0.00     0.210 C 
ENDBRANCH  23  25
ENDBRANCH   1  19
BRANCH  13  27
HETATM   27  C19 UNL     1      18.591   1.000  51.626  1.00  0.00     0.051 C 
BRANCH  27  28
HETATM   28  C20 UNL     1      17.843  -0.150  51.045  1.00  0.00     0.114 C 
BRANCH  28  29
HETATM   29  C21 UNL     1      16.754  -0.608  51.989  1.00  0.00     0.139 C 
HETATM   30  O2  UNL     1      15.631  -1.018  51.535  1.00  0.00    -0.650 OA
BRANCH  29  31
HETATM   31  O3  UNL     1      16.546  -0.750  53.364  1.00  0.00    -0.776 OA
HETATM   32  H24 UNL     1      16.966  -1.480  53.931  1.00  0.00     0.167 HD
ENDBRANCH  29  31
ENDBRANCH  28  29
ENDBRANCH  27  28
ENDBRANCH  13  27
TORSDOF 6
ENDMDL
MODEL 5
REMARK VINA RESULT:      -8.7      3.741      5.647
REMARK  6 active torsions:
REMARK  status: ('A' for Active; 'I' for Inactive)
REMARK    1  A    between atoms: O1_2  and  C2_3 
REMARK    2  A    between atoms: C6_7  and  C7_8 
REMARK    3  A    between atoms: C18_20  and  C19_21 
REMARK    4  A    between atoms: C19_21  and  C20_22 
REMARK    5  A    between atoms: C20_22  and  C21_23 
REMARK    6  A    between atoms: C21_23  and  O3_25 
ROOT
HETATM    1  C7  UNL     1      25.357   1.057  52.637  1.00  0.00    -0.035 C 
HETATM    2  C8  UNL     1      24.534   0.284  53.274  1.00  0.00     0.052 C 
HETATM    3  C9  UNL     1      23.465  -0.452  53.763  1.00  0.00    -0.019 C 
HETATM    4  C10 UNL     1      22.193  -0.820  53.714  1.00  0.00    -0.001 C 
HETATM    5  C11 UNL     1      21.440  -0.185  52.618  1.00  0.00     0.297 C 
HETATM    6  N1  UNL     1      20.353   0.596  53.196  1.00  0.00     0.090 N 
HETATM    7  C12 UNL     1      19.671   1.322  52.110  1.00  0.00     0.297 C 
HETATM    8  C13 UNL     1      20.714   2.276  51.642  1.00  0.00     0.005 C 
HETATM    9  C14 UNL     1      21.360   2.523  50.524  1.00  0.00     0.030 C 
HETATM   10  C15 UNL     1      22.368   3.364  49.904  1.00  0.00     0.068 A 
HETATM   11  C16 UNL     1      22.057   4.446  49.129  1.00  0.00    -0.025 A 
HETATM   12  C17 UNL     1      20.674   4.883  48.794  1.00  0.00     0.051 C 
HETATM   13  C18 UNL     1      23.318   4.958  48.775  1.00  0.00    -0.031 A 
HETATM   14  C22 UNL     1      24.239   4.127  49.373  1.00  0.00     0.131 A 
HETATM   15  N2  UNL     1      23.662   3.137  50.075  1.00  0.00    -0.232 N 
HETATM   16  O4  UNL     1      24.051   2.056  50.846  1.00  0.00    -0.269 OA
HETATM   17  C23 UNL     1      25.338   2.001  51.434  1.00  0.00     0.237 C 
HETATM   18  H12 UNL     1      20.783   1.317  53.806  1.00  0.00     0.316 HD
ENDROOT
BRANCH   1  19
HETATM   19  C6  UNL     1      26.711   1.068  53.150  1.00  0.00    -0.028 A 
HETATM   20  C5  UNL     1      27.516   2.097  53.432  1.00  0.00     0.012 A 
HETATM   21  C4  UNL     1      28.839   2.008  53.815  1.00  0.00     0.004 A 
HETATM   22  C3  UNL     1      29.339   0.741  53.908  1.00  0.00     0.037 A 
HETATM   23  C2  UNL     1      28.628  -0.399  53.650  1.00  0.00     0.069 A 
HETATM   24  C24 UNL     1      27.326  -0.199  53.279  1.00  0.00     0.048 A 
BRANCH  23  25
HETATM   25  O1  UNL     1      29.174  -1.659  53.746  1.00  0.00    -0.356 OA
HETATM   26  C1  UNL     1      28.797  -2.828  53.120  1.00  0.00     0.210 C 
ENDBRANCH  23  25
ENDBRANCH   1  19
BRANCH  13  27
HETATM   27  C19 UNL     1      23.493   6.173  47.954  1.00  0.00     0.051 C 
BRANCH  27  28
HETATM   28  C20 UNL     1      24.123   7.338  48.638  1.00  0.00     0.114 C 
BRANCH  28  29
HETATM   29  C21 UNL     1      23.234   7.843  49.753  1.00  0.00     0.139 C 
HETATM   30  O2  UNL     1      22.512   8.885  49.587  1.00  0.00    -0.650 OA
BRANCH  29  31
HETATM   31  O3  UNL     1      22.900   7.502  51.067  1.00  0.00    -0.776 OA
HETATM   32  H24 UNL     1      22.575   8.167  51.763  1.00  0.00     0.167 HD
ENDBRANCH  29  31
ENDBRANCH  28  29
ENDBRANCH  27  28
ENDBRANCH  13  27
TORSDOF 6
ENDMDL
MODEL 6
REMARK VINA RESULT:      -8.5      3.535      8.875
REMARK  6 active torsions:
REMARK  status: ('A' for Active; 'I' for Inactive)
REMARK    1  A    between atoms: O1_2  and  C2_3 
REMARK    2  A    between atoms: C6_7  and  C7_8 
REMARK    3  A    between atoms: C18_20  and  C19_21 
REMARK    4  A    between atoms: C19_21  and  C20_22 
REMARK    5  A    between atoms: C20_22  and  C21_23 
REMARK    6  A    between atoms: C21_23  and  O3_25 
ROOT
HETATM    1  C7  UNL     1      25.518   3.010  50.495  1.00  0.00    -0.035 C 
HETATM    2  C8  UNL     1      26.395   2.380  51.212  1.00  0.00     0.052 C 
HETATM    3  C9  UNL     1      27.119   1.527  52.031  1.00  0.00    -0.019 C 
HETATM    4  C10 UNL     1      27.200   0.449  52.799  1.00  0.00    -0.001 C 
HETATM    5  C11 UNL     1      25.933  -0.296  52.900  1.00  0.00     0.297 C 
HETATM    6  N1  UNL     1      25.522  -0.321  54.299  1.00  0.00     0.090 N 
HETATM    7  C12 UNL     1      24.199  -0.965  54.386  1.00  0.00     0.297 C 
HETATM    8  C13 UNL     1      23.315  -0.004  53.672  1.00  0.00     0.005 C 
HETATM    9  C14 UNL     1      22.531  -0.019  52.616  1.00  0.00     0.030 C 
HETATM   10  C15 UNL     1      21.638   0.781  51.798  1.00  0.00     0.068 A 
HETATM   11  C16 UNL     1      20.277   0.734  51.923  1.00  0.00    -0.025 A 
HETATM   12  C17 UNL     1      19.540  -0.145  52.871  1.00  0.00     0.051 C 
HETATM   13  C18 UNL     1      19.837   1.670  50.970  1.00  0.00    -0.031 A 
HETATM   14  C22 UNL     1      20.978   2.168  50.382  1.00  0.00     0.131 A 
HETATM   15  N2  UNL     1      22.099   1.624  50.887  1.00  0.00    -0.232 N 
HETATM   16  O4  UNL     1      23.467   1.721  50.703  1.00  0.00    -0.269 OA
HETATM   17  C23 UNL     1      24.046   2.867  50.106  1.00  0.00     0.237 C 
HETATM   18  H12 UNL     1      25.388   0.663  54.598  1.00  0.00     0.316 HD
ENDROOT
BRANCH   1  19
HETATM   19  C6  UNL     1      26.009   4.197  49.826  1.00  0.00    -0.028 A 
HETATM   20  C5  UNL     1      27.060   4.355  49.016  1.00  0.00     0.012 A 
HETATM   21  C4  UNL     1      27.519   5.554  48.510  1.00  0.00     0.004 A 
HETATM   22  C3  UNL     1      26.811   6.659  48.887  1.00  0.00     0.037 A 
HETATM   23  C2  UNL     1      25.717   6.642  49.708  1.00  0.00     0.069 A 
HETATM   24  C24 UNL     1      25.346   5.402  50.154  1.00  0.00     0.048 A 
BRANCH  23  25
HETATM   25  O1  UNL     1      25.037   7.782  50.073  1.00  0.00    -0.356 OA
HETATM   26  C1  UNL     1      23.684   8.046  50.031  1.00  0.00     0.210 C 
ENDBRANCH  23  25
ENDBRANCH   1  19
BRANCH  13  27
HETATM   27  C19 UNL     1      18.412   1.999  50.762  1.00  0.00     0.051 C 
BRANCH  27  28
HETATM   28  C20 UNL     1      17.921   3.232  51.439  1.00  0.00     0.114 C 
BRANCH  28  29
HETATM   29  C21 UNL     1      17.783   4.365  50.447  1.00  0.00     0.139 C 
HETATM   30  O2  UNL     1      18.812   5.018  50.061  1.00  0.00    -0.650 OA
BRANCH  29  31
HETATM   31  O3  UNL     1      16.778   5.011  49.721  1.00  0.00    -0.776 OA
HETATM   32  H24 UNL     1      16.275   4.590  48.946  1.00  0.00     0.167 HD
ENDBRANCH  29  31
ENDBRANCH  28  29
ENDBRANCH  27  28
ENDBRANCH  13  27
TORSDOF 6
ENDMDL
MODEL 7
REMARK VINA RESULT:      -8.4      2.494      7.383
REMARK  6 active torsions:
REMARK  status: ('A' for Active; 'I' for Inactive)
REMARK    1  A    between atoms: O1_2  and  C2_3 
REMARK    2  A    between atoms: C6_7  and  C7_8 
REMARK    3  A    between atoms: C18_20  and  C19_21 
REMARK    4  A    between atoms: C19_21  and  C20_22 
REMARK    5  A    between atoms: C20_22  and  C21_23 
REMARK    6  A    between atoms: C21_23  and  O3_25 
ROOT
HETATM    1  C7  UNL     1      25.387   5.334  49.474  1.00  0.00    -0.035 C 
HETATM    2  C8  UNL     1      24.188   5.802  49.319  1.00  0.00     0.052 C 
HETATM    3  C9  UNL     1      22.836   6.112  49.352  1.00  0.00    -0.019 C 
HETATM    4  C10 UNL     1      21.614   5.917  49.826  1.00  0.00    -0.001 C 
HETATM    5  C11 UNL     1      21.543   4.856  50.846  1.00  0.00     0.297 C 
HETATM    6  N1  UNL     1      20.648   3.810  50.362  1.00  0.00     0.090 N 
HETATM    7  C12 UNL     1      20.666   2.697  51.328  1.00  0.00     0.297 C 
HETATM    8  C13 UNL     1      22.059   2.186  51.220  1.00  0.00     0.005 C 
HETATM    9  C14 UNL     1      23.095   2.036  52.017  1.00  0.00     0.030 C 
HETATM   10  C15 UNL     1      24.473   1.586  52.089  1.00  0.00     0.068 A 
HETATM   11  C16 UNL     1      24.827   0.357  52.572  1.00  0.00    -0.025 A 
HETATM   12  C17 UNL     1      23.873  -0.654  53.106  1.00  0.00     0.051 C 
HETATM   13  C18 UNL     1      26.226   0.349  52.430  1.00  0.00    -0.031 A 
HETATM   14  C22 UNL     1      26.552   1.570  51.884  1.00  0.00     0.131 A 
HETATM   15  N2  UNL     1      25.474   2.344  51.668  1.00  0.00    -0.232 N 
HETATM   16  O4  UNL     1      25.190   3.604  51.171  1.00  0.00    -0.269 OA
HETATM   17  C23 UNL     1      26.099   4.275  50.317  1.00  0.00     0.237 C 
HETATM   18  H12 UNL     1      21.054   3.441  49.482  1.00  0.00     0.316 HD
ENDROOT
BRANCH   1  19
HETATM   19  C6  UNL     1      26.402   5.961  48.654  1.00  0.00    -0.028 A 
HETATM   20  C5  UNL     1      27.697   5.663  48.510  1.00  0.00     0.012 A 
HETATM   21  C4  UNL     1      28.619   6.390  47.784  1.00  0.00     0.004 A 
HETATM   22  C3  UNL     1      28.131   7.507  47.168  1.00  0.00     0.037 A 
HETATM   23  C2  UNL     1      26.831   7.928  47.230  1.00  0.00     0.069 A 
HETATM   24  C24 UNL     1      26.000   7.135  47.975  1.00  0.00     0.048 A 
BRANCH  23  25
HETATM   25  O1  UNL     1      26.382   9.067  46.601  1.00  0.00    -0.356 OA
HETATM   26  C1  UNL     1      26.972   9.803  45.595  1.00  0.00     0.210 C 
ENDBRANCH  23  25
ENDBRANCH   1  19
BRANCH  13  27
HETATM   27  C19 UNL     1      27.066  -0.810  52.792  1.00  0.00     0.051 C 
BRANCH  27  28
HETATM   28  C20 UNL     1      27.868  -0.671  54.040  1.00  0.00     0.114 C 
BRANCH  28  29
HETATM   29  C21 UNL     1      29.220  -0.065  53.739  1.00  0.00     0.139 C 
HETATM   30  O2  UNL     1      30.256  -0.807  53.638  1.00  0.00    -0.650 OA
BRANCH  29  31
HETATM   31  O3  UNL     1      29.778   1.194  53.501  1.00  0.00    -0.776 OA
HETATM   32  H24 UNL     1      29.286   1.960  53.050  1.00  0.00     0.167 HD
ENDBRANCH  29  31
ENDBRANCH  28  29
ENDBRANCH  27  28
ENDBRANCH  13  27
TORSDOF 6
ENDMDL
MODEL 8
REMARK VINA RESULT:      -8.4      2.306      7.998
REMARK  6 active torsions:
REMARK  status: ('A' for Active; 'I' for Inactive)
REMARK    1  A    between atoms: O1_2  and  C2_3 
REMARK    2  A    between atoms: C6_7  and  C7_8 
REMARK    3  A    between atoms: C18_20  and  C19_21 
REMARK    4  A    between atoms: C19_21  and  C20_22 
REMARK    5  A    between atoms: C20_22  and  C21_23 
REMARK    6  A    between atoms: C21_23  and  O3_25 
ROOT
HETATM    1  C7  UNL     1      25.407   5.314  49.129  1.00  0.00    -0.035 C 
HETATM    2  C8  UNL     1      24.430   5.960  48.572  1.00  0.00     0.052 C 
HETATM    3  C9  UNL     1      23.224   6.504  48.157  1.00  0.00    -0.019 C 
HETATM    4  C10 UNL     1      21.905   6.596  48.241  1.00  0.00    -0.001 C 
HETATM    5  C11 UNL     1      21.319   5.715  49.268  1.00  0.00     0.297 C 
HETATM    6  N1  UNL     1      20.404   4.787  48.613  1.00  0.00     0.090 N 
HETATM    7  C12 UNL     1      19.907   3.833  49.621  1.00  0.00     0.297 C 
HETATM    8  C13 UNL     1      21.132   3.074  49.992  1.00  0.00     0.005 C 
HETATM    9  C14 UNL     1      21.836   2.856  51.081  1.00  0.00     0.030 C 
HETATM   10  C15 UNL     1      23.008   2.184  51.614  1.00  0.00     0.068 A 
HETATM   11  C16 UNL     1      22.940   0.991  52.277  1.00  0.00    -0.025 A 
HETATM   12  C17 UNL     1      21.682   0.248  52.565  1.00  0.00     0.051 C 
HETATM   13  C18 UNL     1      24.285   0.717  52.580  1.00  0.00    -0.031 A 
HETATM   14  C22 UNL     1      25.005   1.774  52.068  1.00  0.00     0.131 A 
HETATM   15  N2  UNL     1      24.223   2.688  51.468  1.00  0.00    -0.232 N 
HETATM   16  O4  UNL     1      24.368   3.897  50.810  1.00  0.00    -0.269 OA
HETATM   17  C23 UNL     1      25.604   4.272  50.232  1.00  0.00     0.237 C 
HETATM   18  H12 UNL     1      20.961   4.234  47.935  1.00  0.00     0.316 HD
ENDROOT
BRANCH   1  19
HETATM   19  C6  UNL     1      26.724   5.632  48.620  1.00  0.00    -0.028 A 
HETATM   20  C5  UNL     1      27.836   4.891  48.586  1.00  0.00     0.012 A 
HETATM   21  C4  UNL     1      29.083   5.321  48.179  1.00  0.00     0.004 A 
HETATM   22  C3  UNL     1      29.151   6.624  47.776  1.00  0.00     0.037 A 
HETATM   23  C2  UNL     1      28.094   7.491  47.756  1.00  0.00     0.069 A 
HETATM   24  C24 UNL     1      26.904   6.964  48.180  1.00  0.00     0.048 A 
BRANCH  23  25
HETATM   25  O1  UNL     1      28.209   8.802  47.351  1.00  0.00    -0.356 OA
HETATM   26  C1  UNL     1      29.304   9.470  46.847  1.00  0.00     0.210 C 
ENDBRANCH  23  25
ENDBRANCH   1  19
BRANCH  13  27
HETATM   27  C19 UNL     1      24.721  -0.511  53.275  1.00  0.00     0.051 C 
BRANCH  27  28
HETATM   28  C20 UNL     1      25.545  -0.310  54.500  1.00  0.00     0.114 C 
BRANCH  28  29
HETATM   29  C21 UNL     1      24.911  -1.004  55.685  1.00  0.00     0.139 C 
HETATM   30  O2  UNL     1      23.685  -1.363  55.648  1.00  0.00    -0.650 OA
BRANCH  29  31
HETATM   31  O3  UNL     1      25.270  -1.439  56.964  1.00  0.00    -0.776 OA
HETATM   32  H24 UNL     1      25.564  -0.821  57.715  1.00  0.00     0.167 HD
ENDBRANCH  29  31
ENDBRANCH  28  29
ENDBRANCH  27  28
ENDBRANCH  13  27
TORSDOF 6
ENDMDL
MODEL 9
REMARK VINA RESULT:      -8.1      3.048      8.142
REMARK  6 active torsions:
REMARK  status: ('A' for Active; 'I' for Inactive)
REMARK    1  A    between atoms: O1_2  and  C2_3 
REMARK    2  A    between atoms: C6_7  and  C7_8 
REMARK    3  A    between atoms: C18_20  and  C19_21 
REMARK    4  A    between atoms: C19_21  and  C20_22 
REMARK    5  A    between atoms: C20_22  and  C21_23 
REMARK    6  A    between atoms: C21_23  and  O3_25 
ROOT
HETATM    1  C7  UNL     1      31.396   6.018  47.113  1.00  0.00    -0.035 C 
HETATM    2  C8  UNL     1      31.587   7.200  46.617  1.00  0.00     0.052 C 
HETATM    3  C9  UNL     1      31.539   8.523  46.203  1.00  0.00    -0.019 C 
HETATM    4  C10 UNL     1      30.923   9.694  46.135  1.00  0.00    -0.001 C 
HETATM    5  C11 UNL     1      29.617   9.710  46.818  1.00  0.00     0.297 C 
HETATM    6  N1  UNL     1      28.586  10.023  45.835  1.00  0.00     0.090 N 
HETATM    7  C12 UNL     1      27.270   9.926  46.492  1.00  0.00     0.297 C 
HETATM    8  C13 UNL     1      27.165   8.476  46.813  1.00  0.00     0.005 C 
HETATM    9  C14 UNL     1      27.033   7.736  47.892  1.00  0.00     0.030 C 
HETATM   10  C15 UNL     1      26.926   6.375  48.384  1.00  0.00     0.068 A 
HETATM   11  C16 UNL     1      25.730   5.795  48.705  1.00  0.00    -0.025 A 
HETATM   12  C17 UNL     1      24.407   6.473  48.628  1.00  0.00     0.051 C 
HETATM   13  C18 UNL     1      26.101   4.497  49.100  1.00  0.00    -0.031 A 
HETATM   14  C22 UNL     1      27.471   4.446  48.973  1.00  0.00     0.131 A 
HETATM   15  N2  UNL     1      27.992   5.603  48.530  1.00  0.00    -0.232 N 
HETATM   16  O4  UNL     1      29.237   6.126  48.227  1.00  0.00    -0.269 OA
HETATM   17  C23 UNL     1      30.333   5.280  47.929  1.00  0.00     0.237 C 
HETATM   18  H12 UNL     1      28.610   9.275  45.117  1.00  0.00     0.316 HD
ENDROOT
BRANCH   1  19
HETATM   19  C6  UNL     1      32.466   5.072  46.877  1.00  0.00    -0.028 A 
HETATM   20  C5  UNL     1      33.667   5.253  46.318  1.00  0.00     0.012 A 
HETATM   21  C4  UNL     1      34.585   4.262  46.033  1.00  0.00     0.004 A 
HETATM   22  C3  UNL     1      34.202   2.995  46.368  1.00  0.00     0.037 A 
HETATM   23  C2  UNL     1      33.007   2.667  46.947  1.00  0.00     0.069 A 
HETATM   24  C24 UNL     1      32.170   3.724  47.187  1.00  0.00     0.048 A 
BRANCH  23  25
HETATM   25  O1  UNL     1      32.657   1.373  47.261  1.00  0.00    -0.356 OA
HETATM   26  C1  UNL     1      31.878   0.481  46.555  1.00  0.00     0.210 C 
ENDBRANCH  23  25
ENDBRANCH   1  19
BRANCH  13  27
HETATM   27  C19 UNL     1      25.123   3.468  49.509  1.00  0.00     0.051 C 
BRANCH  27  28
HETATM   28  C20 UNL     1      25.158   3.068  50.944  1.00  0.00     0.114 C 
BRANCH  28  29
HETATM   29  C21 UNL     1      24.252   3.957  51.766  1.00  0.00     0.139 C 
HETATM   30  O2  UNL     1      23.337   3.450  52.501  1.00  0.00    -0.650 OA
BRANCH  29  31
HETATM   31  O3  UNL     1      24.063   5.319  52.020  1.00  0.00    -0.776 OA
HETATM   32  H24 UNL     1      23.332   5.882  51.595  1.00  0.00     0.167 HD
ENDBRANCH  29  31
ENDBRANCH  28  29
ENDBRANCH  27  28
ENDBRANCH  13  27
TORSDOF 6
ENDMDL
