MODEL 1
REMARK VINA RESULT:      -7.8      0.000      0.000
REMARK  5 active torsions:
REMARK  status: ('A' for Active; 'I' for Inactive)
REMARK    1  A    between atoms: C5_7  and  C6_8 
REMARK    2  A    between atoms: C7_9  and  N3_10 
REMARK    3  A    between atoms: N3_10  and  C8_11 
REMARK    4  A    between atoms: C9_13  and  N4_14 
REMARK    5  A    between atoms: N4_14  and  C10_15 
ROOT
HETATM    1  N1  UNL     1      22.325  -1.606  55.300  1.00  0.00    -0.191 NA
HETATM    2  C1  UNL     1      22.325  -0.946  54.328  1.00  0.00     0.103 C 
HETATM    3  C2  UNL     1      22.340  -0.149  53.127  1.00  0.00     0.089 A 
HETATM    4  C3  UNL     1      21.271  -0.130  52.248  1.00  0.00     0.141 A 
HETATM    5  N2  UNL     1      21.255   0.605  51.117  1.00  0.00    -0.271 NA
HETATM    6  C4  UNL     1      22.331   1.369  50.809  1.00  0.00     0.130 A 
HETATM    7  C5  UNL     1      23.416   1.370  51.671  1.00  0.00     0.011 A 
HETATM    8  C9  UNL     1      23.446   0.624  52.830  1.00  0.00     0.067 A 
ENDROOT
BRANCH   8   9
HETATM    9  N4  UNL     1      24.527   0.590  53.742  1.00  0.00    -0.354 N 
HETATM   10  H7  UNL     1      24.164   0.993  54.642  1.00  0.00     0.166 HD
BRANCH   9  11
HETATM   11  C10 UNL     1      25.841   0.138  53.583  1.00  0.00     0.034 A 
HETATM   12  C11 UNL     1      26.046  -1.076  52.954  1.00  0.00     0.032 A 
HETATM   13  C12 UNL     1      27.351  -1.511  52.804  1.00  0.00     0.046 A 
HETATM   14  C13 UNL     1      28.414  -0.768  53.261  1.00  0.00     0.138 A 
HETATM   15  F1  UNL     1      29.713  -1.168  53.128  1.00  0.00    -0.204 F 
HETATM   16  C14 UNL     1      28.168   0.455  53.892  1.00  0.00     0.074 A 
HETATM   17 CL1  UNL     1      29.550   1.395  54.473  1.00  0.00    -0.081 Cl
HETATM   18  C15 UNL     1      26.871   0.932  54.066  1.00  0.00     0.056 A 
ENDBRANCH   9  11
ENDBRANCH   8   9
BRANCH   7  19
HETATM   19  C6  UNL     1      24.573   2.184  51.353  1.00  0.00     0.032 C 
HETATM   20  C7  UNL     1      24.501   3.489  51.136  1.00  0.00     0.091 C 
BRANCH  20  21
HETATM   21  N3  UNL     1      25.560   4.374  50.821  1.00  0.00    -0.344 N 
HETATM   22  H5  UNL     1      25.751   4.865  51.711  1.00  0.00     0.167 HD
BRANCH  21  23
HETATM   23  C8  UNL     1      26.224   4.557  49.556  1.00  0.00     0.352 C 
HETATM   24  O1  UNL     1      27.164   3.742  49.335  1.00  0.00    -0.283 OA
ENDBRANCH  21  23
ENDBRANCH  20  21
ENDBRANCH   7  19
TORSDOF 5
ENDMDL
MODEL 2
REMARK VINA RESULT:      -7.7      3.690      6.294
REMARK  5 active torsions:
REMARK  status: ('A' for Active; 'I' for Inactive)
REMARK    1  A    between atoms: C5_7  and  C6_8 
REMARK    2  A    between atoms: C7_9  and  N3_10 
REMARK    3  A    between atoms: N3_10  and  C8_11 
REMARK    4  A    between atoms: C9_13  and  N4_14 
REMARK    5  A    between atoms: N4_14  and  C10_15 
ROOT
HETATM    1  N1  UNL     1      29.693   2.343  54.746  1.00  0.00    -0.191 NA
HETATM    2  C1  UNL     1      29.161   1.369  54.362  1.00  0.00     0.103 C 
HETATM    3  C2  UNL     1      28.507   0.182  53.872  1.00  0.00     0.089 A 
HETATM    4  C3  UNL     1      29.182  -1.018  53.723  1.00  0.00     0.141 A 
HETATM    5  N2  UNL     1      28.598  -2.145  53.268  1.00  0.00    -0.271 NA
HETATM    6  C4  UNL     1      27.285  -2.121  52.933  1.00  0.00     0.130 A 
HETATM    7  C5  UNL     1      26.583  -0.935  53.072  1.00  0.00     0.011 A 
HETATM    8  C9  UNL     1      27.168   0.225  53.537  1.00  0.00     0.067 A 
ENDROOT
BRANCH   8   9
HETATM    9  N4  UNL     1      26.497   1.460  53.696  1.00  0.00    -0.354 N 
HETATM   10  H7  UNL     1      26.517   1.674  54.726  1.00  0.00     0.166 HD
BRANCH   9  11
HETATM   11  C10 UNL     1      25.896   2.301  52.754  1.00  0.00     0.034 A 
HETATM   12  C11 UNL     1      24.634   2.796  53.026  1.00  0.00     0.032 A 
HETATM   13  C12 UNL     1      24.051   3.626  52.085  1.00  0.00     0.046 A 
HETATM   14  C13 UNL     1      24.699   3.955  50.917  1.00  0.00     0.138 A 
HETATM   15  F1  UNL     1      24.152   4.772  49.969  1.00  0.00    -0.204 F 
HETATM   16  C14 UNL     1      25.974   3.437  50.677  1.00  0.00     0.074 A 
HETATM   17 CL1  UNL     1      26.789   3.872  49.169  1.00  0.00    -0.081 Cl
HETATM   18  C15 UNL     1      26.600   2.596  51.595  1.00  0.00     0.056 A 
ENDBRANCH   9  11
ENDBRANCH   8   9
BRANCH   7  19
HETATM   19  C6  UNL     1      25.178  -0.897  52.719  1.00  0.00     0.032 C 
HETATM   20  C7  UNL     1      24.207  -0.872  53.619  1.00  0.00     0.091 C 
BRANCH  20  21
HETATM   21  N3  UNL     1      22.811  -0.834  53.386  1.00  0.00    -0.344 N 
HETATM   22  H5  UNL     1      22.708  -0.200  52.575  1.00  0.00     0.167 HD
BRANCH  21  23
HETATM   23  C8  UNL     1      21.767  -1.517  54.106  1.00  0.00     0.352 C 
HETATM   24  O1  UNL     1      22.067  -1.832  55.292  1.00  0.00    -0.283 OA
ENDBRANCH  21  23
ENDBRANCH  20  21
ENDBRANCH   7  19
TORSDOF 5
ENDMDL
MODEL 3
REMARK VINA RESULT:      -7.6      3.415      5.312
REMARK  5 active torsions:
REMARK  status: ('A' for Active; 'I' for Inactive)
REMARK    1  A    between atoms: C5_7  and  C6_8 
REMARK    2  A    between atoms: C7_9  and  N3_10 
REMARK    3  A    between atoms: N3_10  and  C8_11 
REMARK    4  A    between atoms: C9_13  and  N4_14 
REMARK    5  A    between atoms: N4_14  and  C10_15 
ROOT
HETATM    1  N1  UNL     1      20.403   0.380  52.015  1.00  0.00    -0.191 NA
HETATM    2  C1  UNL     1      21.237  -0.002  52.749  1.00  0.00     0.103 C 
HETATM    3  C2  UNL     1      22.264  -0.450  53.656  1.00  0.00     0.089 A 
HETATM    4  C3  UNL     1      21.967  -1.174  54.798  1.00  0.00     0.141 A 
HETATM    5  N2  UNL     1      22.905  -1.607  55.665  1.00  0.00    -0.271 NA
HETATM    6  C4  UNL     1      24.209  -1.329  55.423  1.00  0.00     0.130 A 
HETATM    7  C5  UNL     1      24.536  -0.606  54.287  1.00  0.00     0.011 A 
HETATM    8  C9  UNL     1      23.588  -0.157  53.393  1.00  0.00     0.067 A 
ENDROOT
BRANCH   8   9
HETATM    9  N4  UNL     1      23.870   0.584  52.220  1.00  0.00    -0.354 N 
HETATM   10  H7  UNL     1      24.146  -0.120  51.489  1.00  0.00     0.166 HD
BRANCH   9  11
HETATM   11  C10 UNL     1      23.823   1.960  51.977  1.00  0.00     0.034 A 
HETATM   12  C11 UNL     1      23.861   2.820  53.059  1.00  0.00     0.032 A 
HETATM   13  C12 UNL     1      23.814   4.178  52.803  1.00  0.00     0.046 A 
HETATM   14  C13 UNL     1      23.734   4.667  51.520  1.00  0.00     0.138 A 
HETATM   15  F1  UNL     1      23.687   6.001  51.234  1.00  0.00    -0.204 F 
HETATM   16  C14 UNL     1      23.699   3.767  50.451  1.00  0.00     0.074 A 
HETATM   17 CL1  UNL     1      23.597   4.416  48.808  1.00  0.00    -0.081 Cl
HETATM   18  C15 UNL     1      23.743   2.391  50.660  1.00  0.00     0.056 A 
ENDBRANCH   9  11
ENDBRANCH   8   9
BRANCH   7  19
HETATM   19  C6  UNL     1      25.928  -0.303  54.017  1.00  0.00     0.032 C 
HETATM   20  C7  UNL     1      26.746   0.206  54.926  1.00  0.00     0.091 C 
BRANCH  20  21
HETATM   21  N3  UNL     1      28.113   0.539  54.771  1.00  0.00    -0.344 N 
HETATM   22  H5  UNL     1      28.604  -0.106  55.414  1.00  0.00     0.167 HD
BRANCH  21  23
HETATM   23  C8  UNL     1      28.697   1.542  53.918  1.00  0.00     0.352 C 
HETATM   24  O1  UNL     1      29.323   2.452  54.531  1.00  0.00    -0.283 OA
ENDBRANCH  21  23
ENDBRANCH  20  21
ENDBRANCH   7  19
TORSDOF 5
ENDMDL
MODEL 4
REMARK VINA RESULT:      -7.6      2.771      4.964
REMARK  5 active torsions:
REMARK  status: ('A' for Active; 'I' for Inactive)
REMARK    1  A    between atoms: C5_7  and  C6_8 
REMARK    2  A    between atoms: C7_9  and  N3_10 
REMARK    3  A    between atoms: N3_10  and  C8_11 
REMARK    4  A    between atoms: C9_13  and  N4_14 
REMARK    5  A    between atoms: N4_14  and  C10_15 
ROOT
HETATM    1  N1  UNL     1      27.351   4.255  49.283  1.00  0.00    -0.191 NA
HETATM    2  C1  UNL     1      26.294   3.805  49.530  1.00  0.00     0.103 C 
HETATM    3  C2  UNL     1      24.994   3.269  49.847  1.00  0.00     0.089 A 
HETATM    4  C3  UNL     1      23.963   3.258  48.923  1.00  0.00     0.141 A 
HETATM    5  N2  UNL     1      22.736   2.764  49.189  1.00  0.00    -0.271 NA
HETATM    6  C4  UNL     1      22.482   2.249  50.417  1.00  0.00     0.130 A 
HETATM    7  C5  UNL     1      23.495   2.246  51.361  1.00  0.00     0.011 A 
HETATM    8  C9  UNL     1      24.753   2.749  51.103  1.00  0.00     0.067 A 
ENDROOT
BRANCH   8   9
HETATM    9  N4  UNL     1      25.821   2.770  52.032  1.00  0.00    -0.354 N 
HETATM   10  H7  UNL     1      25.870   3.754  52.400  1.00  0.00     0.166 HD
BRANCH   9  11
HETATM   11  C10 UNL     1      26.691   1.756  52.446  1.00  0.00     0.034 A 
HETATM   12  C11 UNL     1      27.828   2.112  53.148  1.00  0.00     0.032 A 
HETATM   13  C12 UNL     1      28.679   1.100  53.551  1.00  0.00     0.046 A 
HETATM   14  C13 UNL     1      28.412  -0.220  53.269  1.00  0.00     0.138 A 
HETATM   15  F1  UNL     1      29.231  -1.242  53.653  1.00  0.00    -0.204 F 
HETATM   16  C14 UNL     1      27.253  -0.542  52.558  1.00  0.00     0.074 A 
HETATM   17 CL1  UNL     1      26.928  -2.245  52.207  1.00  0.00    -0.081 Cl
HETATM   18  C15 UNL     1      26.366   0.444  52.131  1.00  0.00     0.056 A 
ENDBRANCH   9  11
ENDBRANCH   8   9
BRANCH   7  19
HETATM   19  C6  UNL     1      23.236   1.698  52.678  1.00  0.00     0.032 C 
HETATM   20  C7  UNL     1      22.847   0.447  52.875  1.00  0.00     0.091 C 
BRANCH  20  21
HETATM   21  N3  UNL     1      22.567  -0.188  54.109  1.00  0.00    -0.344 N 
HETATM   22  H5  UNL     1      23.249   0.229  54.767  1.00  0.00     0.167 HD
BRANCH  21  23
HETATM   23  C8  UNL     1      21.568  -1.185  54.394  1.00  0.00     0.352 C 
HETATM   24  O1  UNL     1      21.907  -2.034  55.266  1.00  0.00    -0.283 OA
ENDBRANCH  21  23
ENDBRANCH  20  21
ENDBRANCH   7  19
TORSDOF 5
ENDMDL
MODEL 5
REMARK VINA RESULT:      -7.4      2.536      4.791
REMARK  5 active torsions:
REMARK  status: ('A' for Active; 'I' for Inactive)
REMARK    1  A    between atoms: C5_7  and  C6_8 
REMARK    2  A    between atoms: C7_9  and  N3_10 
REMARK    3  A    between atoms: N3_10  and  C8_11 
REMARK    4  A    between atoms: C9_13  and  N4_14 
REMARK    5  A    between atoms: N4_14  and  C10_15 
ROOT
HETATM    1  N1  UNL     1      27.193   4.003  49.166  1.00  0.00    -0.191 NA
HETATM    2  C1  UNL     1      26.242   3.978  49.855  1.00  0.00     0.103 C 
HETATM    3  C2  UNL     1      25.087   3.945  50.718  1.00  0.00     0.089 A 
HETATM    4  C3  UNL     1      24.275   5.052  50.894  1.00  0.00     0.141 A 
HETATM    5  N2  UNL     1      23.188   5.053  51.693  1.00  0.00    -0.271 NA
HETATM    6  C4  UNL     1      22.861   3.924  52.367  1.00  0.00     0.130 A 
HETATM    7  C5  UNL     1      23.656   2.800  52.209  1.00  0.00     0.011 A 
HETATM    8  C9  UNL     1      24.769   2.785  51.395  1.00  0.00     0.067 A 
ENDROOT
BRANCH   8   9
HETATM    9  N4  UNL     1      25.613   1.666  51.201  1.00  0.00    -0.354 N 
HETATM   10  H7  UNL     1      25.408   1.309  50.233  1.00  0.00     0.166 HD
BRANCH   9  11
HETATM   11  C10 UNL     1      26.555   1.075  52.049  1.00  0.00     0.034 A 
HETATM   12  C11 UNL     1      26.541  -0.301  52.189  1.00  0.00     0.032 A 
HETATM   13  C12 UNL     1      27.478  -0.872  53.031  1.00  0.00     0.046 A 
HETATM   14  C13 UNL     1      28.398  -0.105  53.709  1.00  0.00     0.138 A 
HETATM   15  F1  UNL     1      29.336  -0.638  54.546  1.00  0.00    -0.204 F 
HETATM   16  C14 UNL     1      28.382   1.282  53.542  1.00  0.00     0.074 A 
HETATM   17 CL1  UNL     1      29.574   2.249  54.422  1.00  0.00    -0.081 Cl
HETATM   18  C15 UNL     1      27.456   1.901  52.705  1.00  0.00     0.056 A 
ENDBRANCH   9  11
ENDBRANCH   8   9
BRANCH   7  19
HETATM   19  C6  UNL     1      23.316   1.585  52.924  1.00  0.00     0.032 C 
HETATM   20  C7  UNL     1      22.226   0.878  52.667  1.00  0.00     0.091 C 
BRANCH  20  21
HETATM   21  N3  UNL     1      21.799  -0.316  53.298  1.00  0.00    -0.344 N 
HETATM   22  H5  UNL     1      20.828  -0.444  52.964  1.00  0.00     0.167 HD
BRANCH  21  23
HETATM   23  C8  UNL     1      22.538  -1.163  54.198  1.00  0.00     0.352 C 
HETATM   24  O1  UNL     1      21.923  -1.465  55.259  1.00  0.00    -0.283 OA
ENDBRANCH  21  23
ENDBRANCH  20  21
ENDBRANCH   7  19
TORSDOF 5
ENDMDL
MODEL 6
REMARK VINA RESULT:      -7.2      4.394      6.857
REMARK  5 active torsions:
REMARK  status: ('A' for Active; 'I' for Inactive)
REMARK    1  A    between atoms: C5_7  and  C6_8 
REMARK    2  A    between atoms: C7_9  and  N3_10 
REMARK    3  A    between atoms: N3_10  and  C8_11 
REMARK    4  A    between atoms: C9_13  and  N4_14 
REMARK    5  A    between atoms: N4_14  and  C10_15 
ROOT
HETATM    1  N1  UNL     1      27.574   2.450  51.951  1.00  0.00    -0.191 NA
HETATM    2  C1  UNL     1      26.950   1.717  52.625  1.00  0.00     0.103 C 
HETATM    3  C2  UNL     1      26.184   0.804  53.436  1.00  0.00     0.089 A 
HETATM    4  C3  UNL     1      26.728   0.177  54.544  1.00  0.00     0.141 A 
HETATM    5  N2  UNL     1      26.038  -0.682  55.322  1.00  0.00    -0.271 NA
HETATM    6  C4  UNL     1      24.746  -0.957  55.019  1.00  0.00     0.130 A 
HETATM    7  C5  UNL     1      24.175  -0.343  53.916  1.00  0.00     0.011 A 
HETATM    8  C9  UNL     1      24.869   0.536  53.112  1.00  0.00     0.067 A 
ENDROOT
BRANCH   8   9
HETATM    9  N4  UNL     1      24.333   1.188  51.976  1.00  0.00    -0.354 N 
HETATM   10  H7  UNL     1      24.611   0.606  51.145  1.00  0.00     0.166 HD
BRANCH   9  11
HETATM   11  C10 UNL     1      23.579   2.361  51.867  1.00  0.00     0.034 A 
HETATM   12  C11 UNL     1      23.858   3.403  52.732  1.00  0.00     0.032 A 
HETATM   13  C12 UNL     1      23.105   4.557  52.613  1.00  0.00     0.046 A 
HETATM   14  C13 UNL     1      22.110   4.673  51.670  1.00  0.00     0.138 A 
HETATM   15  F1  UNL     1      21.349   5.798  51.527  1.00  0.00    -0.204 F 
HETATM   16  C14 UNL     1      21.856   3.599  50.813  1.00  0.00     0.074 A 
HETATM   17 CL1  UNL     1      20.573   3.769  49.607  1.00  0.00    -0.081 Cl
HETATM   18  C15 UNL     1      22.589   2.417  50.896  1.00  0.00     0.056 A 
ENDBRANCH   9  11
ENDBRANCH   8   9
BRANCH   7  19
HETATM   19  C6  UNL     1      22.793  -0.629  53.582  1.00  0.00     0.032 C 
HETATM   20  C7  UNL     1      21.894  -0.999  54.481  1.00  0.00     0.091 C 
BRANCH  20  21
HETATM   21  N3  UNL     1      20.527  -1.301  54.267  1.00  0.00    -0.344 N 
HETATM   22  H5  UNL     1      20.366  -2.154  54.829  1.00  0.00     0.167 HD
BRANCH  21  23
HETATM   23  C8  UNL     1      19.573  -0.590  53.456  1.00  0.00     0.352 C 
HETATM   24  O1  UNL     1      18.431  -1.127  53.398  1.00  0.00    -0.283 OA
ENDBRANCH  21  23
ENDBRANCH  20  21
ENDBRANCH   7  19
TORSDOF 5
ENDMDL
MODEL 7
REMARK VINA RESULT:      -7.1      3.704      5.720
REMARK  5 active torsions:
REMARK  status: ('A' for Active; 'I' for Inactive)
REMARK    1  A    between atoms: C5_7  and  C6_8 
REMARK    2  A    between atoms: C7_9  and  N3_10 
REMARK    3  A    between atoms: N3_10  and  C8_11 
REMARK    4  A    between atoms: C9_13  and  N4_14 
REMARK    5  A    between atoms: N4_14  and  C10_15 
ROOT
HETATM    1  N1  UNL     1      27.248   0.139  54.070  1.00  0.00    -0.191 NA
HETATM    2  C1  UNL     1      26.119  -0.148  54.224  1.00  0.00     0.103 C 
HETATM    3  C2  UNL     1      24.735  -0.512  54.396  1.00  0.00     0.089 A 
HETATM    4  C3  UNL     1      24.309  -1.280  55.467  1.00  0.00     0.141 A 
HETATM    5  N2  UNL     1      23.022  -1.637  55.656  1.00  0.00    -0.271 NA
HETATM    6  C4  UNL     1      22.086  -1.234  54.763  1.00  0.00     0.130 A 
HETATM    7  C5  UNL     1      22.483  -0.465  53.681  1.00  0.00     0.011 A 
HETATM    8  C9  UNL     1      23.795  -0.093  53.476  1.00  0.00     0.067 A 
ENDROOT
BRANCH   8   9
HETATM    9  N4  UNL     1      24.252   0.690  52.389  1.00  0.00    -0.354 N 
HETATM   10  H7  UNL     1      24.874   0.063  51.817  1.00  0.00     0.166 HD
BRANCH   9  11
HETATM   11  C10 UNL     1      23.995   2.023  52.052  1.00  0.00     0.034 A 
HETATM   12  C11 UNL     1      23.971   2.963  53.066  1.00  0.00     0.032 A 
HETATM   13  C12 UNL     1      23.715   4.277  52.718  1.00  0.00     0.046 A 
HETATM   14  C13 UNL     1      23.493   4.646  51.412  1.00  0.00     0.138 A 
HETATM   15  F1  UNL     1      23.238   5.933  51.036  1.00  0.00    -0.204 F 
HETATM   16  C14 UNL     1      23.526   3.668  50.414  1.00  0.00     0.074 A 
HETATM   17 CL1  UNL     1      23.238   4.163  48.740  1.00  0.00    -0.081 Cl
HETATM   18  C15 UNL     1      23.779   2.332  50.717  1.00  0.00     0.056 A 
ENDBRANCH   9  11
ENDBRANCH   8   9
BRANCH   7  19
HETATM   19  C6  UNL     1      21.491  -0.028  52.719  1.00  0.00     0.032 C 
HETATM   20  C7  UNL     1      20.538   0.845  53.010  1.00  0.00     0.091 C 
BRANCH  20  21
HETATM   21  N3  UNL     1      19.525   1.339  52.153  1.00  0.00    -0.344 N 
HETATM   22  H5  UNL     1      19.001   0.493  51.869  1.00  0.00     0.167 HD
BRANCH  21  23
HETATM   23  C8  UNL     1      19.272   2.701  51.761  1.00  0.00     0.352 C 
HETATM   24  O1  UNL     1      19.957   3.561  52.384  1.00  0.00    -0.283 OA
ENDBRANCH  21  23
ENDBRANCH  20  21
ENDBRANCH   7  19
TORSDOF 5
ENDMDL
MODEL 8
REMARK VINA RESULT:      -6.8      3.687      5.608
REMARK  5 active torsions:
REMARK  status: ('A' for Active; 'I' for Inactive)
REMARK    1  A    between atoms: C5_7  and  C6_8 
REMARK    2  A    between atoms: C7_9  and  N3_10 
REMARK    3  A    between atoms: N3_10  and  C8_11 
REMARK    4  A    between atoms: C9_13  and  N4_14 
REMARK    5  A    between atoms: N4_14  and  C10_15 
ROOT
HETATM    1  N1  UNL     1      21.710   4.529  51.282  1.00  0.00    -0.191 NA
HETATM    2  C1  UNL     1      22.824   4.229  51.059  1.00  0.00     0.103 C 
HETATM    3  C2  UNL     1      24.185   3.841  50.783  1.00  0.00     0.089 A 
HETATM    4  C3  UNL     1      24.858   4.286  49.657  1.00  0.00     0.141 A 
HETATM    5  N2  UNL     1      26.130   3.941  49.371  1.00  0.00    -0.271 NA
HETATM    6  C4  UNL     1      26.799   3.119  50.216  1.00  0.00     0.130 A 
HETATM    7  C5  UNL     1      26.151   2.658  51.350  1.00  0.00     0.011 A 
HETATM    8  C9  UNL     1      24.850   3.002  51.654  1.00  0.00     0.067 A 
ENDROOT
BRANCH   8   9
HETATM    9  N4  UNL     1      24.144   2.559  52.798  1.00  0.00    -0.354 N 
HETATM   10  H7  UNL     1      24.190   3.346  53.494  1.00  0.00     0.166 HD
BRANCH   9  11
HETATM   11  C10 UNL     1      23.487   1.352  53.055  1.00  0.00     0.034 A 
HETATM   12  C11 UNL     1      24.218   0.307  53.590  1.00  0.00     0.032 A 
HETATM   13  C12 UNL     1      23.556  -0.881  53.838  1.00  0.00     0.046 A 
HETATM   14  C13 UNL     1      22.215  -1.028  53.566  1.00  0.00     0.138 A 
HETATM   15  F1  UNL     1      21.532  -2.187  53.799  1.00  0.00    -0.204 F 
HETATM   16  C14 UNL     1      21.508   0.050  53.026  1.00  0.00     0.074 A 
HETATM   17 CL1  UNL     1      19.786  -0.160  52.684  1.00  0.00    -0.081 Cl
HETATM   18  C15 UNL     1      22.134   1.265  52.758  1.00  0.00     0.056 A 
ENDBRANCH   9  11
ENDBRANCH   8   9
BRANCH   7  19
HETATM   19  C6  UNL     1      26.855   1.778  52.261  1.00  0.00     0.032 C 
HETATM   20  C7  UNL     1      27.738   2.213  53.147  1.00  0.00     0.091 C 
BRANCH  20  21
HETATM   21  N3  UNL     1      28.479   1.447  54.080  1.00  0.00    -0.344 N 
HETATM   22  H5  UNL     1      29.392   1.930  54.134  1.00  0.00     0.167 HD
BRANCH  21  23
HETATM   23  C8  UNL     1      28.067   0.266  54.794  1.00  0.00     0.352 C 
HETATM   24  O1  UNL     1      28.345  -0.821  54.215  1.00  0.00    -0.283 OA
ENDBRANCH  21  23
ENDBRANCH  20  21
ENDBRANCH   7  19
TORSDOF 5
ENDMDL
MODEL 9
REMARK VINA RESULT:      -6.6      1.799      2.333
REMARK  5 active torsions:
REMARK  status: ('A' for Active; 'I' for Inactive)
REMARK    1  A    between atoms: C5_7  and  C6_8 
REMARK    2  A    between atoms: C7_9  and  N3_10 
REMARK    3  A    between atoms: N3_10  and  C8_11 
REMARK    4  A    between atoms: C9_13  and  N4_14 
REMARK    5  A    between atoms: N4_14  and  C10_15 
ROOT
HETATM    1  N1  UNL     1      22.185  -1.739  55.337  1.00  0.00    -0.191 NA
HETATM    2  C1  UNL     1      21.766  -1.068  54.469  1.00  0.00     0.103 C 
HETATM    3  C2  UNL     1      21.255  -0.262  53.389  1.00  0.00     0.089 A 
HETATM    4  C3  UNL     1      19.923   0.110  53.321  1.00  0.00     0.141 A 
HETATM    5  N2  UNL     1      19.414   0.864  52.325  1.00  0.00    -0.271 NA
HETATM    6  C4  UNL     1      20.233   1.287  51.331  1.00  0.00     0.130 A 
HETATM    7  C5  UNL     1      21.571   0.930  51.372  1.00  0.00     0.011 A 
HETATM    8  C9  UNL     1      22.104   0.160  52.385  1.00  0.00     0.067 A 
ENDROOT
BRANCH   8   9
HETATM    9  N4  UNL     1      23.461  -0.232  52.473  1.00  0.00    -0.354 N 
HETATM   10  H7  UNL     1      23.493  -1.243  52.186  1.00  0.00     0.166 HD
BRANCH   9  11
HETATM   11  C10 UNL     1      24.597   0.491  52.851  1.00  0.00     0.034 A 
HETATM   12  C11 UNL     1      24.448   1.826  53.175  1.00  0.00     0.032 A 
HETATM   13  C12 UNL     1      25.579   2.529  53.547  1.00  0.00     0.046 A 
HETATM   14  C13 UNL     1      26.816   1.927  53.597  1.00  0.00     0.138 A 
HETATM   15  F1  UNL     1      27.951   2.592  53.961  1.00  0.00    -0.204 F 
HETATM   16  C14 UNL     1      26.928   0.575  53.264  1.00  0.00     0.074 A 
HETATM   17 CL1  UNL     1      28.526  -0.180  53.336  1.00  0.00    -0.081 Cl
HETATM   18  C15 UNL     1      25.816  -0.172  52.883  1.00  0.00     0.056 A 
ENDBRANCH   9  11
ENDBRANCH   8   9
BRANCH   7  19
HETATM   19  C6  UNL     1      22.457   1.376  50.315  1.00  0.00     0.032 C 
HETATM   20  C7  UNL     1      22.773   2.648  50.127  1.00  0.00     0.091 C 
BRANCH  20  21
HETATM   21  N3  UNL     1      23.623   3.192  49.133  1.00  0.00    -0.344 N 
HETATM   22  H5  UNL     1      23.507   2.554  48.326  1.00  0.00     0.167 HD
BRANCH  21  23
HETATM   23  C8  UNL     1      24.460   4.361  49.216  1.00  0.00     0.352 C 
HETATM   24  O1  UNL     1      25.699   4.125  49.153  1.00  0.00    -0.283 OA
ENDBRANCH  21  23
ENDBRANCH  20  21
ENDBRANCH   7  19
TORSDOF 5
ENDMDL
