MODEL 1
REMARK VINA RESULT:      -6.6      0.000      0.000
REMARK  2 active torsions:
REMARK  status: ('A' for Active; 'I' for Inactive)
REMARK    1  A    between atoms: C5_7  and  C6_8 
REMARK    2  A    between atoms: C7_9  and  C8_10 
ROOT
HETATM    1  C1  UNL     1      20.580   0.879  52.130  1.00  0.00     0.000 C 
HETATM    2  O1  UNL     1      21.425   2.015  52.111  1.00  0.00     0.000 OA
HETATM    3  C2  UNL     1      21.466   2.917  51.062  1.00  0.00    -0.042 A 
HETATM    4  C3  UNL     1      22.506   2.909  51.887  1.00  0.00     0.116 A 
HETATM    5  P1  UNL     1      24.066   3.161  52.813  1.00  0.00    -0.123 P 
HETATM    6  C4  UNL     1      25.352   1.920  52.373  1.00  0.00    -0.048 C 
HETATM    7  C5  UNL     1      25.204   0.685  52.806  1.00  0.00     0.008 C 
HETATM    8  C10 UNL     1      26.467   2.429  51.575  1.00  0.00     0.143 C 
HETATM    9  N1  UNL     1      26.056   2.945  50.291  1.00  0.00    -0.418 NA
HETATM   10  C11 UNL     1      25.722   4.167  50.076  1.00  0.00     0.435 C 
HETATM   11  N2  UNL     1      25.291   5.236  49.269  1.00  0.00    -0.272 NA
HETATM   12  C12 UNL     1      24.139   5.299  48.722  1.00  0.00     0.112 C 
HETATM   13  C13 UNL     1      23.252   4.128  49.006  1.00  0.00     0.214 C 
HETATM   14  O2  UNL     1      22.066   4.600  49.470  1.00  0.00    -0.382 OA
HETATM   15  C14 UNL     1      21.138   3.691  49.870  1.00  0.00     0.203 C 
HETATM   16  H5  UNL     1      23.774   3.064  54.256  1.00  0.00     0.052 HD
ENDROOT
BRANCH   7  17
HETATM   17  C6  UNL     1      25.973  -0.547  52.677  1.00  0.00     0.001 C 
HETATM   18  C7  UNL     1      27.173  -0.925  53.080  1.00  0.00     0.001 C 
BRANCH  18  19
HETATM   19  C8  UNL     1      27.618  -2.251  52.766  1.00  0.00     0.007 C 
HETATM   20  C9  UNL     1      28.903  -2.442  52.999  1.00  0.00     0.056 C 
HETATM   21 BR1  UNL     1      29.940  -0.996  53.689  1.00  0.00    -0.064 Br
ENDBRANCH  18  19
ENDBRANCH   7  17
TORSDOF 2
ENDMDL
MODEL 2
REMARK VINA RESULT:      -6.5      2.959      4.311
REMARK  2 active torsions:
REMARK  status: ('A' for Active; 'I' for Inactive)
REMARK    1  A    between atoms: C5_7  and  C6_8 
REMARK    2  A    between atoms: C7_9  and  C8_10 
ROOT
HETATM    1  C1  UNL     1      28.249   5.422  48.482  1.00  0.00     0.000 C 
HETATM    2  O1  UNL     1      26.861   5.170  48.590  1.00  0.00     0.000 OA
HETATM    3  C2  UNL     1      25.914   6.170  48.732  1.00  0.00    -0.042 A 
HETATM    4  C3  UNL     1      25.549   4.944  49.086  1.00  0.00     0.116 A 
HETATM    5  P1  UNL     1      24.729   3.406  49.651  1.00  0.00    -0.123 P 
HETATM    6  C4  UNL     1      25.169   2.973  51.384  1.00  0.00    -0.048 C 
HETATM    7  C5  UNL     1      26.378   2.509  51.626  1.00  0.00     0.008 C 
HETATM    8  C10 UNL     1      24.104   3.168  52.368  1.00  0.00     0.143 C 
HETATM    9  N1  UNL     1      23.674   4.542  52.474  1.00  0.00    -0.418 NA
HETATM   10  C11 UNL     1      22.728   5.058  51.776  1.00  0.00     0.435 C 
HETATM   11  N2  UNL     1      21.883   6.109  51.373  1.00  0.00    -0.272 NA
HETATM   12  C12 UNL     1      22.287   7.161  50.772  1.00  0.00     0.112 C 
HETATM   13  C13 UNL     1      23.761   7.201  50.517  1.00  0.00     0.214 C 
HETATM   14  O2  UNL     1      23.953   7.461  49.197  1.00  0.00    -0.382 OA
HETATM   15  C14 UNL     1      25.230   7.458  48.733  1.00  0.00     0.203 C 
HETATM   16  H5  UNL     1      25.136   2.304  48.758  1.00  0.00     0.052 HD
ENDROOT
BRANCH   7  17
HETATM   17  C6  UNL     1      27.089   2.068  52.820  1.00  0.00     0.001 C 
HETATM   18  C7  UNL     1      27.906   1.063  53.081  1.00  0.00     0.001 C 
BRANCH  18  19
HETATM   19  C8  UNL     1      28.433   0.933  54.408  1.00  0.00     0.007 C 
HETATM   20  C9  UNL     1      29.029  -0.225  54.625  1.00  0.00     0.056 C 
HETATM   21 BR1  UNL     1      29.103  -1.503  53.209  1.00  0.00    -0.064 Br
ENDBRANCH  18  19
ENDBRANCH   7  17
TORSDOF 2
ENDMDL
MODEL 3
REMARK VINA RESULT:      -6.3      2.042      2.742
REMARK  2 active torsions:
REMARK  status: ('A' for Active; 'I' for Inactive)
REMARK    1  A    between atoms: C5_7  and  C6_8 
REMARK    2  A    between atoms: C7_9  and  C8_10 
ROOT
HETATM    1  C1  UNL     1      20.690   0.251  54.030  1.00  0.00     0.000 C 
HETATM    2  O1  UNL     1      20.750   1.336  53.123  1.00  0.00     0.000 OA
HETATM    3  C2  UNL     1      20.318   1.258  51.810  1.00  0.00    -0.042 A 
HETATM    4  C3  UNL     1      21.150   2.248  52.110  1.00  0.00     0.116 A 
HETATM    5  P1  UNL     1      22.262   3.703  52.176  1.00  0.00    -0.123 P 
HETATM    6  C4  UNL     1      24.039   3.233  52.080  1.00  0.00    -0.048 C 
HETATM    7  C5  UNL     1      24.594   2.664  53.130  1.00  0.00     0.008 C 
HETATM    8  C10 UNL     1      24.705   3.556  50.818  1.00  0.00     0.143 C 
HETATM    9  N1  UNL     1      24.126   2.882  49.681  1.00  0.00    -0.418 NA
HETATM   10  C11 UNL     1      23.172   3.361  48.966  1.00  0.00     0.435 C 
HETATM   11  N2  UNL     1      22.247   3.325  47.906  1.00  0.00    -0.272 NA
HETATM   12  C12 UNL     1      21.280   2.494  47.829  1.00  0.00     0.112 C 
HETATM   13  C13 UNL     1      21.194   1.534  48.975  1.00  0.00     0.214 C 
HETATM   14  O2  UNL     1      19.930   1.583  49.471  1.00  0.00    -0.382 OA
HETATM   15  C14 UNL     1      19.659   0.842  50.577  1.00  0.00     0.203 C 
HETATM   16  H5  UNL     1      22.019   4.420  53.443  1.00  0.00     0.052 HD
ENDROOT
BRANCH   7  17
HETATM   17  C6  UNL     1      25.926   2.160  53.441  1.00  0.00     0.001 C 
HETATM   18  C7  UNL     1      26.378   1.082  54.057  1.00  0.00     0.001 C 
BRANCH  18  19
HETATM   19  C8  UNL     1      27.795   0.907  54.186  1.00  0.00     0.007 C 
HETATM   20  C9  UNL     1      28.241  -0.197  53.617  1.00  0.00     0.056 C 
HETATM   21 BR1  UNL     1      26.998  -1.351  52.742  1.00  0.00    -0.064 Br
ENDBRANCH  18  19
ENDBRANCH   7  17
TORSDOF 2
ENDMDL
MODEL 4
REMARK VINA RESULT:      -6.1      1.192      1.339
REMARK  2 active torsions:
REMARK  status: ('A' for Active; 'I' for Inactive)
REMARK    1  A    between atoms: C5_7  and  C6_8 
REMARK    2  A    between atoms: C7_9  and  C8_10 
ROOT
HETATM    1  C1  UNL     1      19.877   1.980  52.422  1.00  0.00     0.000 C 
HETATM    2  O1  UNL     1      20.711   3.087  52.134  1.00  0.00     0.000 OA
HETATM    3  C2  UNL     1      20.621   3.827  50.968  1.00  0.00    -0.042 A 
HETATM    4  C3  UNL     1      21.755   3.921  51.651  1.00  0.00     0.116 A 
HETATM    5  P1  UNL     1      23.418   4.278  52.333  1.00  0.00    -0.123 P 
HETATM    6  C4  UNL     1      24.640   2.965  51.924  1.00  0.00    -0.048 C 
HETATM    7  C5  UNL     1      24.549   1.808  52.547  1.00  0.00     0.008 C 
HETATM    8  C10 UNL     1      25.648   3.334  50.929  1.00  0.00     0.143 C 
HETATM    9  N1  UNL     1      25.081   3.666  49.644  1.00  0.00    -0.418 NA
HETATM   10  C11 UNL     1      24.722   4.849  49.296  1.00  0.00     0.435 C 
HETATM   11  N2  UNL     1      24.193   5.797  48.401  1.00  0.00    -0.272 NA
HETATM   12  C12 UNL     1      22.982   5.800  47.996  1.00  0.00     0.112 C 
HETATM   13  C13 UNL     1      22.138   4.697  48.554  1.00  0.00     0.214 C 
HETATM   14  O2  UNL     1      21.018   5.252  49.086  1.00  0.00    -0.382 OA
HETATM   15  C14 UNL     1      20.148   4.426  49.725  1.00  0.00     0.203 C 
HETATM   16  H5  UNL     1      23.306   4.395  53.799  1.00  0.00     0.052 HD
ENDROOT
BRANCH   7  17
HETATM   17  C6  UNL     1      25.297   0.557  52.506  1.00  0.00     0.001 C 
HETATM   18  C7  UNL     1      26.512   0.203  52.886  1.00  0.00     0.001 C 
BRANCH  18  19
HETATM   19  C8  UNL     1      26.927  -1.154  52.685  1.00  0.00     0.007 C 
HETATM   20  C9  UNL     1      28.164  -1.389  53.083  1.00  0.00     0.056 C 
HETATM   21 BR1  UNL     1      29.179   0.043  53.833  1.00  0.00    -0.064 Br
ENDBRANCH  18  19
ENDBRANCH   7  17
TORSDOF 2
ENDMDL
MODEL 5
REMARK VINA RESULT:      -6.0      3.989      6.637
REMARK  2 active torsions:
REMARK  status: ('A' for Active; 'I' for Inactive)
REMARK    1  A    between atoms: C5_7  and  C6_8 
REMARK    2  A    between atoms: C7_9  and  C8_10 
ROOT
HETATM    1  C1  UNL     1      23.409   4.507  48.630  1.00  0.00     0.000 C 
HETATM    2  O1  UNL     1      23.903   4.273  49.935  1.00  0.00     0.000 OA
HETATM    3  C2  UNL     1      25.173   3.788  50.194  1.00  0.00    -0.042 A 
HETATM    4  C3  UNL     1      24.277   3.670  51.166  1.00  0.00     0.116 A 
HETATM    5  P1  UNL     1      23.311   3.356  52.690  1.00  0.00    -0.123 P 
HETATM    6  C4  UNL     1      22.280   1.837  52.568  1.00  0.00    -0.048 C 
HETATM    7  C5  UNL     1      21.208   1.868  51.803  1.00  0.00     0.008 C 
HETATM    8  C10 UNL     1      22.741   0.701  53.366  1.00  0.00     0.143 C 
HETATM    9  N1  UNL     1      24.054   0.237  52.988  1.00  0.00    -0.418 NA
HETATM   10  C11 UNL     1      25.149   0.670  53.500  1.00  0.00     0.435 C 
HETATM   11  N2  UNL     1      26.549   0.713  53.641  1.00  0.00    -0.272 NA
HETATM   12  C12 UNL     1      27.347   1.113  52.728  1.00  0.00     0.112 C 
HETATM   13  C13 UNL     1      26.675   1.548  51.463  1.00  0.00     0.214 C 
HETATM   14  O2  UNL     1      27.127   2.790  51.151  1.00  0.00    -0.382 OA
HETATM   15  C14 UNL     1      26.577   3.409  50.074  1.00  0.00     0.203 C 
HETATM   16  H5  UNL     1      22.435   4.517  52.936  1.00  0.00     0.052 HD
ENDROOT
BRANCH   7  17
HETATM   17  C6  UNL     1      20.169   0.908  51.452  1.00  0.00     0.001 C 
HETATM   18  C7  UNL     1      18.849   0.923  51.510  1.00  0.00     0.001 C 
BRANCH  18  19
HETATM   19  C8  UNL     1      18.128  -0.234  51.067  1.00  0.00     0.007 C 
HETATM   20  C9  UNL     1      17.267   0.023  50.100  1.00  0.00     0.056 C 
HETATM   21 BR1  UNL     1      17.109   1.813  49.457  1.00  0.00    -0.064 Br
ENDBRANCH  18  19
ENDBRANCH   7  17
TORSDOF 2
ENDMDL
MODEL 6
REMARK VINA RESULT:      -6.0      3.688      4.844
REMARK  2 active torsions:
REMARK  status: ('A' for Active; 'I' for Inactive)
REMARK    1  A    between atoms: C5_7  and  C6_8 
REMARK    2  A    between atoms: C7_9  and  C8_10 
ROOT
HETATM    1  C1  UNL     1      26.663   2.917  50.499  1.00  0.00     0.000 C 
HETATM    2  O1  UNL     1      25.514   3.453  49.869  1.00  0.00     0.000 OA
HETATM    3  C2  UNL     1      25.165   4.790  49.929  1.00  0.00    -0.042 A 
HETATM    4  C3  UNL     1      24.206   3.936  49.597  1.00  0.00     0.116 A 
HETATM    5  P1  UNL     1      22.676   3.050  49.116  1.00  0.00    -0.123 P 
HETATM    6  C4  UNL     1      21.812   2.308  50.561  1.00  0.00    -0.048 C 
HETATM    7  C5  UNL     1      22.341   1.244  51.129  1.00  0.00     0.008 C 
HETATM    8  C10 UNL     1      20.567   2.970  50.955  1.00  0.00     0.143 C 
HETATM    9  N1  UNL     1      20.757   4.343  51.356  1.00  0.00    -0.418 NA
HETATM   10  C11 UNL     1      20.698   5.345  50.555  1.00  0.00     0.435 C 
HETATM   11  N2  UNL     1      20.757   6.715  50.239  1.00  0.00    -0.272 NA
HETATM   12  C12 UNL     1      21.816   7.423  50.323  1.00  0.00     0.112 C 
HETATM   13  C13 UNL     1      23.026   6.677  50.794  1.00  0.00     0.214 C 
HETATM   14  O2  UNL     1      24.029   6.897  49.904  1.00  0.00    -0.382 OA
HETATM   15  C14 UNL     1      25.201   6.239  50.101  1.00  0.00     0.203 C 
HETATM   16  H5  UNL     1      23.034   1.981  48.165  1.00  0.00     0.052 HD
ENDROOT
BRANCH   7  17
HETATM   17  C6  UNL     1      21.977   0.392  52.255  1.00  0.00     0.001 C 
HETATM   18  C7  UNL     1      22.261   0.407  53.545  1.00  0.00     0.001 C 
BRANCH  18  19
HETATM   19  C8  UNL     1      21.713  -0.619  54.382  1.00  0.00     0.007 C 
HETATM   20  C9  UNL     1      22.629  -1.309  55.035  1.00  0.00     0.056 C 
HETATM   21 BR1  UNL     1      24.469  -0.865  54.787  1.00  0.00    -0.064 Br
ENDBRANCH  18  19
ENDBRANCH   7  17
TORSDOF 2
ENDMDL
MODEL 7
REMARK VINA RESULT:      -6.0      4.332      7.471
REMARK  2 active torsions:
REMARK  status: ('A' for Active; 'I' for Inactive)
REMARK    1  A    between atoms: C5_7  and  C6_8 
REMARK    2  A    between atoms: C7_9  and  C8_10 
ROOT
HETATM    1  C1  UNL     1      26.743   1.608  51.559  1.00  0.00     0.000 C 
HETATM    2  O1  UNL     1      25.522   1.706  52.268  1.00  0.00     0.000 OA
HETATM    3  C2  UNL     1      24.983   0.668  53.007  1.00  0.00    -0.042 A 
HETATM    4  C3  UNL     1      24.155   1.640  52.648  1.00  0.00     0.116 A 
HETATM    5  P1  UNL     1      22.765   2.791  52.330  1.00  0.00    -0.123 P 
HETATM    6  C4  UNL     1      22.033   2.562  50.657  1.00  0.00    -0.048 C 
HETATM    7  C5  UNL     1      22.718   2.978  49.612  1.00  0.00     0.008 C 
HETATM    8  C10 UNL     1      20.710   1.937  50.632  1.00  0.00     0.143 C 
HETATM    9  N1  UNL     1      20.703   0.601  51.178  1.00  0.00    -0.418 NA
HETATM   10  C11 UNL     1      20.490   0.328  52.415  1.00  0.00     0.435 C 
HETATM   11  N2  UNL     1      20.346  -0.546  53.509  1.00  0.00    -0.272 NA
HETATM   12  C12 UNL     1      21.291  -1.261  53.982  1.00  0.00     0.112 C 
HETATM   13  C13 UNL     1      22.601  -1.104  53.275  1.00  0.00     0.214 C 
HETATM   14  O2  UNL     1      23.552  -0.830  54.206  1.00  0.00    -0.382 OA
HETATM   15  C14 UNL     1      24.810  -0.567  53.764  1.00  0.00     0.203 C 
HETATM   16  H5  UNL     1      23.264   4.173  52.455  1.00  0.00     0.052 HD
ENDROOT
BRANCH   7  17
HETATM   17  C6  UNL     1      22.494   2.979  48.171  1.00  0.00     0.001 C 
HETATM   18  C7  UNL     1      21.993   3.858  47.322  1.00  0.00     0.001 C 
BRANCH  18  19
HETATM   19  C8  UNL     1      21.923   3.510  45.933  1.00  0.00     0.007 C 
HETATM   20  C9  UNL     1      21.898   4.557  45.130  1.00  0.00     0.056 C 
HETATM   21 BR1  UNL     1      21.956   6.306  45.893  1.00  0.00    -0.064 Br
ENDBRANCH  18  19
ENDBRANCH   7  17
TORSDOF 2
ENDMDL
MODEL 8
REMARK VINA RESULT:      -5.9      7.067      9.436
REMARK  2 active torsions:
REMARK  status: ('A' for Active; 'I' for Inactive)
REMARK    1  A    between atoms: C5_7  and  C6_8 
REMARK    2  A    between atoms: C7_9  and  C8_10 
ROOT
HETATM    1  C1  UNL     1      32.450   6.823  46.432  1.00  0.00     0.000 C 
HETATM    2  O1  UNL     1      31.438   7.810  46.364  1.00  0.00     0.000 OA
HETATM    3  C2  UNL     1      31.580   9.086  46.882  1.00  0.00    -0.042 A 
HETATM    4  C3  UNL     1      30.342   8.664  46.660  1.00  0.00     0.116 A 
HETATM    5  P1  UNL     1      28.537   8.407  46.476  1.00  0.00    -0.123 P 
HETATM    6  C4  UNL     1      27.820   7.447  47.872  1.00  0.00    -0.048 C 
HETATM    7  C5  UNL     1      28.074   6.157  47.941  1.00  0.00     0.008 C 
HETATM    8  C10 UNL     1      26.990   8.216  48.801  1.00  0.00     0.143 C 
HETATM    9  N1  UNL     1      27.714   9.272  49.467  1.00  0.00    -0.418 NA
HETATM   10  C11 UNL     1      27.817  10.472  49.019  1.00  0.00     0.435 C 
HETATM   11  N2  UNL     1      28.260  11.806  49.072  1.00  0.00    -0.272 NA
HETATM   12  C12 UNL     1      29.485  12.157  48.998  1.00  0.00     0.112 C 
HETATM   13  C13 UNL     1      30.447  11.020  48.846  1.00  0.00     0.214 C 
HETATM   14  O2  UNL     1      31.241  11.280  47.774  1.00  0.00    -0.382 OA
HETATM   15  C14 UNL     1      32.137  10.328  47.407  1.00  0.00     0.203 C 
HETATM   16  H5  UNL     1      28.294   7.681  45.215  1.00  0.00     0.052 HD
ENDROOT
BRANCH   7  17
HETATM   17  C6  UNL     1      27.707   5.085  48.859  1.00  0.00     0.001 C 
HETATM   18  C7  UNL     1      26.577   4.456  49.128  1.00  0.00     0.001 C 
BRANCH  18  19
HETATM   19  C8  UNL     1      26.585   3.422  50.121  1.00  0.00     0.007 C 
HETATM   20  C9  UNL     1      25.384   2.947  50.393  1.00  0.00     0.056 C 
HETATM   21 BR1  UNL     1      23.876   3.666  49.471  1.00  0.00    -0.064 Br
ENDBRANCH  18  19
ENDBRANCH   7  17
TORSDOF 2
ENDMDL
MODEL 9
REMARK VINA RESULT:      -5.9      8.482     11.119
REMARK  2 active torsions:
REMARK  status: ('A' for Active; 'I' for Inactive)
REMARK    1  A    between atoms: C5_7  and  C6_8 
REMARK    2  A    between atoms: C7_9  and  C8_10 
ROOT
HETATM    1  C1  UNL     1      31.969   8.460  43.413  1.00  0.00     0.000 C 
HETATM    2  O1  UNL     1      32.753   7.937  44.468  1.00  0.00     0.000 OA
HETATM    3  C2  UNL     1      33.466   6.754  44.375  1.00  0.00    -0.042 A 
HETATM    4  C3  UNL     1      33.210   7.204  45.597  1.00  0.00     0.116 A 
HETATM    5  P1  UNL     1      33.038   7.533  47.390  1.00  0.00    -0.123 P 
HETATM    6  C4  UNL     1      31.401   7.007  48.047  1.00  0.00    -0.048 C 
HETATM    7  C5  UNL     1      30.341   7.724  47.735  1.00  0.00     0.008 C 
HETATM    8  C10 UNL     1      31.421   5.816  48.896  1.00  0.00     0.143 C 
HETATM    9  N1  UNL     1      31.894   4.637  48.211  1.00  0.00    -0.418 NA
HETATM   10  C11 UNL     1      33.124   4.272  48.166  1.00  0.00     0.435 C 
HETATM   11  N2  UNL     1      34.176   3.420  47.781  1.00  0.00    -0.272 NA
HETATM   12  C12 UNL     1      34.553   3.249  46.573  1.00  0.00     0.112 C 
HETATM   13  C13 UNL     1      33.779   4.039  45.565  1.00  0.00     0.214 C 
HETATM   14  O2  UNL     1      34.665   4.726  44.798  1.00  0.00    -0.382 OA
HETATM   15  C14 UNL     1      34.164   5.578  43.866  1.00  0.00     0.203 C 
HETATM   16  H5  UNL     1      33.207   8.981  47.618  1.00  0.00     0.052 HD
ENDROOT
BRANCH   7  17
HETATM   17  C6  UNL     1      28.919   7.641  48.043  1.00  0.00     0.001 C 
HETATM   18  C7  UNL     1      27.994   6.715  47.862  1.00  0.00     0.001 C 
BRANCH  18  19
HETATM   19  C8  UNL     1      26.656   6.983  48.302  1.00  0.00     0.007 C 
HETATM   20  C9  UNL     1      26.087   5.958  48.907  1.00  0.00     0.056 C 
HETATM   21 BR1  UNL     1      27.076   4.337  49.102  1.00  0.00    -0.064 Br
ENDBRANCH  18  19
ENDBRANCH   7  17
TORSDOF 2
ENDMDL
