MODEL 1
REMARK VINA RESULT:      -9.1      0.000      0.000
REMARK  0 active torsions:
REMARK  status: ('A' for Active; 'I' for Inactive)
ROOT
HETATM    1  C1  UNL     1      19.096  -0.859  53.363  1.00  0.00     0.027 C 
HETATM    2  C2  UNL     1      20.440  -0.155  53.323  1.00  0.00     0.005 C 
HETATM    3  C3  UNL     1      21.776  -0.060  53.579  1.00  0.00     0.094 C 
HETATM    4  C4  UNL     1      22.703  -1.010  54.257  1.00  0.00     0.023 C 
HETATM    5  C5  UNL     1      23.955  -0.816  54.433  1.00  0.00     0.115 C 
HETATM    6  F1  UNL     1      24.961  -1.519  55.008  1.00  0.00    -0.206 F 
HETATM    7  C6  UNL     1      25.077   0.016  54.199  1.00  0.00     0.071 C 
HETATM    8  C7  UNL     1      26.191   0.664  54.072  1.00  0.00     0.065 C 
HETATM    9  N1  UNL     1      27.236  -0.024  54.734  1.00  0.00    -0.246 NA
HETATM   10  C8  UNL     1      28.291   0.748  54.865  1.00  0.00     0.203 C 
HETATM   11  N2  UNL     1      27.952   2.014  54.270  1.00  0.00    -0.371 N 
HETATM   12  C9  UNL     1      26.763   1.884  53.447  1.00  0.00     0.157 C 
HETATM   13  C10 UNL     1      27.102   1.616  52.018  1.00  0.00     0.002 C 
HETATM   14  C11 UNL     1      26.610   2.078  50.874  1.00  0.00    -0.003 C 
HETATM   15  C12 UNL     1      25.513   3.060  50.901  1.00  0.00     0.194 C 
HETATM   16  O1  UNL     1      24.342   2.618  50.276  1.00  0.00    -0.387 OA
HETATM   17  C13 UNL     1      23.371   3.644  50.329  1.00  0.00     0.168 C 
HETATM   18  C14 UNL     1      22.037   3.097  49.861  1.00  0.00     0.030 C 
HETATM   19  C15 UNL     1      21.711   1.978  50.912  1.00  0.00     0.030 C 
HETATM   20  C16 UNL     1      21.799   2.803  52.175  1.00  0.00    -0.014 C 
HETATM   21  C17 UNL     1      20.613   3.381  52.361  1.00  0.00    -0.019 C 
HETATM   22  C18 UNL     1      19.646   2.451  52.342  1.00  0.00     0.069 C 
HETATM   23  N3  UNL     1      20.075   1.113  52.693  1.00  0.00    -0.296 NA
HETATM   24  H8  UNL     1      28.430   2.932  54.363  1.00  0.00     0.161 HD
HETATM   25  H22 UNL     1      19.818   1.476  53.685  1.00  0.00     0.127 HD
ENDROOT
TORSDOF 0
ENDMDL
MODEL 2
REMARK VINA RESULT:      -8.5      2.637      5.876
REMARK  0 active torsions:
REMARK  status: ('A' for Active; 'I' for Inactive)
ROOT
HETATM    1  C1  UNL     1      23.052  -1.397  55.395  1.00  0.00     0.027 C 
HETATM    2  C2  UNL     1      23.216  -0.689  54.062  1.00  0.00     0.005 C 
HETATM    3  C3  UNL     1      22.745  -0.090  52.932  1.00  0.00     0.094 C 
HETATM    4  C4  UNL     1      21.347   0.145  52.471  1.00  0.00     0.023 C 
HETATM    5  C5  UNL     1      21.021   0.734  51.384  1.00  0.00     0.115 C 
HETATM    6  F1  UNL     1      19.849   1.047  50.779  1.00  0.00    -0.206 F 
HETATM    7  C6  UNL     1      21.453   1.430  50.229  1.00  0.00     0.071 C 
HETATM    8  C7  UNL     1      21.687   2.076  49.131  1.00  0.00     0.065 C 
HETATM    9  N1  UNL     1      20.474   2.344  48.452  1.00  0.00    -0.246 NA
HETATM   10  C8  UNL     1      20.708   2.731  47.218  1.00  0.00     0.203 C 
HETATM   11  N2  UNL     1      22.137   2.727  47.048  1.00  0.00    -0.371 N 
HETATM   12  C9  UNL     1      22.800   2.659  48.338  1.00  0.00     0.157 C 
HETATM   13  C10 UNL     1      23.143   4.016  48.858  1.00  0.00     0.002 C 
HETATM   14  C11 UNL     1      24.219   4.501  49.468  1.00  0.00    -0.003 C 
HETATM   15  C12 UNL     1      25.366   3.615  49.727  1.00  0.00     0.194 C 
HETATM   16  O1  UNL     1      25.674   3.470  51.084  1.00  0.00    -0.387 OA
HETATM   17  C13 UNL     1      26.804   2.632  51.217  1.00  0.00     0.168 C 
HETATM   18  C14 UNL     1      27.004   2.288  52.680  1.00  0.00     0.030 C 
HETATM   19  C15 UNL     1      25.695   1.508  53.055  1.00  0.00     0.030 C 
HETATM   20  C16 UNL     1      25.750   0.426  52.000  1.00  0.00    -0.014 C 
HETATM   21  C17 UNL     1      26.519  -0.555  52.471  1.00  0.00    -0.019 C 
HETATM   22  C18 UNL     1      26.075  -0.943  53.676  1.00  0.00     0.069 C 
HETATM   23  N3  UNL     1      24.672  -0.682  53.925  1.00  0.00    -0.296 NA
HETATM   24  H8  UNL     1      22.694   2.762  46.171  1.00  0.00     0.161 HD
HETATM   25  H22 UNL     1      24.587  -1.673  53.485  1.00  0.00     0.127 HD
ENDROOT
TORSDOF 0
ENDMDL
MODEL 3
REMARK VINA RESULT:      -8.5      1.184      1.272
REMARK  0 active torsions:
REMARK  status: ('A' for Active; 'I' for Inactive)
ROOT
HETATM    1  C1  UNL     1      18.457   0.136  51.617  1.00  0.00     0.027 C 
HETATM    2  C2  UNL     1      19.847   0.697  51.854  1.00  0.00     0.005 C 
HETATM    3  C3  UNL     1      21.130   0.627  52.309  1.00  0.00     0.094 C 
HETATM    4  C4  UNL     1      21.855  -0.478  52.999  1.00  0.00     0.023 C 
HETATM    5  C5  UNL     1      23.076  -0.434  53.375  1.00  0.00     0.115 C 
HETATM    6  F1  UNL     1      23.916  -1.293  54.004  1.00  0.00    -0.206 F 
HETATM    7  C6  UNL     1      24.289   0.297  53.404  1.00  0.00     0.071 C 
HETATM    8  C7  UNL     1      25.461   0.835  53.516  1.00  0.00     0.065 C 
HETATM    9  N1  UNL     1      26.327  -0.021  54.237  1.00  0.00    -0.246 NA
HETATM   10  C8  UNL     1      27.412   0.620  54.608  1.00  0.00     0.203 C 
HETATM   11  N2  UNL     1      27.281   1.969  54.122  1.00  0.00    -0.371 N 
HETATM   12  C9  UNL     1      26.227   2.047  53.127  1.00  0.00     0.157 C 
HETATM   13  C10 UNL     1      26.759   1.893  51.740  1.00  0.00     0.002 C 
HETATM   14  C11 UNL     1      26.492   2.517  50.599  1.00  0.00    -0.003 C 
HETATM   15  C12 UNL     1      25.495   3.600  50.581  1.00  0.00     0.194 C 
HETATM   16  O1  UNL     1      24.400   3.348  49.747  1.00  0.00    -0.387 OA
HETATM   17  C13 UNL     1      23.526   4.458  49.778  1.00  0.00     0.168 C 
HETATM   18  C14 UNL     1      22.238   4.103  49.061  1.00  0.00     0.030 C 
HETATM   19  C15 UNL     1      21.657   2.922  49.916  1.00  0.00     0.030 C 
HETATM   20  C16 UNL     1      21.620   3.600  51.267  1.00  0.00    -0.014 C 
HETATM   21  C17 UNL     1      20.474   4.276  51.345  1.00  0.00    -0.019 C 
HETATM   22  C18 UNL     1      19.444   3.459  51.079  1.00  0.00     0.069 C 
HETATM   23  N3  UNL     1      19.696   2.054  51.330  1.00  0.00    -0.296 NA
HETATM   24  H8  UNL     1      27.817   2.818  54.389  1.00  0.00     0.161 HD
HETATM   25  H22 UNL     1      19.321   2.339  52.310  1.00  0.00     0.127 HD
ENDROOT
TORSDOF 0
ENDMDL
MODEL 4
REMARK VINA RESULT:      -8.1      1.789      6.038
REMARK  0 active torsions:
REMARK  status: ('A' for Active; 'I' for Inactive)
ROOT
HETATM    1  C1  UNL     1      26.712  -0.108  54.900  1.00  0.00     0.027 C 
HETATM    2  C2  UNL     1      25.445   0.144  54.102  1.00  0.00     0.005 C 
HETATM    3  C3  UNL     1      24.123  -0.037  53.822  1.00  0.00     0.094 C 
HETATM    4  C4  UNL     1      23.100  -0.892  54.486  1.00  0.00     0.023 C 
HETATM    5  C5  UNL     1      21.872  -0.975  54.138  1.00  0.00     0.115 C 
HETATM    6  F1  UNL     1      20.795  -1.669  54.582  1.00  0.00    -0.206 F 
HETATM    7  C6  UNL     1      20.841  -0.510  53.286  1.00  0.00     0.071 C 
HETATM    8  C7  UNL     1      19.798  -0.194  52.586  1.00  0.00     0.065 C 
HETATM    9  N1  UNL     1      18.684  -0.967  52.991  1.00  0.00    -0.246 NA
HETATM   10  C8  UNL     1      17.710  -0.873  52.113  1.00  0.00     0.203 C 
HETATM   11  N2  UNL     1      18.179  -0.002  51.068  1.00  0.00    -0.371 N 
HETATM   12  C9  UNL     1      19.357   0.725  51.505  1.00  0.00     0.157 C 
HETATM   13  C10 UNL     1      19.006   2.058  52.079  1.00  0.00     0.002 C 
HETATM   14  C11 UNL     1      19.552   3.262  51.957  1.00  0.00    -0.003 C 
HETATM   15  C12 UNL     1      20.741   3.436  51.107  1.00  0.00     0.194 C 
HETATM   16  O1  UNL     1      21.868   3.897  51.795  1.00  0.00    -0.387 OA
HETATM   17  C13 UNL     1      22.936   4.061  50.884  1.00  0.00     0.168 C 
HETATM   18  C14 UNL     1      24.213   4.339  51.652  1.00  0.00     0.030 C 
HETATM   19  C15 UNL     1      24.416   3.039  52.508  1.00  0.00     0.030 C 
HETATM   20  C16 UNL     1      24.399   2.015  51.397  1.00  0.00    -0.014 C 
HETATM   21  C17 UNL     1      25.635   1.935  50.906  1.00  0.00    -0.019 C 
HETATM   22  C18 UNL     1      26.505   1.698  51.899  1.00  0.00     0.069 C 
HETATM   23  N3  UNL     1      25.940   1.049  53.066  1.00  0.00    -0.296 NA
HETATM   24  H8  UNL     1      17.794   0.144  50.113  1.00  0.00     0.161 HD
HETATM   25  H22 UNL     1      26.224   0.165  52.498  1.00  0.00     0.127 HD
ENDROOT
TORSDOF 0
ENDMDL
MODEL 5
REMARK VINA RESULT:      -8.0      3.233      5.940
REMARK  0 active torsions:
REMARK  status: ('A' for Active; 'I' for Inactive)
ROOT
HETATM    1  C1  UNL     1      26.018  -1.127  52.816  1.00  0.00     0.027 C 
HETATM    2  C2  UNL     1      25.077   0.053  52.653  1.00  0.00     0.005 C 
HETATM    3  C3  UNL     1      24.768   1.322  52.263  1.00  0.00     0.094 C 
HETATM    4  C4  UNL     1      25.606   2.368  51.611  1.00  0.00     0.023 C 
HETATM    5  C5  UNL     1      25.200   3.533  51.277  1.00  0.00     0.115 C 
HETATM    6  F1  UNL     1      25.771   4.615  50.692  1.00  0.00    -0.206 F 
HETATM    7  C6  UNL     1      24.113   4.436  51.185  1.00  0.00     0.071 C 
HETATM    8  C7  UNL     1      23.228   5.371  51.038  1.00  0.00     0.065 C 
HETATM    9  N1  UNL     1      23.829   6.532  50.497  1.00  0.00    -0.246 NA
HETATM   10  C8  UNL     1      23.026   7.567  50.612  1.00  0.00     0.203 C 
HETATM   11  N2  UNL     1      21.831   7.091  51.258  1.00  0.00    -0.371 N 
HETATM   12  C9  UNL     1      21.779   5.642  51.224  1.00  0.00     0.157 C 
HETATM   13  C10 UNL     1      21.010   5.141  50.046  1.00  0.00     0.002 C 
HETATM   14  C11 UNL     1      20.121   4.165  49.901  1.00  0.00    -0.003 C 
HETATM   15  C12 UNL     1      19.736   3.355  51.068  1.00  0.00     0.194 C 
HETATM   16  O1  UNL     1      20.029   1.993  50.935  1.00  0.00    -0.387 OA
HETATM   17  C13 UNL     1      19.591   1.307  52.090  1.00  0.00     0.168 C 
HETATM   18  C14 UNL     1      20.105  -0.119  52.053  1.00  0.00     0.030 C 
HETATM   19  C15 UNL     1      21.665   0.054  52.075  1.00  0.00     0.030 C 
HETATM   20  C16 UNL     1      21.796   0.882  53.333  1.00  0.00    -0.014 C 
HETATM   21  C17 UNL     1      21.833   0.041  54.366  1.00  0.00    -0.019 C 
HETATM   22  C18 UNL     1      22.793  -0.876  54.172  1.00  0.00     0.069 C 
HETATM   23  N3  UNL     1      23.867  -0.462  53.292  1.00  0.00    -0.296 NA
HETATM   24  H8  UNL     1      21.069   7.635  51.709  1.00  0.00     0.161 HD
HETATM   25  H22 UNL     1      24.277  -0.115  54.238  1.00  0.00     0.127 HD
ENDROOT
TORSDOF 0
ENDMDL
MODEL 6
REMARK VINA RESULT:      -7.9      2.652      4.945
REMARK  0 active torsions:
REMARK  status: ('A' for Active; 'I' for Inactive)
ROOT
HETATM    1  C1  UNL     1      21.264   4.260  47.283  1.00  0.00     0.027 C 
HETATM    2  C2  UNL     1      21.865   3.627  48.525  1.00  0.00     0.005 C 
HETATM    3  C3  UNL     1      21.898   2.708  49.531  1.00  0.00     0.094 C 
HETATM    4  C4  UNL     1      20.972   1.586  49.851  1.00  0.00     0.023 C 
HETATM    5  C5  UNL     1      21.112   0.772  50.827  1.00  0.00     0.115 C 
HETATM    6  F1  UNL     1      20.411  -0.290  51.297  1.00  0.00    -0.206 F 
HETATM    7  C6  UNL     1      21.909   0.341  51.915  1.00  0.00     0.071 C 
HETATM    8  C7  UNL     1      22.520  -0.167  52.938  1.00  0.00     0.065 C 
HETATM    9  N1  UNL     1      21.761  -1.230  53.483  1.00  0.00    -0.246 NA
HETATM   10  C8  UNL     1      22.211  -1.560  54.673  1.00  0.00     0.203 C 
HETATM   11  N2  UNL     1      23.321  -0.687  54.951  1.00  0.00    -0.371 N 
HETATM   12  C9  UNL     1      23.766  -0.033  53.735  1.00  0.00     0.157 C 
HETATM   13  C10 UNL     1      24.878  -0.781  53.076  1.00  0.00     0.002 C 
HETATM   14  C11 UNL     1      26.006  -0.390  52.495  1.00  0.00    -0.003 C 
HETATM   15  C12 UNL     1      26.333   1.045  52.437  1.00  0.00     0.194 C 
HETATM   16  O1  UNL     1      26.453   1.547  51.137  1.00  0.00    -0.387 OA
HETATM   17  C13 UNL     1      26.799   2.916  51.197  1.00  0.00     0.168 C 
HETATM   18  C14 UNL     1      26.708   3.518  49.808  1.00  0.00     0.030 C 
HETATM   19  C15 UNL     1      25.193   3.350  49.435  1.00  0.00     0.030 C 
HETATM   20  C16 UNL     1      24.574   4.059  50.619  1.00  0.00    -0.014 C 
HETATM   21  C17 UNL     1      24.543   5.361  50.335  1.00  0.00    -0.019 C 
HETATM   22  C18 UNL     1      23.930   5.555  49.158  1.00  0.00     0.069 C 
HETATM   23  N3  UNL     1      23.001   4.513  48.771  1.00  0.00    -0.296 NA
HETATM   24  H8  UNL     1      23.792  -0.493  55.857  1.00  0.00     0.161 HD
HETATM   25  H22 UNL     1      22.319   5.155  49.324  1.00  0.00     0.127 HD
ENDROOT
TORSDOF 0
ENDMDL
MODEL 7
REMARK VINA RESULT:      -7.8      1.706      2.230
REMARK  0 active torsions:
REMARK  status: ('A' for Active; 'I' for Inactive)
ROOT
HETATM    1  C1  UNL     1      17.438  -0.975  52.303  1.00  0.00     0.027 C 
HETATM    2  C2  UNL     1      18.690  -0.116  52.309  1.00  0.00     0.005 C 
HETATM    3  C3  UNL     1      20.005   0.122  52.574  1.00  0.00     0.094 C 
HETATM    4  C4  UNL     1      21.041  -0.748  53.201  1.00  0.00     0.023 C 
HETATM    5  C5  UNL     1      22.261  -0.418  53.392  1.00  0.00     0.115 C 
HETATM    6  F1  UNL     1      23.345  -1.028  53.930  1.00  0.00    -0.206 F 
HETATM    7  C6  UNL     1      23.276   0.553  53.210  1.00  0.00     0.071 C 
HETATM    8  C7  UNL     1      24.305   1.335  53.125  1.00  0.00     0.065 C 
HETATM    9  N1  UNL     1      25.426   0.739  53.750  1.00  0.00    -0.246 NA
HETATM   10  C8  UNL     1      26.383   1.622  53.929  1.00  0.00     0.203 C 
HETATM   11  N2  UNL     1      25.894   2.871  53.405  1.00  0.00    -0.371 N 
HETATM   12  C9  UNL     1      24.726   2.648  52.572  1.00  0.00     0.157 C 
HETATM   13  C10 UNL     1      25.091   2.504  51.132  1.00  0.00     0.002 C 
HETATM   14  C11 UNL     1      24.543   2.969  50.014  1.00  0.00    -0.003 C 
HETATM   15  C12 UNL     1      23.338   3.811  50.092  1.00  0.00     0.194 C 
HETATM   16  O1  UNL     1      22.226   3.270  49.439  1.00  0.00    -0.387 OA
HETATM   17  C13 UNL     1      21.140   4.169  49.547  1.00  0.00     0.168 C 
HETATM   18  C14 UNL     1      19.879   3.495  49.043  1.00  0.00     0.030 C 
HETATM   19  C15 UNL     1      19.691   2.287  50.027  1.00  0.00     0.030 C 
HETATM   20  C16 UNL     1      19.685   3.043  51.336  1.00  0.00    -0.014 C 
HETATM   21  C17 UNL     1      18.439   3.465  51.550  1.00  0.00    -0.019 C 
HETATM   22  C18 UNL     1      17.589   2.430  51.475  1.00  0.00     0.069 C 
HETATM   23  N3  UNL     1      18.175   1.134  51.751  1.00  0.00    -0.296 NA
HETATM   24  H8  UNL     1      26.260   3.832  53.552  1.00  0.00     0.161 HD
HETATM   25  H22 UNL     1      17.880   1.407  52.761  1.00  0.00     0.127 HD
ENDROOT
TORSDOF 0
ENDMDL
MODEL 8
REMARK VINA RESULT:      -7.6      3.277      6.127
REMARK  0 active torsions:
REMARK  status: ('A' for Active; 'I' for Inactive)
ROOT
HETATM    1  C1  UNL     1      22.231   4.564  46.527  1.00  0.00     0.027 C 
HETATM    2  C2  UNL     1      22.186   3.902  47.892  1.00  0.00     0.005 C 
HETATM    3  C3  UNL     1      21.649   3.066  48.826  1.00  0.00     0.094 C 
HETATM    4  C4  UNL     1      20.447   2.187  48.763  1.00  0.00     0.023 C 
HETATM    5  C5  UNL     1      20.040   1.429  49.709  1.00  0.00     0.115 C 
HETATM    6  F1  UNL     1      19.002   0.572  49.870  1.00  0.00    -0.206 F 
HETATM    7  C6  UNL     1      20.273   0.913  51.007  1.00  0.00     0.071 C 
HETATM    8  C7  UNL     1      20.343   0.357  52.175  1.00  0.00     0.065 C 
HETATM    9  N1  UNL     1      19.224  -0.484  52.384  1.00  0.00    -0.246 NA
HETATM   10  C8  UNL     1      19.127  -0.821  53.651  1.00  0.00     0.203 C 
HETATM   11  N2  UNL     1      20.224  -0.185  54.332  1.00  0.00    -0.371 N 
HETATM   12  C9  UNL     1      21.213   0.279  53.377  1.00  0.00     0.157 C 
HETATM   13  C10 UNL     1      22.293  -0.729  53.162  1.00  0.00     0.002 C 
HETATM   14  C11 UNL     1      23.612  -0.623  53.044  1.00  0.00    -0.003 C 
HETATM   15  C12 UNL     1      24.244   0.703  53.134  1.00  0.00     0.194 C 
HETATM   16  O1  UNL     1      24.935   1.081  51.978  1.00  0.00    -0.387 OA
HETATM   17  C13 UNL     1      25.528   2.348  52.183  1.00  0.00     0.168 C 
HETATM   18  C14 UNL     1      26.082   2.862  50.868  1.00  0.00     0.030 C 
HETATM   19  C15 UNL     1      24.808   2.992  49.960  1.00  0.00     0.030 C 
HETATM   20  C16 UNL     1      23.975   3.892  50.844  1.00  0.00    -0.014 C 
HETATM   21  C17 UNL     1      24.336   5.150  50.590  1.00  0.00    -0.019 C 
HETATM   22  C18 UNL     1      24.251   5.390  49.273  1.00  0.00     0.069 C 
HETATM   23  N3  UNL     1      23.321   4.544  48.555  1.00  0.00    -0.296 NA
HETATM   24  H8  UNL     1      20.365  -0.035  55.351  1.00  0.00     0.161 HD
HETATM   25  H22 UNL     1      22.643   5.350  48.828  1.00  0.00     0.127 HD
ENDROOT
TORSDOF 0
ENDMDL
MODEL 9
REMARK VINA RESULT:      -7.5      4.006      6.527
REMARK  0 active torsions:
REMARK  status: ('A' for Active; 'I' for Inactive)
ROOT
HETATM    1  C1  UNL     1      26.482   0.014  52.302  1.00  0.00     0.027 C 
HETATM    2  C2  UNL     1      25.710   1.181  51.714  1.00  0.00     0.005 C 
HETATM    3  C3  UNL     1      25.602   2.335  50.995  1.00  0.00     0.094 C 
HETATM    4  C4  UNL     1      26.637   3.128  50.274  1.00  0.00     0.023 C 
HETATM    5  C5  UNL     1      26.414   4.202  49.617  1.00  0.00     0.115 C 
HETATM    6  F1  UNL     1      27.180   5.066  48.907  1.00  0.00    -0.206 F 
HETATM    7  C6  UNL     1      25.457   5.129  49.136  1.00  0.00     0.071 C 
HETATM    8  C7  UNL     1      24.712   6.058  48.628  1.00  0.00     0.065 C 
HETATM    9  N1  UNL     1      25.509   7.008  47.946  1.00  0.00    -0.246 NA
HETATM   10  C8  UNL     1      24.816   8.093  47.681  1.00  0.00     0.203 C 
HETATM   11  N2  UNL     1      23.493   7.874  48.204  1.00  0.00    -0.371 N 
HETATM   12  C9  UNL     1      23.290   6.466  48.495  1.00  0.00     0.157 C 
HETATM   13  C10 UNL     1      22.656   5.748  47.350  1.00  0.00     0.002 C 
HETATM   14  C11 UNL     1      21.698   4.830  47.283  1.00  0.00    -0.003 C 
HETATM   15  C12 UNL     1      21.057   4.358  48.521  1.00  0.00     0.194 C 
HETATM   16  O1  UNL     1      21.217   2.989  48.756  1.00  0.00    -0.387 OA
HETATM   17  C13 UNL     1      20.539   2.638  49.945  1.00  0.00     0.168 C 
HETATM   18  C14 UNL     1      20.895   1.213  50.324  1.00  0.00     0.030 C 
HETATM   19  C15 UNL     1      22.443   1.277  50.574  1.00  0.00     0.030 C 
HETATM   20  C16 UNL     1      22.473   2.377  51.611  1.00  0.00    -0.014 C 
HETATM   21  C17 UNL     1      22.263   1.812  52.800  1.00  0.00    -0.019 C 
HETATM   22  C18 UNL     1      23.136   0.812  52.990  1.00  0.00     0.069 C 
HETATM   23  N3  UNL     1      24.369   0.923  52.236  1.00  0.00    -0.296 NA
HETATM   24  H8  UNL     1      22.735   8.563  48.381  1.00  0.00     0.161 HD
HETATM   25  H22 UNL     1      24.667   1.461  53.133  1.00  0.00     0.127 HD
ENDROOT
TORSDOF 0
ENDMDL
