MODEL 1
REMARK VINA RESULT:      -7.8      0.000      0.000
REMARK  4 active torsions:
REMARK  status: ('A' for Active; 'I' for Inactive)
REMARK    1  A    between atoms: N1_1  and  C1_2 
REMARK    2  A    between atoms: C2_3  and  N2_4 
REMARK    3  A    between atoms: C6_8  and  N3_9 
REMARK    4  A    between atoms: N3_9  and  C7_10 
ROOT
HETATM    1  N2  UNL     1      26.170   1.755  52.371  1.00  0.00    -0.317 N 
HETATM    2  C3  UNL     1      26.428   1.605  50.976  1.00  0.00     0.111 C 
HETATM    3  C4  UNL     1      26.716   2.878  50.984  1.00  0.00     0.007 C 
HETATM    4  C5  UNL     1      25.691   3.648  50.733  1.00  0.00     0.037 C 
HETATM    5  C6  UNL     1      24.592   3.198  51.333  1.00  0.00     0.141 C 
HETATM    6  N4  UNL     1      24.224   1.806  51.251  1.00  0.00    -0.224 NA
HETATM    7  C13 UNL     1      24.075   1.103  52.347  1.00  0.00     0.236 C 
HETATM    8  N5  UNL     1      24.342   1.979  53.439  1.00  0.00    -0.237 NA
HETATM    9  C14 UNL     1      25.563   2.391  53.496  1.00  0.00     0.215 C 
ENDROOT
BRANCH   1  10
HETATM   10  C2  UNL     1      26.886   0.739  53.100  1.00  0.00     0.043 C 
HETATM   11  C1  UNL     1      27.902   1.207  53.850  1.00  0.00     0.029 C 
HETATM   12  C18 UNL     1      28.759   0.279  54.676  1.00  0.00     0.085 C 
HETATM   13  C17 UNL     1      29.217  -0.819  53.753  1.00  0.00    -0.024 C 
HETATM   14  C16 UNL     1      28.200  -1.308  53.053  1.00  0.00    -0.024 C 
HETATM   15  C15 UNL     1      26.819  -0.733  53.263  1.00  0.00     0.086 C 
BRANCH  11  16
HETATM   16  N1  UNL     1      28.193   2.621  53.875  1.00  0.00    -0.401 N 
HETATM   17  H1  UNL     1      28.385   3.602  54.130  1.00  0.00     0.156 HD
HETATM   18  H2  UNL     1      28.341   3.167  52.975  1.00  0.00     0.156 HD
ENDBRANCH  11  16
ENDBRANCH   1  10
BRANCH   5  19
HETATM   19  N3  UNL     1      24.050   4.390  51.941  1.00  0.00    -0.340 N 
HETATM   20  H4  UNL     1      24.376   5.030  52.722  1.00  0.00     0.167 HD
BRANCH  19  21
HETATM   21  C7  UNL     1      22.807   4.790  51.364  1.00  0.00     0.035 A 
HETATM   22  C8  UNL     1      22.705   5.914  50.540  1.00  0.00     0.029 A 
HETATM   23  C9  UNL     1      21.521   6.341  49.958  1.00  0.00     0.004 A 
HETATM   24  C10 UNL     1      20.370   5.625  50.199  1.00  0.00     0.019 A 
HETATM   25  C11 UNL     1      20.412   4.522  50.995  1.00  0.00     0.013 A 
HETATM   26 BR1  UNL     1      18.821   3.505  51.347  1.00  0.00    -0.051 Br
HETATM   27  C12 UNL     1      21.599   4.112  51.564  1.00  0.00     0.048 A 
ENDBRANCH  19  21
ENDBRANCH   5  19
TORSDOF 4
ENDMDL
MODEL 2
REMARK VINA RESULT:      -7.7      2.511      7.280
REMARK  4 active torsions:
REMARK  status: ('A' for Active; 'I' for Inactive)
REMARK    1  A    between atoms: N1_1  and  C1_2 
REMARK    2  A    between atoms: C2_3  and  N2_4 
REMARK    3  A    between atoms: C6_8  and  N3_9 
REMARK    4  A    between atoms: N3_9  and  C7_10 
ROOT
HETATM    1  N2  UNL     1      23.676   4.728  50.911  1.00  0.00    -0.317 N 
HETATM    2  C3  UNL     1      22.866   3.891  51.734  1.00  0.00     0.111 C 
HETATM    3  C4  UNL     1      23.712   4.165  52.690  1.00  0.00     0.007 C 
HETATM    4  C5  UNL     1      24.705   3.319  52.768  1.00  0.00     0.037 C 
HETATM    5  C6  UNL     1      25.137   2.970  51.559  1.00  0.00     0.141 C 
HETATM    6  N4  UNL     1      24.208   2.580  50.527  1.00  0.00    -0.224 NA
HETATM    7  C13 UNL     1      24.184   3.231  49.389  1.00  0.00     0.236 C 
HETATM    8  N5  UNL     1      25.175   4.251  49.477  1.00  0.00    -0.237 NA
HETATM    9  C14 UNL     1      24.921   5.157  50.360  1.00  0.00     0.215 C 
ENDROOT
BRANCH   1  10
HETATM   10  C2  UNL     1      22.839   5.693  50.244  1.00  0.00     0.043 C 
HETATM   11  C1  UNL     1      23.035   6.965  50.641  1.00  0.00     0.029 C 
HETATM   12  C18 UNL     1      22.240   8.103  50.047  1.00  0.00     0.085 C 
HETATM   13  C17 UNL     1      20.789   7.712  50.147  1.00  0.00    -0.024 C 
HETATM   14  C16 UNL     1      20.597   6.474  49.708  1.00  0.00    -0.024 C 
HETATM   15  C15 UNL     1      21.781   5.681  49.206  1.00  0.00     0.086 C 
BRANCH  11  16
HETATM   16  N1  UNL     1      24.019   7.265  51.654  1.00  0.00    -0.401 N 
HETATM   17  H1  UNL     1      24.868   7.361  52.231  1.00  0.00     0.156 HD
HETATM   18  H2  UNL     1      23.758   7.813  52.526  1.00  0.00     0.156 HD
ENDBRANCH  11  16
ENDBRANCH   1  10
BRANCH   5  19
HETATM   19  N3  UNL     1      26.569   3.099  51.683  1.00  0.00    -0.340 N 
HETATM   20  H4  UNL     1      27.271   3.828  51.365  1.00  0.00     0.167 HD
BRANCH  19  21
HETATM   21  C7  UNL     1      27.166   2.010  52.386  1.00  0.00     0.035 A 
HETATM   22  C8  UNL     1      28.133   2.213  53.376  1.00  0.00     0.029 A 
HETATM   23  C9  UNL     1      28.739   1.186  54.084  1.00  0.00     0.004 A 
HETATM   24  C10 UNL     1      28.379  -0.112  53.807  1.00  0.00     0.019 A 
HETATM   25  C11 UNL     1      27.443  -0.367  52.852  1.00  0.00     0.013 A 
HETATM   26 BR1  UNL     1      26.921  -2.170  52.446  1.00  0.00    -0.051 Br
HETATM   27  C12 UNL     1      26.850   0.666  52.158  1.00  0.00     0.048 A 
ENDBRANCH  19  21
ENDBRANCH   5  19
TORSDOF 4
ENDMDL
MODEL 3
REMARK VINA RESULT:      -7.5      2.868      7.397
REMARK  4 active torsions:
REMARK  status: ('A' for Active; 'I' for Inactive)
REMARK    1  A    between atoms: N1_1  and  C1_2 
REMARK    2  A    between atoms: C2_3  and  N2_4 
REMARK    3  A    between atoms: C6_8  and  N3_9 
REMARK    4  A    between atoms: N3_9  and  C7_10 
ROOT
HETATM    1  N2  UNL     1      23.591   4.921  50.899  1.00  0.00    -0.317 N 
HETATM    2  C3  UNL     1      22.571   4.349  51.716  1.00  0.00     0.111 C 
HETATM    3  C4  UNL     1      23.389   4.542  52.716  1.00  0.00     0.007 C 
HETATM    4  C5  UNL     1      24.177   3.526  52.950  1.00  0.00     0.037 C 
HETATM    5  C6  UNL     1      24.608   2.979  51.817  1.00  0.00     0.141 C 
HETATM    6  N4  UNL     1      23.691   2.683  50.744  1.00  0.00    -0.224 NA
HETATM    7  C13 UNL     1      23.880   3.208  49.558  1.00  0.00     0.236 C 
HETATM    8  N5  UNL     1      25.053   4.013  49.646  1.00  0.00    -0.237 NA
HETATM    9  C14 UNL     1      24.933   5.035  50.425  1.00  0.00     0.215 C 
ENDROOT
BRANCH   1  10
HETATM   10  C2  UNL     1      23.020   5.963  50.084  1.00  0.00     0.043 C 
HETATM   11  C1  UNL     1      23.346   7.211  50.470  1.00  0.00     0.029 C 
HETATM   12  C18 UNL     1      22.831   8.421  49.729  1.00  0.00     0.085 C 
HETATM   13  C17 UNL     1      21.339   8.252  49.613  1.00  0.00    -0.024 C 
HETATM   14  C16 UNL     1      21.029   7.034  49.185  1.00  0.00    -0.024 C 
HETATM   15  C15 UNL     1      22.140   6.052  48.894  1.00  0.00     0.086 C 
BRANCH  11  16
HETATM   16  N1  UNL     1      24.202   7.415  51.615  1.00  0.00    -0.401 N 
HETATM   17  H1  UNL     1      24.696   7.769  52.448  1.00  0.00     0.156 HD
HETATM   18  H2  UNL     1      24.911   6.680  51.907  1.00  0.00     0.156 HD
ENDBRANCH  11  16
ENDBRANCH   1  10
BRANCH   5  19
HETATM   19  N3  UNL     1      26.025   2.831  52.054  1.00  0.00    -0.340 N 
HETATM   20  H4  UNL     1      26.849   3.497  52.015  1.00  0.00     0.167 HD
BRANCH  19  21
HETATM   21  C7  UNL     1      26.390   1.501  52.419  1.00  0.00     0.035 A 
HETATM   22  C8  UNL     1      25.459   0.459  52.433  1.00  0.00     0.029 A 
HETATM   23  C9  UNL     1      25.767  -0.848  52.780  1.00  0.00     0.004 A 
HETATM   24  C10 UNL     1      27.062  -1.151  53.134  1.00  0.00     0.019 A 
HETATM   25  C11 UNL     1      28.010  -0.173  53.138  1.00  0.00     0.013 A 
HETATM   26 BR1  UNL     1      29.825  -0.569  53.628  1.00  0.00    -0.051 Br
HETATM   27  C12 UNL     1      27.685   1.120  52.789  1.00  0.00     0.048 A 
ENDBRANCH  19  21
ENDBRANCH   5  19
TORSDOF 4
ENDMDL
MODEL 4
REMARK VINA RESULT:      -7.3      3.203      5.788
REMARK  4 active torsions:
REMARK  status: ('A' for Active; 'I' for Inactive)
REMARK    1  A    between atoms: N1_1  and  C1_2 
REMARK    2  A    between atoms: C2_3  and  N2_4 
REMARK    3  A    between atoms: C6_8  and  N3_9 
REMARK    4  A    between atoms: N3_9  and  C7_10 
ROOT
HETATM    1  N2  UNL     1      23.628   4.009  50.659  1.00  0.00    -0.317 N 
HETATM    2  C3  UNL     1      23.070   3.502  49.448  1.00  0.00     0.111 C 
HETATM    3  C4  UNL     1      21.922   3.923  49.907  1.00  0.00     0.007 C 
HETATM    4  C5  UNL     1      21.277   3.026  50.605  1.00  0.00     0.037 C 
HETATM    5  C6  UNL     1      22.106   2.334  51.382  1.00  0.00     0.141 C 
HETATM    6  N4  UNL     1      23.334   1.791  50.855  1.00  0.00    -0.224 NA
HETATM    7  C13 UNL     1      24.481   2.126  51.393  1.00  0.00     0.236 C 
HETATM    8  N5  UNL     1      24.190   3.024  52.461  1.00  0.00    -0.237 NA
HETATM    9  C14 UNL     1      23.684   4.148  52.078  1.00  0.00     0.215 C 
ENDROOT
BRANCH   1  10
HETATM   10  C2  UNL     1      24.755   4.852  50.348  1.00  0.00     0.043 C 
HETATM   11  C1  UNL     1      24.566   6.156  50.629  1.00  0.00     0.029 C 
HETATM   12  C18 UNL     1      25.643   7.179  50.363  1.00  0.00     0.085 C 
HETATM   13  C17 UNL     1      26.081   6.981  48.936  1.00  0.00    -0.024 C 
HETATM   14  C16 UNL     1      26.312   5.699  48.680  1.00  0.00    -0.024 C 
HETATM   15  C15 UNL     1      26.115   4.684  49.782  1.00  0.00     0.086 C 
BRANCH  11  16
HETATM   16  N1  UNL     1      23.315   6.602  51.195  1.00  0.00    -0.401 N 
HETATM   17  H1  UNL     1      22.407   7.047  51.397  1.00  0.00     0.156 HD
HETATM   18  H2  UNL     1      22.986   6.250  52.142  1.00  0.00     0.156 HD
ENDBRANCH  11  16
ENDBRANCH   1  10
BRANCH   5  19
HETATM   19  N3  UNL     1      21.426   2.340  52.656  1.00  0.00    -0.340 N 
HETATM   20  H4  UNL     1      21.084   3.109  53.302  1.00  0.00     0.167 HD
BRANCH  19  21
HETATM   21  C7  UNL     1      21.161   1.028  53.150  1.00  0.00     0.035 A 
HETATM   22  C8  UNL     1      22.144   0.270  53.793  1.00  0.00     0.029 A 
HETATM   23  C9  UNL     1      21.933  -1.008  54.289  1.00  0.00     0.004 A 
HETATM   24  C10 UNL     1      20.688  -1.577  54.145  1.00  0.00     0.019 A 
HETATM   25  C11 UNL     1      19.694  -0.883  53.524  1.00  0.00     0.013 A 
HETATM   26 BR1  UNL     1      17.947  -1.653  53.310  1.00  0.00    -0.051 Br
HETATM   27  C12 UNL     1      19.922   0.387  53.039  1.00  0.00     0.048 A 
ENDBRANCH  19  21
ENDBRANCH   5  19
TORSDOF 4
ENDMDL
MODEL 5
REMARK VINA RESULT:      -7.2      3.546      5.775
REMARK  4 active torsions:
REMARK  status: ('A' for Active; 'I' for Inactive)
REMARK    1  A    between atoms: N1_1  and  C1_2 
REMARK    2  A    between atoms: C2_3  and  N2_4 
REMARK    3  A    between atoms: C6_8  and  N3_9 
REMARK    4  A    between atoms: N3_9  and  C7_10 
ROOT
HETATM    1  N2  UNL     1      24.021   4.016  50.525  1.00  0.00    -0.317 N 
HETATM    2  C3  UNL     1      23.518   4.767  51.628  1.00  0.00     0.111 C 
HETATM    3  C4  UNL     1      24.100   3.875  52.384  1.00  0.00     0.007 C 
HETATM    4  C5  UNL     1      23.328   2.867  52.692  1.00  0.00     0.037 C 
HETATM    5  C6  UNL     1      22.586   2.494  51.652  1.00  0.00     0.141 C 
HETATM    6  N4  UNL     1      21.870   3.471  50.869  1.00  0.00    -0.224 NA
HETATM    7  C13 UNL     1      22.093   3.567  49.580  1.00  0.00     0.236 C 
HETATM    8  N5  UNL     1      23.078   2.588  49.258  1.00  0.00    -0.237 NA
HETATM    9  C14 UNL     1      24.232   2.809  49.792  1.00  0.00     0.215 C 
ENDROOT
BRANCH   1  10
HETATM   10  C2  UNL     1      24.703   4.903  49.616  1.00  0.00     0.043 C 
HETATM   11  C1  UNL     1      26.043   4.763  49.606  1.00  0.00     0.029 C 
HETATM   12  C18 UNL     1      26.913   5.615  48.714  1.00  0.00     0.085 C 
HETATM   13  C17 UNL     1      26.510   7.045  48.959  1.00  0.00    -0.024 C 
HETATM   14  C16 UNL     1      25.190   7.183  48.920  1.00  0.00    -0.024 C 
HETATM   15  C15 UNL     1      24.333   5.968  48.654  1.00  0.00     0.086 C 
BRANCH  11  16
HETATM   16  N1  UNL     1      26.676   3.786  50.459  1.00  0.00    -0.401 N 
HETATM   17  H1  UNL     1      27.329   3.200  51.002  1.00  0.00     0.156 HD
HETATM   18  H2  UNL     1      26.103   3.056  50.977  1.00  0.00     0.156 HD
ENDBRANCH  11  16
ENDBRANCH   1  10
BRANCH   5  19
HETATM   19  N3  UNL     1      22.745   1.060  51.645  1.00  0.00    -0.340 N 
HETATM   20  H4  UNL     1      23.483   0.405  51.254  1.00  0.00     0.167 HD
BRANCH  19  21
HETATM   21  C7  UNL     1      21.679   0.379  52.305  1.00  0.00     0.035 A 
HETATM   22  C8  UNL     1      21.894  -0.392  53.451  1.00  0.00     0.029 A 
HETATM   23  C9  UNL     1      20.890  -1.070  54.126  1.00  0.00     0.004 A 
HETATM   24  C10 UNL     1      19.602  -0.988  53.651  1.00  0.00     0.019 A 
HETATM   25  C11 UNL     1      19.335  -0.251  52.537  1.00  0.00     0.013 A 
HETATM   26 BR1  UNL     1      17.545  -0.121  51.853  1.00  0.00    -0.051 Br
HETATM   27  C12 UNL     1      20.346   0.417  51.880  1.00  0.00     0.048 A 
ENDBRANCH  19  21
ENDBRANCH   5  19
TORSDOF 4
ENDMDL
MODEL 6
REMARK VINA RESULT:      -7.2      2.115      3.304
REMARK  4 active torsions:
REMARK  status: ('A' for Active; 'I' for Inactive)
REMARK    1  A    between atoms: N1_1  and  C1_2 
REMARK    2  A    between atoms: C2_3  and  N2_4 
REMARK    3  A    between atoms: C6_8  and  N3_9 
REMARK    4  A    between atoms: N3_9  and  C7_10 
ROOT
HETATM    1  N2  UNL     1      26.050   0.351  53.060  1.00  0.00    -0.317 N 
HETATM    2  C3  UNL     1      25.504   0.302  54.377  1.00  0.00     0.111 C 
HETATM    3  C4  UNL     1      24.681  -0.595  53.905  1.00  0.00     0.007 C 
HETATM    4  C5  UNL     1      23.569  -0.092  53.440  1.00  0.00     0.037 C 
HETATM    5  C6  UNL     1      23.793   1.039  52.775  1.00  0.00     0.141 C 
HETATM    6  N4  UNL     1      24.631   2.071  53.335  1.00  0.00    -0.224 NA
HETATM    7  C13 UNL     1      25.689   2.482  52.679  1.00  0.00     0.236 C 
HETATM    8  N5  UNL     1      25.741   1.731  51.468  1.00  0.00    -0.237 NA
HETATM    9  C14 UNL     1      25.951   0.469  51.641  1.00  0.00     0.215 C 
ENDROOT
BRANCH   1  10
HETATM   10  C2  UNL     1      27.482   0.205  53.132  1.00  0.00     0.043 C 
HETATM   11  C1  UNL     1      27.918  -1.060  52.983  1.00  0.00     0.029 C 
HETATM   12  C18 UNL     1      29.389  -1.394  53.035  1.00  0.00     0.085 C 
HETATM   13  C17 UNL     1      29.928  -0.770  54.295  1.00  0.00    -0.024 C 
HETATM   14  C16 UNL     1      29.532   0.493  54.409  1.00  0.00    -0.024 C 
HETATM   15  C15 UNL     1      28.655   1.088  53.333  1.00  0.00     0.086 C 
BRANCH  11  16
HETATM   16  N1  UNL     1      26.974  -2.132  52.772  1.00  0.00    -0.401 N 
HETATM   17  H1  UNL     1      26.286  -2.895  52.859  1.00  0.00     0.156 HD
HETATM   18  H2  UNL     1      26.741  -2.472  51.792  1.00  0.00     0.156 HD
ENDBRANCH  11  16
ENDBRANCH   1  10
BRANCH   5  19
HETATM   19  N3  UNL     1      23.027   0.854  51.565  1.00  0.00    -0.340 N 
HETATM   20  H4  UNL     1      23.242   0.427  50.619  1.00  0.00     0.167 HD
BRANCH  19  21
HETATM   21  C7  UNL     1      21.695   1.356  51.670  1.00  0.00     0.035 A 
HETATM   22  C8  UNL     1      21.434   2.691  51.995  1.00  0.00     0.029 A 
HETATM   23  C9  UNL     1      20.158   3.223  52.107  1.00  0.00     0.004 A 
HETATM   24  C10 UNL     1      19.077   2.400  51.890  1.00  0.00     0.019 A 
HETATM   25  C11 UNL     1      19.274   1.091  51.572  1.00  0.00     0.013 A 
HETATM   26 BR1  UNL     1      17.782  -0.079  51.263  1.00  0.00    -0.051 Br
HETATM   27  C12 UNL     1      20.549   0.580  51.463  1.00  0.00     0.048 A 
ENDBRANCH  19  21
ENDBRANCH   5  19
TORSDOF 4
ENDMDL
MODEL 7
REMARK VINA RESULT:      -7.1      3.445      5.277
REMARK  4 active torsions:
REMARK  status: ('A' for Active; 'I' for Inactive)
REMARK    1  A    between atoms: N1_1  and  C1_2 
REMARK    2  A    between atoms: C2_3  and  N2_4 
REMARK    3  A    between atoms: C6_8  and  N3_9 
REMARK    4  A    between atoms: N3_9  and  C7_10 
ROOT
HETATM    1  N2  UNL     1      23.016   1.731  51.448  1.00  0.00    -0.317 N 
HETATM    2  C3  UNL     1      22.048   2.486  50.722  1.00  0.00     0.111 C 
HETATM    3  C4  UNL     1      22.731   2.167  49.656  1.00  0.00     0.007 C 
HETATM    4  C5  UNL     1      23.664   3.031  49.354  1.00  0.00     0.037 C 
HETATM    5  C6  UNL     1      24.280   3.476  50.446  1.00  0.00     0.141 C 
HETATM    6  N4  UNL     1      23.524   3.914  51.593  1.00  0.00    -0.224 NA
HETATM    7  C13 UNL     1      23.716   3.345  52.759  1.00  0.00     0.236 C 
HETATM    8  N5  UNL     1      24.716   2.347  52.571  1.00  0.00    -0.237 NA
HETATM    9  C14 UNL     1      24.351   1.375  51.805  1.00  0.00     0.215 C 
ENDROOT
BRANCH   1  10
HETATM   10  C2  UNL     1      22.340   0.794  52.310  1.00  0.00     0.043 C 
HETATM   11  C1  UNL     1      21.201   1.263  52.854  1.00  0.00     0.029 C 
HETATM   12  C18 UNL     1      20.368   0.414  53.784  1.00  0.00     0.085 C 
HETATM   13  C17 UNL     1      21.305  -0.114  54.838  1.00  0.00    -0.024 C 
HETATM   14  C16 UNL     1      22.405  -0.618  54.291  1.00  0.00    -0.024 C 
HETATM   15  C15 UNL     1      22.555  -0.593  52.788  1.00  0.00     0.086 C 
BRANCH  11  16
HETATM   16  N1  UNL     1      20.752   2.602  52.553  1.00  0.00    -0.401 N 
HETATM   17  H1  UNL     1      20.624   3.562  52.198  1.00  0.00     0.156 HD
HETATM   18  H2  UNL     1      19.871   2.998  52.998  1.00  0.00     0.156 HD
ENDBRANCH  11  16
ENDBRANCH   1  10
BRANCH   5  19
HETATM   19  N3  UNL     1      25.674   3.375  50.087  1.00  0.00    -0.340 N 
HETATM   20  H4  UNL     1      26.382   2.585  50.107  1.00  0.00     0.167 HD
BRANCH  19  21
HETATM   21  C7  UNL     1      26.213   4.605  49.604  1.00  0.00     0.035 A 
HETATM   22  C8  UNL     1      27.364   4.644  48.811  1.00  0.00     0.029 A 
HETATM   23  C9  UNL     1      27.924   5.813  48.319  1.00  0.00     0.004 A 
HETATM   24  C10 UNL     1      27.322   7.013  48.621  1.00  0.00     0.019 A 
HETATM   25  C11 UNL     1      26.198   7.033  49.391  1.00  0.00     0.013 A 
HETATM   26 BR1  UNL     1      25.338   8.694  49.827  1.00  0.00    -0.051 Br
HETATM   27  C12 UNL     1      25.656   5.860  49.870  1.00  0.00     0.048 A 
ENDBRANCH  19  21
ENDBRANCH   5  19
TORSDOF 4
ENDMDL
MODEL 8
REMARK VINA RESULT:      -7.0      3.696      5.045
REMARK  4 active torsions:
REMARK  status: ('A' for Active; 'I' for Inactive)
REMARK    1  A    between atoms: N1_1  and  C1_2 
REMARK    2  A    between atoms: C2_3  and  N2_4 
REMARK    3  A    between atoms: C6_8  and  N3_9 
REMARK    4  A    between atoms: N3_9  and  C7_10 
ROOT
HETATM    1  N2  UNL     1      23.373   2.719  51.470  1.00  0.00    -0.317 N 
HETATM    2  C3  UNL     1      22.837   2.502  50.166  1.00  0.00     0.111 C 
HETATM    3  C4  UNL     1      24.066   2.613  49.740  1.00  0.00     0.007 C 
HETATM    4  C5  UNL     1      24.402   3.835  49.422  1.00  0.00     0.037 C 
HETATM    5  C6  UNL     1      23.903   4.713  50.289  1.00  0.00     0.141 C 
HETATM    6  N4  UNL     1      22.520   4.646  50.694  1.00  0.00    -0.224 NA
HETATM    7  C13 UNL     1      22.215   4.516  51.962  1.00  0.00     0.236 C 
HETATM    8  N5  UNL     1      23.445   4.469  52.679  1.00  0.00    -0.237 NA
HETATM    9  C14 UNL     1      24.164   3.429  52.423  1.00  0.00     0.215 C 
ENDROOT
BRANCH   1  10
HETATM   10  C2  UNL     1      22.894   1.691  52.359  1.00  0.00     0.043 C 
HETATM   11  C1  UNL     1      23.833   0.800  52.732  1.00  0.00     0.029 C 
HETATM   12  C18 UNL     1      23.502  -0.345  53.659  1.00  0.00     0.085 C 
HETATM   13  C17 UNL     1      22.291  -1.029  53.083  1.00  0.00    -0.024 C 
HETATM   14  C16 UNL     1      21.352  -0.147  52.762  1.00  0.00    -0.024 C 
HETATM   15  C15 UNL     1      21.611   1.322  53.002  1.00  0.00     0.086 C 
BRANCH  11  16
HETATM   16  N1  UNL     1      25.186   0.925  52.246  1.00  0.00    -0.401 N 
HETATM   17  H1  UNL     1      26.051   0.974  51.686  1.00  0.00     0.156 HD
HETATM   18  H2  UNL     1      25.992   1.123  52.910  1.00  0.00     0.156 HD
ENDBRANCH  11  16
ENDBRANCH   1  10
BRANCH   5  19
HETATM   19  N3  UNL     1      25.038   5.557  50.576  1.00  0.00    -0.340 N 
HETATM   20  H4  UNL     1      25.630   5.722  51.441  1.00  0.00     0.167 HD
BRANCH  19  21
HETATM   21  C7  UNL     1      25.447   6.337  49.454  1.00  0.00     0.035 A 
HETATM   22  C8  UNL     1      24.538   7.102  48.717  1.00  0.00     0.029 A 
HETATM   23  C9  UNL     1      24.889   7.875  47.620  1.00  0.00     0.004 A 
HETATM   24  C10 UNL     1      26.206   7.898  47.221  1.00  0.00     0.019 A 
HETATM   25  C11 UNL     1      27.133   7.169  47.902  1.00  0.00     0.013 A 
HETATM   26 BR1  UNL     1      28.978   7.183  47.367  1.00  0.00    -0.051 Br
HETATM   27  C12 UNL     1      26.766   6.408  48.991  1.00  0.00     0.048 A 
ENDBRANCH  19  21
ENDBRANCH   5  19
TORSDOF 4
ENDMDL
MODEL 9
REMARK VINA RESULT:      -6.9      3.910      5.572
REMARK  4 active torsions:
REMARK  status: ('A' for Active; 'I' for Inactive)
REMARK    1  A    between atoms: N1_1  and  C1_2 
REMARK    2  A    between atoms: C2_3  and  N2_4 
REMARK    3  A    between atoms: C6_8  and  N3_9 
REMARK    4  A    between atoms: N3_9  and  C7_10 
ROOT
HETATM    1  N2  UNL     1      23.008   2.967  51.856  1.00  0.00    -0.317 N 
HETATM    2  C3  UNL     1      23.737   3.593  52.911  1.00  0.00     0.111 C 
HETATM    3  C4  UNL     1      23.094   4.682  52.587  1.00  0.00     0.007 C 
HETATM    4  C5  UNL     1      23.715   5.411  51.697  1.00  0.00     0.037 C 
HETATM    5  C6  UNL     1      24.277   4.652  50.761  1.00  0.00     0.141 C 
HETATM    6  N4  UNL     1      25.063   3.497  51.120  1.00  0.00    -0.224 NA
HETATM    7  C13 UNL     1      24.731   2.313  50.666  1.00  0.00     0.236 C 
HETATM    8  N5  UNL     1      23.570   2.491  49.859  1.00  0.00    -0.237 NA
HETATM    9  C14 UNL     1      22.528   2.877  50.515  1.00  0.00     0.215 C 
ENDROOT
BRANCH   1  10
HETATM   10  C2  UNL     1      22.395   1.760  52.351  1.00  0.00     0.043 C 
HETATM   11  C1  UNL     1      21.076   1.869  52.598  1.00  0.00     0.029 C 
HETATM   12  C18 UNL     1      20.277   0.701  53.123  1.00  0.00     0.085 C 
HETATM   13  C17 UNL     1      21.020   0.177  54.323  1.00  0.00    -0.024 C 
HETATM   14  C16 UNL     1      22.313   0.027  54.057  1.00  0.00    -0.024 C 
HETATM   15  C15 UNL     1      22.824   0.380  52.679  1.00  0.00     0.086 C 
BRANCH  11  16
HETATM   16  N1  UNL     1      20.395   3.121  52.362  1.00  0.00    -0.401 N 
HETATM   17  H1  UNL     1      19.822   3.976  52.413  1.00  0.00     0.156 HD
HETATM   18  H2  UNL     1      20.527   3.653  51.452  1.00  0.00     0.156 HD
ENDBRANCH  11  16
ENDBRANCH   1  10
BRANCH   5  19
HETATM   19  N3  UNL     1      23.882   5.309  49.538  1.00  0.00    -0.340 N 
HETATM   20  H4  UNL     1      22.972   5.366  48.996  1.00  0.00     0.167 HD
BRANCH  19  21
HETATM   21  C7  UNL     1      24.948   6.038  48.930  1.00  0.00     0.035 A 
HETATM   22  C8  UNL     1      24.741   7.281  48.327  1.00  0.00     0.029 A 
HETATM   23  C9  UNL     1      25.745   8.025  47.725  1.00  0.00     0.004 A 
HETATM   24  C10 UNL     1      27.025   7.520  47.713  1.00  0.00     0.019 A 
HETATM   25  C11 UNL     1      27.283   6.312  48.285  1.00  0.00     0.013 A 
HETATM   26 BR1  UNL     1      29.061   5.585  48.282  1.00  0.00    -0.051 Br
HETATM   27  C12 UNL     1      26.273   5.588  48.880  1.00  0.00     0.048 A 
ENDBRANCH  19  21
ENDBRANCH   5  19
TORSDOF 4
ENDMDL
