MODEL 1
REMARK VINA RESULT:      -9.2      0.000      0.000
REMARK  5 active torsions:
REMARK  status: ('A' for Active; 'I' for Inactive)
REMARK    1  A    between atoms: O1_2  and  C2_3 
REMARK    2  A    between atoms: C6_9  and  N3_10 
REMARK    3  A    between atoms: N3_10  and  C7_11 
REMARK    4  A    between atoms: C15_21  and  N4_22 
REMARK       I    between atoms: N4_22  and  C16_23 
REMARK    5  A    between atoms: C16_23  and  C17_25 
ROOT
HETATM    1  C2  UNL     1      23.605   0.081  53.548  1.00  0.00     0.097 A 
HETATM    2  C3  UNL     1      22.297   0.531  53.356  1.00  0.00     0.071 A 
HETATM    3  C4  UNL     1      22.071   1.416  52.309  1.00  0.00     0.075 A 
HETATM    4  N1  UNL     1      20.841   1.879  52.069  1.00  0.00    -0.241 NA
HETATM    5  C5  UNL     1      20.553   2.733  51.068  1.00  0.00     0.236 A 
HETATM    6  N2  UNL     1      21.586   3.122  50.282  1.00  0.00    -0.224 NA
HETATM    7  C6  UNL     1      22.844   2.686  50.480  1.00  0.00     0.142 A 
HETATM    8  C13 UNL     1      23.116   1.817  51.507  1.00  0.00     0.041 A 
HETATM    9  C14 UNL     1      24.412   1.396  51.661  1.00  0.00     0.050 A 
HETATM   10  C15 UNL     1      24.627   0.523  52.697  1.00  0.00     0.069 A 
ENDROOT
BRANCH  10  11
HETATM   11  N4  UNL     1      25.889  -0.033  53.027  1.00  0.00    -0.323 N 
HETATM   12  C16 UNL     1      26.631   0.880  53.821  1.00  0.00     0.258 C 
HETATM   13  O2  UNL     1      26.204   2.033  54.188  1.00  0.00    -0.271 OA
HETATM   14  H11 UNL     1      26.506  -0.879  52.909  1.00  0.00     0.169 HD
BRANCH  12  15
HETATM   15  C17 UNL     1      27.991   0.891  54.463  1.00  0.00     0.342 C 
HETATM   16  C18 UNL     1      29.039   1.301  53.496  1.00  0.00     0.219 C 
HETATM   17  O3  UNL     1      30.042   0.358  53.632  1.00  0.00    -0.331 OA
HETATM   18  C19 UNL     1      29.403  -0.836  53.972  1.00  0.00     0.546 C 
HETATM   19  F2  UNL     1      29.005  -1.536  52.852  1.00  0.00    -0.185 F 
HETATM   20  N5  UNL     1      28.288  -0.464  54.802  1.00  0.00     0.158 N 
HETATM   21  H16 UNL     1      28.441  -0.548  55.819  1.00  0.00     0.323 HD
ENDBRANCH  12  15
ENDBRANCH  10  11
BRANCH   1  22
HETATM   22  O1  UNL     1      23.859  -0.797  54.581  1.00  0.00    -0.354 OA
HETATM   23  C1  UNL     1      22.872  -1.438  55.365  1.00  0.00     0.210 C 
ENDBRANCH   1  22
BRANCH   7  24
HETATM   24  N3  UNL     1      23.817   3.187  49.546  1.00  0.00    -0.340 N 
HETATM   25  H6  UNL     1      24.094   2.635  48.704  1.00  0.00     0.167 HD
BRANCH  24  26
HETATM   26  C7  UNL     1      24.373   4.462  49.847  1.00  0.00     0.035 A 
HETATM   27  C8  UNL     1      23.820   5.309  50.754  1.00  0.00     0.032 A 
HETATM   28  C9  UNL     1      24.415   6.555  50.970  1.00  0.00     0.046 A 
HETATM   29  C10 UNL     1      25.546   6.874  50.252  1.00  0.00     0.138 A 
HETATM   30  F1  UNL     1      26.172   8.088  50.415  1.00  0.00    -0.204 F 
HETATM   31  C11 UNL     1      26.152   6.041  49.313  1.00  0.00     0.074 A 
HETATM   32 CL1  UNL     1      27.587   6.486  48.421  1.00  0.00    -0.081 Cl
HETATM   33  C12 UNL     1      25.509   4.822  49.148  1.00  0.00     0.056 A 
ENDBRANCH  24  26
ENDBRANCH   7  24
TORSDOF 5
ENDMDL
MODEL 2
REMARK VINA RESULT:      -9.0      1.483      1.861
REMARK  5 active torsions:
REMARK  status: ('A' for Active; 'I' for Inactive)
REMARK    1  A    between atoms: O1_2  and  C2_3 
REMARK    2  A    between atoms: C6_9  and  N3_10 
REMARK    3  A    between atoms: N3_10  and  C7_11 
REMARK    4  A    between atoms: C15_21  and  N4_22 
REMARK       I    between atoms: N4_22  and  C16_23 
REMARK    5  A    between atoms: C16_23  and  C17_25 
ROOT
HETATM    1  C2  UNL     1      23.974   0.501  53.137  1.00  0.00     0.097 A 
HETATM    2  C3  UNL     1      23.007   0.583  52.133  1.00  0.00     0.071 A 
HETATM    3  C4  UNL     1      22.930   1.769  51.414  1.00  0.00     0.075 A 
HETATM    4  N1  UNL     1      22.030   1.909  50.436  1.00  0.00    -0.241 NA
HETATM    5  C5  UNL     1      21.907   3.027  49.697  1.00  0.00     0.236 A 
HETATM    6  N2  UNL     1      22.754   4.045  49.984  1.00  0.00    -0.224 NA
HETATM    7  C6  UNL     1      23.678   3.958  50.959  1.00  0.00     0.142 A 
HETATM    8  C13 UNL     1      23.786   2.808  51.701  1.00  0.00     0.041 A 
HETATM    9  C14 UNL     1      24.749   2.766  52.676  1.00  0.00     0.050 A 
HETATM   10  C15 UNL     1      24.820   1.592  53.383  1.00  0.00     0.069 A 
ENDROOT
BRANCH  10  11
HETATM   11  N4  UNL     1      25.743   1.340  54.429  1.00  0.00    -0.323 N 
HETATM   12  C16 UNL     1      27.048   1.176  53.899  1.00  0.00     0.258 C 
HETATM   13  O2  UNL     1      27.339   1.257  52.651  1.00  0.00    -0.271 OA
HETATM   14  H11 UNL     1      25.840   1.223  55.472  1.00  0.00     0.169 HD
BRANCH  12  15
HETATM   15  C17 UNL     1      28.413   0.889  54.463  1.00  0.00     0.342 C 
HETATM   16  C18 UNL     1      29.470   1.074  53.437  1.00  0.00     0.219 C 
HETATM   17  O3  UNL     1      30.253  -0.063  53.520  1.00  0.00    -0.331 OA
HETATM   18  C19 UNL     1      29.392  -1.096  53.897  1.00  0.00     0.546 C 
HETATM   19  F2  UNL     1      28.792  -1.683  52.803  1.00  0.00    -0.185 F 
HETATM   20  N5  UNL     1      28.431  -0.502  54.788  1.00  0.00     0.158 N 
HETATM   21  H16 UNL     1      28.618  -0.626  55.795  1.00  0.00     0.323 HD
ENDBRANCH  12  15
ENDBRANCH  10  11
BRANCH   1  22
HETATM   22  O1  UNL     1      24.073  -0.664  53.870  1.00  0.00    -0.354 OA
HETATM   23  C1  UNL     1      23.132  -1.104  54.829  1.00  0.00     0.210 C 
ENDBRANCH   1  22
BRANCH   7  24
HETATM   24  N3  UNL     1      24.504   5.124  51.122  1.00  0.00    -0.340 N 
HETATM   25  H6  UNL     1      24.323   5.813  51.885  1.00  0.00     0.167 HD
BRANCH  24  26
HETATM   26  C7  UNL     1      25.562   5.277  50.182  1.00  0.00     0.035 A 
HETATM   27  C8  UNL     1      26.340   4.240  49.777  1.00  0.00     0.032 A 
HETATM   28  C9  UNL     1      27.376   4.482  48.871  1.00  0.00     0.046 A 
HETATM   29  C10 UNL     1      27.566   5.770  48.422  1.00  0.00     0.138 A 
HETATM   30  F1  UNL     1      28.573   6.072  47.536  1.00  0.00    -0.204 F 
HETATM   31  C11 UNL     1      26.794   6.866  48.805  1.00  0.00     0.074 A 
HETATM   32 CL1  UNL     1      27.070   8.486  48.212  1.00  0.00    -0.081 Cl
HETATM   33  C12 UNL     1      25.786   6.554  49.706  1.00  0.00     0.056 A 
ENDBRANCH  24  26
ENDBRANCH   7  24
TORSDOF 5
ENDMDL
MODEL 3
REMARK VINA RESULT:      -9.0      1.883      2.086
REMARK  5 active torsions:
REMARK  status: ('A' for Active; 'I' for Inactive)
REMARK    1  A    between atoms: O1_2  and  C2_3 
REMARK    2  A    between atoms: C6_9  and  N3_10 
REMARK    3  A    between atoms: N3_10  and  C7_11 
REMARK    4  A    between atoms: C15_21  and  N4_22 
REMARK       I    between atoms: N4_22  and  C16_23 
REMARK    5  A    between atoms: C16_23  and  C17_25 
ROOT
HETATM    1  C2  UNL     1      23.069   0.899  52.806  1.00  0.00     0.097 A 
HETATM    2  C3  UNL     1      21.878   1.376  52.255  1.00  0.00     0.071 A 
HETATM    3  C4  UNL     1      21.799   2.734  51.979  1.00  0.00     0.075 A 
HETATM    4  N1  UNL     1      20.688   3.252  51.446  1.00  0.00    -0.241 NA
HETATM    5  C5  UNL     1      20.549   4.558  51.147  1.00  0.00     0.236 A 
HETATM    6  N2  UNL     1      21.607   5.361  51.414  1.00  0.00    -0.224 NA
HETATM    7  C6  UNL     1      22.748   4.892  51.951  1.00  0.00     0.142 A 
HETATM    8  C13 UNL     1      22.870   3.557  52.248  1.00  0.00     0.041 A 
HETATM    9  C14 UNL     1      24.055   3.128  52.786  1.00  0.00     0.050 A 
HETATM   10  C15 UNL     1      24.126   1.785  53.056  1.00  0.00     0.069 A 
ENDROOT
BRANCH  10  11
HETATM   11  N4  UNL     1      25.259   1.137  53.611  1.00  0.00    -0.323 N 
HETATM   12  C16 UNL     1      26.245   0.937  52.610  1.00  0.00     0.258 C 
HETATM   13  O2  UNL     1      26.119   1.304  51.386  1.00  0.00    -0.271 OA
HETATM   14  H11 UNL     1      25.664   0.735  54.497  1.00  0.00     0.169 HD
BRANCH  12  15
HETATM   15  C17 UNL     1      27.616   0.322  52.556  1.00  0.00     0.342 C 
HETATM   16  C18 UNL     1      27.581  -1.107  52.956  1.00  0.00     0.219 C 
HETATM   17  O3  UNL     1      28.605  -1.247  53.875  1.00  0.00    -0.331 OA
HETATM   18  C19 UNL     1      28.697  -0.022  54.538  1.00  0.00     0.546 C 
HETATM   19  F2  UNL     1      27.841   0.037  55.618  1.00  0.00    -0.185 F 
HETATM   20  N5  UNL     1      28.395   0.983  53.554  1.00  0.00     0.158 N 
HETATM   21  H16 UNL     1      29.211   1.441  53.118  1.00  0.00     0.323 HD
ENDBRANCH  12  15
ENDBRANCH  10  11
BRANCH   1  22
HETATM   22  O1  UNL     1      23.176  -0.447  53.093  1.00  0.00    -0.354 OA
HETATM   23  C1  UNL     1      22.298  -1.171  53.932  1.00  0.00     0.210 C 
ENDBRANCH   1  22
BRANCH   7  24
HETATM   24  N3  UNL     1      23.776   5.877  52.156  1.00  0.00    -0.340 N 
HETATM   25  H6  UNL     1      24.039   6.193  53.116  1.00  0.00     0.167 HD
BRANCH  24  26
HETATM   26  C7  UNL     1      24.392   6.391  50.981  1.00  0.00     0.035 A 
HETATM   27  C8  UNL     1      24.031   7.573  50.419  1.00  0.00     0.032 A 
HETATM   28  C9  UNL     1      24.669   7.991  49.248  1.00  0.00     0.046 A 
HETATM   29  C10 UNL     1      25.646   7.184  48.710  1.00  0.00     0.138 A 
HETATM   30  F1  UNL     1      26.304   7.537  47.555  1.00  0.00    -0.204 F 
HETATM   31  C11 UNL     1      26.054   5.964  49.249  1.00  0.00     0.074 A 
HETATM   32 CL1  UNL     1      27.297   4.968  48.532  1.00  0.00    -0.081 Cl
HETATM   33  C12 UNL     1      25.379   5.611  50.408  1.00  0.00     0.056 A 
ENDBRANCH  24  26
ENDBRANCH   7  24
TORSDOF 5
ENDMDL
MODEL 4
REMARK VINA RESULT:      -9.0      3.199      6.435
REMARK  5 active torsions:
REMARK  status: ('A' for Active; 'I' for Inactive)
REMARK    1  A    between atoms: O1_2  and  C2_3 
REMARK    2  A    between atoms: C6_9  and  N3_10 
REMARK    3  A    between atoms: N3_10  and  C7_11 
REMARK    4  A    between atoms: C15_21  and  N4_22 
REMARK       I    between atoms: N4_22  and  C16_23 
REMARK    5  A    between atoms: C16_23  and  C17_25 
ROOT
HETATM    1  C2  UNL     1      20.926   2.780  52.416  1.00  0.00     0.097 A 
HETATM    2  C3  UNL     1      20.848   1.702  53.299  1.00  0.00     0.071 A 
HETATM    3  C4  UNL     1      21.947   0.855  53.375  1.00  0.00     0.075 A 
HETATM    4  N1  UNL     1      21.938  -0.191  54.205  1.00  0.00    -0.241 NA
HETATM    5  C5  UNL     1      22.971  -1.046  54.332  1.00  0.00     0.236 A 
HETATM    6  N2  UNL     1      24.060  -0.804  53.563  1.00  0.00    -0.224 NA
HETATM    7  C6  UNL     1      24.122   0.235  52.710  1.00  0.00     0.142 A 
HETATM    8  C13 UNL     1      23.057   1.094  52.596  1.00  0.00     0.041 A 
HETATM    9  C14 UNL     1      23.173   2.142  51.719  1.00  0.00     0.050 A 
HETATM   10  C15 UNL     1      22.084   2.974  51.650  1.00  0.00     0.069 A 
ENDROOT
BRANCH  10  11
HETATM   11  N4  UNL     1      21.998   4.113  50.811  1.00  0.00    -0.323 N 
HETATM   12  C16 UNL     1      22.719   5.194  51.382  1.00  0.00     0.258 C 
HETATM   13  O2  UNL     1      23.360   5.131  52.492  1.00  0.00    -0.271 OA
HETATM   14  H11 UNL     1      21.596   4.481  49.909  1.00  0.00     0.169 HD
BRANCH  12  15
HETATM   15  C17 UNL     1      22.997   6.623  51.004  1.00  0.00     0.342 C 
HETATM   16  C18 UNL     1      23.204   6.763  49.541  1.00  0.00     0.219 C 
HETATM   17  O3  UNL     1      24.359   7.512  49.412  1.00  0.00    -0.331 OA
HETATM   18  C19 UNL     1      25.155   7.183  50.510  1.00  0.00     0.546 C 
HETATM   19  F2  UNL     1      25.938   6.076  50.257  1.00  0.00    -0.185 F 
HETATM   20  N5  UNL     1      24.247   6.964  51.605  1.00  0.00     0.158 N 
HETATM   21  H16 UNL     1      24.123   7.760  52.249  1.00  0.00     0.323 HD
ENDBRANCH  12  15
ENDBRANCH  10  11
BRANCH   1  22
HETATM   22  O1  UNL     1      19.848   3.637  52.319  1.00  0.00    -0.354 OA
HETATM   23  C1  UNL     1      18.672   3.383  51.577  1.00  0.00     0.210 C 
ENDBRANCH   1  22
BRANCH   7  24
HETATM   24  N3  UNL     1      25.356   0.353  51.981  1.00  0.00    -0.340 N 
HETATM   25  H6  UNL     1      25.409   0.125  50.964  1.00  0.00     0.167 HD
BRANCH  24  26
HETATM   26  C7  UNL     1      26.485   0.787  52.732  1.00  0.00     0.035 A 
HETATM   27  C8  UNL     1      26.583   2.036  53.256  1.00  0.00     0.032 A 
HETATM   28  C9  UNL     1      27.739   2.389  53.957  1.00  0.00     0.046 A 
HETATM   29  C10 UNL     1      28.738   1.451  54.090  1.00  0.00     0.138 A 
HETATM   30  F1  UNL     1      29.901   1.742  54.762  1.00  0.00    -0.204 F 
HETATM   31  C11 UNL     1      28.685   0.157  53.573  1.00  0.00     0.074 A 
HETATM   32 CL1  UNL     1      29.976  -1.004  53.762  1.00  0.00    -0.081 Cl
HETATM   33  C12 UNL     1      27.511  -0.126  52.889  1.00  0.00     0.056 A 
ENDBRANCH  24  26
ENDBRANCH   7  24
TORSDOF 5
ENDMDL
MODEL 5
REMARK VINA RESULT:      -8.9      4.643      7.775
REMARK  5 active torsions:
REMARK  status: ('A' for Active; 'I' for Inactive)
REMARK    1  A    between atoms: O1_2  and  C2_3 
REMARK    2  A    between atoms: C6_9  and  N3_10 
REMARK    3  A    between atoms: N3_10  and  C7_11 
REMARK    4  A    between atoms: C15_21  and  N4_22 
REMARK       I    between atoms: N4_22  and  C16_23 
REMARK    5  A    between atoms: C16_23  and  C17_25 
ROOT
HETATM    1  C2  UNL     1      20.099  -0.502  53.209  1.00  0.00     0.097 A 
HETATM    2  C3  UNL     1      20.660  -1.129  54.324  1.00  0.00     0.071 A 
HETATM    3  C4  UNL     1      22.037  -1.038  54.485  1.00  0.00     0.075 A 
HETATM    4  N1  UNL     1      22.634  -1.611  55.533  1.00  0.00    -0.241 NA
HETATM    5  C5  UNL     1      23.962  -1.555  55.752  1.00  0.00     0.236 A 
HETATM    6  N2  UNL     1      24.702  -0.876  54.842  1.00  0.00    -0.224 NA
HETATM    7  C6  UNL     1      24.151  -0.281  53.768  1.00  0.00     0.142 A 
HETATM    8  C13 UNL     1      22.795  -0.350  53.564  1.00  0.00     0.041 A 
HETATM    9  C14 UNL     1      22.283   0.280  52.459  1.00  0.00     0.050 A 
HETATM   10  C15 UNL     1      20.923   0.186  52.307  1.00  0.00     0.069 A 
ENDROOT
BRANCH  10  11
HETATM   11  N4  UNL     1      20.194   0.765  51.238  1.00  0.00    -0.323 N 
HETATM   12  C16 UNL     1      19.775   2.075  51.587  1.00  0.00     0.258 C 
HETATM   13  O2  UNL     1      20.035   2.644  52.708  1.00  0.00    -0.271 OA
HETATM   14  H11 UNL     1      19.831   0.598  50.262  1.00  0.00     0.169 HD
BRANCH  12  15
HETATM   15  C17 UNL     1      18.989   3.169  50.918  1.00  0.00     0.342 C 
HETATM   16  C18 UNL     1      17.602   3.234  51.443  1.00  0.00     0.219 C 
HETATM   17  O3  UNL     1      16.795   3.285  50.321  1.00  0.00    -0.331 OA
HETATM   18  C19 UNL     1      17.461   2.553  49.335  1.00  0.00     0.546 C 
HETATM   19  F2  UNL     1      17.151   1.211  49.402  1.00  0.00    -0.185 F 
HETATM   20  N5  UNL     1      18.864   2.795  49.545  1.00  0.00     0.158 N 
HETATM   21  H16 UNL     1      19.288   3.518  48.943  1.00  0.00     0.323 HD
ENDBRANCH  12  15
ENDBRANCH  10  11
BRANCH   1  22
HETATM   22  O1  UNL     1      18.734  -0.577  53.023  1.00  0.00    -0.354 OA
HETATM   23  C1  UNL     1      17.922  -1.673  53.395  1.00  0.00     0.210 C 
ENDBRANCH   1  22
BRANCH   7  24
HETATM   24  N3  UNL     1      25.078   0.409  52.912  1.00  0.00    -0.340 N 
HETATM   25  H6  UNL     1      24.749   1.103  52.204  1.00  0.00     0.167 HD
BRANCH  24  26
HETATM   26  C7  UNL     1      26.452   0.081  53.085  1.00  0.00     0.035 A 
HETATM   27  C8  UNL     1      26.963  -1.136  52.764  1.00  0.00     0.032 A 
HETATM   28  C9  UNL     1      28.318  -1.385  52.991  1.00  0.00     0.046 A 
HETATM   29  C10 UNL     1      29.088  -0.380  53.534  1.00  0.00     0.138 A 
HETATM   30  F1  UNL     1      30.426  -0.567  53.789  1.00  0.00    -0.204 F 
HETATM   31  C11 UNL     1      28.612   0.885  53.880  1.00  0.00     0.074 A 
HETATM   32 CL1  UNL     1      29.622   2.133  54.569  1.00  0.00    -0.081 Cl
HETATM   33  C12 UNL     1      27.259   1.063  53.628  1.00  0.00     0.056 A 
ENDBRANCH  24  26
ENDBRANCH   7  24
TORSDOF 5
ENDMDL
MODEL 6
REMARK VINA RESULT:      -8.8      2.437      2.806
REMARK  5 active torsions:
REMARK  status: ('A' for Active; 'I' for Inactive)
REMARK    1  A    between atoms: O1_2  and  C2_3 
REMARK    2  A    between atoms: C6_9  and  N3_10 
REMARK    3  A    between atoms: N3_10  and  C7_11 
REMARK    4  A    between atoms: C15_21  and  N4_22 
REMARK       I    between atoms: N4_22  and  C16_23 
REMARK    5  A    between atoms: C16_23  and  C17_25 
ROOT
HETATM    1  C2  UNL     1      23.585  -0.061  53.724  1.00  0.00     0.097 A 
HETATM    2  C3  UNL     1      22.228   0.266  53.772  1.00  0.00     0.071 A 
HETATM    3  C4  UNL     1      21.792   1.311  52.968  1.00  0.00     0.075 A 
HETATM    4  N1  UNL     1      20.505   1.669  52.963  1.00  0.00    -0.241 NA
HETATM    5  C5  UNL     1      20.016   2.667  52.203  1.00  0.00     0.236 A 
HETATM    6  N2  UNL     1      20.902   3.323  51.414  1.00  0.00    -0.224 NA
HETATM    7  C6  UNL     1      22.208   3.004  51.380  1.00  0.00     0.142 A 
HETATM    8  C13 UNL     1      22.686   1.982  52.164  1.00  0.00     0.041 A 
HETATM    9  C14 UNL     1      24.023   1.690  52.087  1.00  0.00     0.050 A 
HETATM   10  C15 UNL     1      24.447   0.657  52.884  1.00  0.00     0.069 A 
ENDROOT
BRANCH  10  11
HETATM   11  N4  UNL     1      25.785   0.195  52.953  1.00  0.00    -0.323 N 
HETATM   12  C16 UNL     1      26.525   0.979  53.876  1.00  0.00     0.258 C 
HETATM   13  O2  UNL     1      26.037   1.956  54.550  1.00  0.00    -0.271 OA
HETATM   14  H11 UNL     1      26.462  -0.520  52.576  1.00  0.00     0.169 HD
BRANCH  12  15
HETATM   15  C17 UNL     1      27.944   1.003  54.375  1.00  0.00     0.342 C 
HETATM   16  C18 UNL     1      28.899   1.268  53.270  1.00  0.00     0.219 C 
HETATM   17  O3  UNL     1      29.882   0.305  53.408  1.00  0.00    -0.331 OA
HETATM   18  C19 UNL     1      29.247  -0.820  53.935  1.00  0.00     0.546 C 
HETATM   19  F2  UNL     1      28.716  -1.617  52.942  1.00  0.00    -0.185 F 
HETATM   20  N5  UNL     1      28.235  -0.320  54.827  1.00  0.00     0.158 N 
HETATM   21  H16 UNL     1      28.488  -0.304  55.827  1.00  0.00     0.323 HD
ENDBRANCH  12  15
ENDBRANCH  10  11
BRANCH   1  22
HETATM   22  O1  UNL     1      24.046  -1.094  54.514  1.00  0.00    -0.354 OA
HETATM   23  C1  UNL     1      23.436  -1.539  55.709  1.00  0.00     0.210 C 
ENDBRANCH   1  22
BRANCH   7  24
HETATM   24  N3  UNL     1      23.005   3.790  50.477  1.00  0.00    -0.340 N 
HETATM   25  H6  UNL     1      23.756   4.425  50.830  1.00  0.00     0.167 HD
BRANCH  24  26
HETATM   26  C7  UNL     1      22.700   3.654  49.094  1.00  0.00     0.035 A 
HETATM   27  C8  UNL     1      22.582   2.447  48.483  1.00  0.00     0.032 A 
HETATM   28  C9  UNL     1      22.306   2.403  47.114  1.00  0.00     0.046 A 
HETATM   29  C10 UNL     1      22.163   3.593  46.436  1.00  0.00     0.138 A 
HETATM   30  F1  UNL     1      21.899   3.615  45.086  1.00  0.00    -0.204 F 
HETATM   31  C11 UNL     1      22.273   4.856  47.017  1.00  0.00     0.074 A 
HETATM   32 CL1  UNL     1      22.085   6.343  46.119  1.00  0.00    -0.081 Cl
HETATM   33  C12 UNL     1      22.547   4.825  48.376  1.00  0.00     0.056 A 
ENDBRANCH  24  26
ENDBRANCH   7  24
TORSDOF 5
ENDMDL
MODEL 7
REMARK VINA RESULT:      -8.7      3.597      5.998
REMARK  5 active torsions:
REMARK  status: ('A' for Active; 'I' for Inactive)
REMARK    1  A    between atoms: O1_2  and  C2_3 
REMARK    2  A    between atoms: C6_9  and  N3_10 
REMARK    3  A    between atoms: N3_10  and  C7_11 
REMARK    4  A    between atoms: C15_21  and  N4_22 
REMARK       I    between atoms: N4_22  and  C16_23 
REMARK    5  A    between atoms: C16_23  and  C17_25 
ROOT
HETATM    1  C2  UNL     1      24.923   3.397  49.939  1.00  0.00     0.097 A 
HETATM    2  C3  UNL     1      24.011   3.410  48.881  1.00  0.00     0.071 A 
HETATM    3  C4  UNL     1      22.665   3.276  49.193  1.00  0.00     0.075 A 
HETATM    4  N1  UNL     1      21.743   3.287  48.227  1.00  0.00    -0.241 NA
HETATM    5  C5  UNL     1      20.422   3.168  48.461  1.00  0.00     0.236 A 
HETATM    6  N2  UNL     1      20.042   3.032  49.755  1.00  0.00    -0.224 NA
HETATM    7  C6  UNL     1      20.929   3.014  50.767  1.00  0.00     0.142 A 
HETATM    8  C13 UNL     1      22.272   3.136  50.505  1.00  0.00     0.041 A 
HETATM    9  C14 UNL     1      23.134   3.120  51.571  1.00  0.00     0.050 A 
HETATM   10  C15 UNL     1      24.462   3.253  51.255  1.00  0.00     0.069 A 
ENDROOT
BRANCH  10  11
HETATM   11  N4  UNL     1      25.515   3.264  52.204  1.00  0.00    -0.323 N 
HETATM   12  C16 UNL     1      26.000   1.947  52.409  1.00  0.00     0.258 C 
HETATM   13  O2  UNL     1      25.548   0.907  51.807  1.00  0.00    -0.271 OA
HETATM   14  H11 UNL     1      26.090   3.883  52.834  1.00  0.00     0.169 HD
BRANCH  12  15
HETATM   15  C17 UNL     1      27.061   1.310  53.264  1.00  0.00     0.342 C 
HETATM   16  C18 UNL     1      27.227  -0.128  52.935  1.00  0.00     0.219 C 
HETATM   17  O3  UNL     1      27.211  -0.779  54.156  1.00  0.00    -0.331 OA
HETATM   18  C19 UNL     1      26.370  -0.029  54.980  1.00  0.00     0.546 C 
HETATM   19  F2  UNL     1      25.053  -0.414  54.846  1.00  0.00    -0.185 F 
HETATM   20  N5  UNL     1      26.574   1.345  54.606  1.00  0.00     0.158 N 
HETATM   21  H16 UNL     1      27.223   1.880  55.204  1.00  0.00     0.323 HD
ENDBRANCH  12  15
ENDBRANCH  10  11
BRANCH   1  22
HETATM   22  O1  UNL     1      26.268   3.527  49.658  1.00  0.00    -0.354 OA
HETATM   23  C1  UNL     1      26.864   4.646  49.033  1.00  0.00     0.210 C 
ENDBRANCH   1  22
BRANCH   7  24
HETATM   24  N3  UNL     1      20.355   2.876  52.078  1.00  0.00    -0.340 N 
HETATM   25  H6  UNL     1      20.224   3.703  52.702  1.00  0.00     0.167 HD
BRANCH  24  26
HETATM   26  C7  UNL     1      19.994   1.555  52.466  1.00  0.00     0.035 A 
HETATM   27  C8  UNL     1      18.873   0.937  52.011  1.00  0.00     0.032 A 
HETATM   28  C9  UNL     1      18.577  -0.351  52.464  1.00  0.00     0.046 A 
HETATM   29  C10 UNL     1      19.440  -0.947  53.356  1.00  0.00     0.138 A 
HETATM   30  F1  UNL     1      19.199  -2.210  53.843  1.00  0.00    -0.204 F 
HETATM   31  C11 UNL     1      20.603  -0.357  53.850  1.00  0.00     0.074 A 
HETATM   32 CL1  UNL     1      21.671  -1.147  54.984  1.00  0.00    -0.081 Cl
HETATM   33  C12 UNL     1      20.834   0.920  53.361  1.00  0.00     0.056 A 
ENDBRANCH  24  26
ENDBRANCH   7  24
TORSDOF 5
ENDMDL
MODEL 8
REMARK VINA RESULT:      -8.5      2.326      3.064
REMARK  5 active torsions:
REMARK  status: ('A' for Active; 'I' for Inactive)
REMARK    1  A    between atoms: O1_2  and  C2_3 
REMARK    2  A    between atoms: C6_9  and  N3_10 
REMARK    3  A    between atoms: N3_10  and  C7_11 
REMARK    4  A    between atoms: C15_21  and  N4_22 
REMARK       I    between atoms: N4_22  and  C16_23 
REMARK    5  A    between atoms: C16_23  and  C17_25 
ROOT
HETATM    1  C2  UNL     1      22.504   2.277  52.421  1.00  0.00     0.097 A 
HETATM    2  C3  UNL     1      21.498   3.028  51.810  1.00  0.00     0.071 A 
HETATM    3  C4  UNL     1      21.797   4.340  51.466  1.00  0.00     0.075 A 
HETATM    4  N1  UNL     1      20.879   5.109  50.873  1.00  0.00    -0.241 NA
HETATM    5  C5  UNL     1      21.106   6.385  50.508  1.00  0.00     0.236 A 
HETATM    6  N2  UNL     1      22.338   6.886  50.770  1.00  0.00    -0.224 NA
HETATM    7  C6  UNL     1      23.299   6.155  51.366  1.00  0.00     0.142 A 
HETATM    8  C13 UNL     1      23.046   4.855  51.730  1.00  0.00     0.041 A 
HETATM    9  C14 UNL     1      24.060   4.151  52.326  1.00  0.00     0.050 A 
HETATM   10  C15 UNL     1      23.758   2.856  52.663  1.00  0.00     0.069 A 
ENDROOT
BRANCH  10  11
HETATM   11  N4  UNL     1      24.661   1.958  53.285  1.00  0.00    -0.323 N 
HETATM   12  C16 UNL     1      25.656   1.549  52.360  1.00  0.00     0.258 C 
HETATM   13  O2  UNL     1      25.723   1.951  51.143  1.00  0.00    -0.271 OA
HETATM   14  H11 UNL     1      24.886   1.461  54.187  1.00  0.00     0.169 HD
BRANCH  12  15
HETATM   15  C17 UNL     1      26.850   0.634  52.395  1.00  0.00     0.342 C 
HETATM   16  C18 UNL     1      26.456  -0.752  52.749  1.00  0.00     0.219 C 
HETATM   17  O3  UNL     1      27.340  -1.135  53.741  1.00  0.00    -0.331 OA
HETATM   18  C19 UNL     1      27.654   0.029  54.445  1.00  0.00     0.546 C 
HETATM   19  F2  UNL     1      26.748   0.272  55.456  1.00  0.00    -0.185 F 
HETATM   20  N5  UNL     1      27.674   1.087  53.470  1.00  0.00     0.158 N 
HETATM   21  H16 UNL     1      28.606   1.350  53.114  1.00  0.00     0.323 HD
ENDBRANCH  12  15
ENDBRANCH  10  11
BRANCH   1  22
HETATM   22  O1  UNL     1      22.234   0.971  52.776  1.00  0.00    -0.354 OA
HETATM   23  C1  UNL     1      21.005   0.507  53.295  1.00  0.00     0.210 C 
ENDBRANCH   1  22
BRANCH   7  24
HETATM   24  N3  UNL     1      24.551   6.835  51.556  1.00  0.00    -0.340 N 
HETATM   25  H6  UNL     1      24.789   7.286  52.467  1.00  0.00     0.167 HD
BRANCH  24  26
HETATM   26  C7  UNL     1      25.427   6.857  50.435  1.00  0.00     0.035 A 
HETATM   27  C8  UNL     1      25.668   5.762  49.669  1.00  0.00     0.032 A 
HETATM   28  C9  UNL     1      26.564   5.864  48.601  1.00  0.00     0.046 A 
HETATM   29  C10 UNL     1      27.168   7.079  48.366  1.00  0.00     0.138 A 
HETATM   30  F1  UNL     1      28.064   7.239  47.335  1.00  0.00    -0.204 F 
HETATM   31  C11 UNL     1      26.953   8.232  49.121  1.00  0.00     0.074 A 
HETATM   32 CL1  UNL     1      27.742   9.754  48.789  1.00  0.00    -0.081 Cl
HETATM   33  C12 UNL     1      26.054   8.059  50.163  1.00  0.00     0.056 A 
ENDBRANCH  24  26
ENDBRANCH   7  24
TORSDOF 5
ENDMDL
MODEL 9
REMARK VINA RESULT:      -8.5      5.252      7.949
REMARK  5 active torsions:
REMARK  status: ('A' for Active; 'I' for Inactive)
REMARK    1  A    between atoms: O1_2  and  C2_3 
REMARK    2  A    between atoms: C6_9  and  N3_10 
REMARK    3  A    between atoms: N3_10  and  C7_11 
REMARK    4  A    between atoms: C15_21  and  N4_22 
REMARK       I    between atoms: N4_22  and  C16_23 
REMARK    5  A    between atoms: C16_23  and  C17_25 
ROOT
HETATM    1  C2  UNL     1      28.998   7.480  48.114  1.00  0.00     0.097 A 
HETATM    2  C3  UNL     1      27.866   8.028  48.721  1.00  0.00     0.071 A 
HETATM    3  C4  UNL     1      26.891   7.147  49.172  1.00  0.00     0.075 A 
HETATM    4  N1  UNL     1      25.788   7.608  49.767  1.00  0.00    -0.241 NA
HETATM    5  C5  UNL     1      24.809   6.809  50.233  1.00  0.00     0.236 A 
HETATM    6  N2  UNL     1      24.982   5.475  50.074  1.00  0.00    -0.224 NA
HETATM    7  C6  UNL     1      26.074   4.958  49.482  1.00  0.00     0.142 A 
HETATM    8  C13 UNL     1      27.061   5.790  49.013  1.00  0.00     0.041 A 
HETATM    9  C14 UNL     1      28.157   5.214  48.425  1.00  0.00     0.050 A 
HETATM   10  C15 UNL     1      29.115   6.089  47.982  1.00  0.00     0.069 A 
ENDROOT
BRANCH  10  11
HETATM   11  N4  UNL     1      30.323   5.702  47.348  1.00  0.00    -0.323 N 
HETATM   12  C16 UNL     1      31.331   5.471  48.320  1.00  0.00     0.258 C 
HETATM   13  O2  UNL     1      31.156   5.589  49.587  1.00  0.00    -0.271 OA
HETATM   14  H11 UNL     1      30.776   5.517  46.415  1.00  0.00     0.169 HD
BRANCH  12  15
HETATM   15  C17 UNL     1      32.778   5.062  48.296  1.00  0.00     0.342 C 
HETATM   16  C18 UNL     1      33.438   5.494  47.039  1.00  0.00     0.219 C 
HETATM   17  O3  UNL     1      34.110   4.374  46.582  1.00  0.00    -0.331 OA
HETATM   18  C19 UNL     1      33.346   3.278  46.988  1.00  0.00     0.546 C 
HETATM   19  F2  UNL     1      32.368   2.970  46.066  1.00  0.00    -0.185 F 
HETATM   20  N5  UNL     1      32.793   3.634  48.268  1.00  0.00     0.158 N 
HETATM   21  H16 UNL     1      33.298   3.270  49.090  1.00  0.00     0.323 HD
ENDBRANCH  12  15
ENDBRANCH  10  11
BRANCH   1  22
HETATM   22  O1  UNL     1      29.982   8.331  47.654  1.00  0.00    -0.354 OA
HETATM   23  C1  UNL     1      30.509   9.428  48.373  1.00  0.00     0.210 C 
ENDBRANCH   1  22
BRANCH   7  24
HETATM   24  N3  UNL     1      26.105   3.522  49.407  1.00  0.00    -0.340 N 
HETATM   25  H6  UNL     1      26.254   3.029  48.498  1.00  0.00     0.167 HD
BRANCH  24  26
HETATM   26  C7  UNL     1      25.914   2.828  50.635  1.00  0.00     0.035 A 
HETATM   27  C8  UNL     1      24.707   2.341  51.023  1.00  0.00     0.032 A 
HETATM   28  C9  UNL     1      24.600   1.697  52.258  1.00  0.00     0.046 A 
HETATM   29  C10 UNL     1      25.730   1.578  53.036  1.00  0.00     0.138 A 
HETATM   30  F1  UNL     1      25.686   0.961  54.264  1.00  0.00    -0.204 F 
HETATM   31  C11 UNL     1      26.990   2.059  52.683  1.00  0.00     0.074 A 
HETATM   32 CL1  UNL     1      28.400   1.890  53.701  1.00  0.00    -0.081 Cl
HETATM   33  C12 UNL     1      27.024   2.688  51.446  1.00  0.00     0.056 A 
ENDBRANCH  24  26
ENDBRANCH   7  24
TORSDOF 5
ENDMDL
