MODEL 1
REMARK VINA RESULT:      -7.7      0.000      0.000
REMARK  10 active torsions:
REMARK  status: ('A' for Active; 'I' for Inactive)
REMARK    1  A    between atoms: O1_2  and  C2_3 
REMARK    2  A    between atoms: C6_9  and  N3_10 
REMARK    3  A    between atoms: N3_10  and  C7_11 
REMARK    4  A    between atoms: C7_11  and  C8_12 
REMARK    5  A    between atoms: C9_13  and  C10_15 
REMARK    6  A    between atoms: C14_20  and  O2_21 
REMARK    7  A    between atoms: O2_21  and  C15_22 
REMARK    8  A    between atoms: C15_22  and  C16_23 
REMARK    9  A    between atoms: C16_23  and  C17_24 
REMARK   10  A    between atoms: C17_24  and  N4_25 
ROOT
HETATM    1  C2  UNL     1      27.331   0.786  53.311  1.00  0.00     0.103 A 
HETATM    2  C3  UNL     1      26.907   0.054  54.412  1.00  0.00     0.072 A 
HETATM    3  C4  UNL     1      25.596  -0.350  54.537  1.00  0.00     0.075 A 
HETATM    4  N1  UNL     1      25.153  -1.051  55.591  1.00  0.00    -0.241 NA
HETATM    5  C5  UNL     1      23.861  -1.423  55.679  1.00  0.00     0.235 A 
HETATM    6  N2  UNL     1      22.994  -1.096  54.707  1.00  0.00    -0.224 NA
HETATM    7  C6  UNL     1      23.340  -0.397  53.614  1.00  0.00     0.137 A 
HETATM    8  C12 UNL     1      24.664  -0.027  53.544  1.00  0.00     0.041 A 
HETATM    9  C13 UNL     1      25.125   0.697  52.469  1.00  0.00     0.057 A 
HETATM   10  C14 UNL     1      26.437   1.119  52.316  1.00  0.00     0.103 A 
ENDROOT
BRANCH  10  11
HETATM   11  O2  UNL     1      26.832   1.848  51.204  1.00  0.00    -0.348 OA
BRANCH  11  12
HETATM   12  C15 UNL     1      26.115   3.019  50.866  1.00  0.00     0.177 C 
BRANCH  12  13
HETATM   13  C16 UNL     1      26.524   3.522  49.491  1.00  0.00     0.046 C 
BRANCH  13  14
HETATM   14  C17 UNL     1      26.113   4.958  49.288  1.00  0.00     0.119 C 
BRANCH  14  15
HETATM   15  N4  UNL     1      27.087   5.643  48.518  1.00  0.00    -0.412 N 
HETATM   16  C18 UNL     1      28.391   5.090  48.532  1.00  0.00     0.117 C 
HETATM   17  C19 UNL     1      29.493   6.085  48.247  1.00  0.00     0.019 C 
HETATM   18  C20 UNL     1      29.040   7.003  47.159  1.00  0.00     0.003 C 
HETATM   19  C21 UNL     1      27.840   7.795  47.612  1.00  0.00     0.019 C 
HETATM   20  C22 UNL     1      27.031   7.080  48.654  1.00  0.00     0.117 C 
ENDBRANCH  14  15
ENDBRANCH  13  14
ENDBRANCH  12  13
ENDBRANCH  11  12
ENDBRANCH  10  11
BRANCH   1  21
HETATM   21  O1  UNL     1      28.655   1.193  53.189  1.00  0.00    -0.353 OA
HETATM   22  C1  UNL     1      29.231   2.073  54.163  1.00  0.00     0.210 C 
ENDBRANCH   1  21
BRANCH   7  23
HETATM   23  N3  UNL     1      22.387  -0.080  52.611  1.00  0.00    -0.370 N 
HETATM   24  H6  UNL     1      22.288  -0.502  51.675  1.00  0.00     0.161 HD
BRANCH  23  25
HETATM   25  C7  UNL     1      21.412   0.967  52.903  1.00  0.00     0.150 C 
BRANCH  25  26
HETATM   26  C8  UNL     1      21.770   2.276  52.317  1.00  0.00     0.015 C 
HETATM   27  C9  UNL     1      22.269   2.560  51.116  1.00  0.00     0.043 C 
HETATM   28 CL1  UNL     1      22.655   4.198  50.551  1.00  0.00    -0.086 Cl
BRANCH  27  29
HETATM   29  C10 UNL     1      22.642   1.853  49.865  1.00  0.00     0.210 C 
HETATM   30  C11 UNL     1      22.875   2.883  48.761  1.00  0.00     0.051 C 
HETATM   31  F1  UNL     1      21.680   0.962  49.435  1.00  0.00    -0.244 F 
ENDBRANCH  27  29
ENDBRANCH  25  26
ENDBRANCH  23  25
ENDBRANCH   7  23
TORSDOF 10
ENDMDL
MODEL 2
REMARK VINA RESULT:      -7.6      3.450      5.808
REMARK  10 active torsions:
REMARK  status: ('A' for Active; 'I' for Inactive)
REMARK    1  A    between atoms: O1_2  and  C2_3 
REMARK    2  A    between atoms: C6_9  and  N3_10 
REMARK    3  A    between atoms: N3_10  and  C7_11 
REMARK    4  A    between atoms: C7_11  and  C8_12 
REMARK    5  A    between atoms: C9_13  and  C10_15 
REMARK    6  A    between atoms: C14_20  and  O2_21 
REMARK    7  A    between atoms: O2_21  and  C15_22 
REMARK    8  A    between atoms: C15_22  and  C16_23 
REMARK    9  A    between atoms: C16_23  and  C17_24 
REMARK   10  A    between atoms: C17_24  and  N4_25 
ROOT
HETATM    1  C2  UNL     1      20.165  -0.041  52.658  1.00  0.00     0.103 A 
HETATM    2  C3  UNL     1      20.523  -0.798  53.766  1.00  0.00     0.072 A 
HETATM    3  C4  UNL     1      21.832  -0.861  54.192  1.00  0.00     0.075 A 
HETATM    4  N1  UNL     1      22.212  -1.589  55.253  1.00  0.00    -0.241 NA
HETATM    5  C5  UNL     1      23.503  -1.630  55.635  1.00  0.00     0.235 A 
HETATM    6  N2  UNL     1      24.432  -0.939  54.956  1.00  0.00    -0.224 NA
HETATM    7  C6  UNL     1      24.153  -0.183  53.882  1.00  0.00     0.137 A 
HETATM    8  C12 UNL     1      22.828  -0.155  53.508  1.00  0.00     0.041 A 
HETATM    9  C13 UNL     1      22.431   0.583  52.418  1.00  0.00     0.057 A 
HETATM   10  C14 UNL     1      21.124   0.666  51.964  1.00  0.00     0.103 A 
ENDROOT
BRANCH  10  11
HETATM   11  O2  UNL     1      20.795   1.431  50.855  1.00  0.00    -0.348 OA
BRANCH  11  12
HETATM   12  C15 UNL     1      21.074   0.920  49.566  1.00  0.00     0.177 C 
BRANCH  12  13
HETATM   13  C16 UNL     1      21.907   1.907  48.765  1.00  0.00     0.046 C 
BRANCH  13  14
HETATM   14  C17 UNL     1      22.221   3.141  49.572  1.00  0.00     0.119 C 
BRANCH  14  15
HETATM   15  N4  UNL     1      23.601   3.452  49.475  1.00  0.00    -0.412 N 
HETATM   16  C18 UNL     1      24.473   2.656  50.258  1.00  0.00     0.117 C 
HETATM   17  C19 UNL     1      25.776   3.330  50.620  1.00  0.00     0.019 C 
HETATM   18  C20 UNL     1      26.264   4.098  49.434  1.00  0.00     0.003 C 
HETATM   19  C21 UNL     1      25.286   5.192  49.085  1.00  0.00     0.019 C 
HETATM   20  C22 UNL     1      23.881   4.869  49.499  1.00  0.00     0.117 C 
ENDBRANCH  14  15
ENDBRANCH  13  14
ENDBRANCH  12  13
ENDBRANCH  11  12
ENDBRANCH  10  11
BRANCH   1  21
HETATM   21  O1  UNL     1      18.844   0.020  52.231  1.00  0.00    -0.353 OA
HETATM   22  C1  UNL     1      17.887  -0.939  52.704  1.00  0.00     0.210 C 
ENDBRANCH   1  21
BRANCH   7  23
HETATM   23  N3  UNL     1      25.171   0.533  53.199  1.00  0.00    -0.370 N 
HETATM   24  H6  UNL     1      25.397   1.537  53.272  1.00  0.00     0.161 HD
BRANCH  23  25
HETATM   25  C7  UNL     1      26.022  -0.209  52.273  1.00  0.00     0.150 C 
BRANCH  25  26
HETATM   26  C8  UNL     1      27.339  -0.557  52.844  1.00  0.00     0.015 C 
HETATM   27  C9  UNL     1      28.334   0.238  53.232  1.00  0.00     0.043 C 
HETATM   28 CL1  UNL     1      29.875  -0.334  53.902  1.00  0.00    -0.086 Cl
BRANCH  27  29
HETATM   29  C10 UNL     1      28.625   1.690  53.346  1.00  0.00     0.210 C 
HETATM   30  C11 UNL     1      29.526   1.925  54.557  1.00  0.00     0.051 C 
HETATM   31  F1  UNL     1      27.490   2.463  53.489  1.00  0.00    -0.244 F 
ENDBRANCH  27  29
ENDBRANCH  25  26
ENDBRANCH  23  25
ENDBRANCH   7  23
TORSDOF 10
ENDMDL
MODEL 3
REMARK VINA RESULT:      -7.5      1.596      2.343
REMARK  10 active torsions:
REMARK  status: ('A' for Active; 'I' for Inactive)
REMARK    1  A    between atoms: O1_2  and  C2_3 
REMARK    2  A    between atoms: C6_9  and  N3_10 
REMARK    3  A    between atoms: N3_10  and  C7_11 
REMARK    4  A    between atoms: C7_11  and  C8_12 
REMARK    5  A    between atoms: C9_13  and  C10_15 
REMARK    6  A    between atoms: C14_20  and  O2_21 
REMARK    7  A    between atoms: O2_21  and  C15_22 
REMARK    8  A    between atoms: C15_22  and  C16_23 
REMARK    9  A    between atoms: C16_23  and  C17_24 
REMARK   10  A    between atoms: C17_24  and  N4_25 
ROOT
HETATM    1  C2  UNL     1      27.291   0.572  53.456  1.00  0.00     0.103 A 
HETATM    2  C3  UNL     1      26.805  -0.085  54.578  1.00  0.00     0.072 A 
HETATM    3  C4  UNL     1      25.488  -0.480  54.656  1.00  0.00     0.075 A 
HETATM    4  N1  UNL     1      24.984  -1.111  55.728  1.00  0.00    -0.241 NA
HETATM    5  C5  UNL     1      23.689  -1.476  55.768  1.00  0.00     0.235 A 
HETATM    6  N2  UNL     1      22.878  -1.214  54.730  1.00  0.00    -0.224 NA
HETATM    7  C6  UNL     1      23.286  -0.589  53.615  1.00  0.00     0.137 A 
HETATM    8  C12 UNL     1      24.614  -0.224  53.593  1.00  0.00     0.041 A 
HETATM    9  C13 UNL     1      25.136   0.428  52.501  1.00  0.00     0.057 A 
HETATM   10  C14 UNL     1      26.455   0.840  52.393  1.00  0.00     0.103 A 
ENDROOT
BRANCH  10  11
HETATM   11  O2  UNL     1      26.914   1.494  51.260  1.00  0.00    -0.348 OA
BRANCH  11  12
HETATM   12  C15 UNL     1      26.546   2.845  51.056  1.00  0.00     0.177 C 
BRANCH  12  13
HETATM   13  C16 UNL     1      26.420   3.149  49.572  1.00  0.00     0.046 C 
BRANCH  13  14
HETATM   14  C17 UNL     1      26.525   4.630  49.306  1.00  0.00     0.119 C 
BRANCH  14  15
HETATM   15  N4  UNL     1      25.364   5.296  49.774  1.00  0.00    -0.412 N 
HETATM   16  C18 UNL     1      24.151   4.959  49.124  1.00  0.00     0.117 C 
HETATM   17  C19 UNL     1      23.093   6.036  49.182  1.00  0.00     0.019 C 
HETATM   18  C20 UNL     1      23.111   6.654  50.543  1.00  0.00     0.003 C 
HETATM   19  C21 UNL     1      24.438   7.327  50.791  1.00  0.00     0.019 C 
HETATM   20  C22 UNL     1      25.559   6.708  50.010  1.00  0.00     0.117 C 
ENDBRANCH  14  15
ENDBRANCH  13  14
ENDBRANCH  12  13
ENDBRANCH  11  12
ENDBRANCH  10  11
BRANCH   1  21
HETATM   21  O1  UNL     1      28.621   0.971  53.381  1.00  0.00    -0.353 OA
HETATM   22  C1  UNL     1      29.673   0.022  53.609  1.00  0.00     0.210 C 
ENDBRANCH   1  21
BRANCH   7  23
HETATM   23  N3  UNL     1      22.391  -0.338  52.541  1.00  0.00    -0.370 N 
HETATM   24  H6  UNL     1      22.576  -0.422  51.530  1.00  0.00     0.161 HD
BRANCH  23  25
HETATM   25  C7  UNL     1      21.035   0.093  52.870  1.00  0.00     0.150 C 
BRANCH  25  26
HETATM   26  C8  UNL     1      20.846   1.555  52.759  1.00  0.00     0.015 C 
HETATM   27  C9  UNL     1      21.162   2.378  51.762  1.00  0.00     0.043 C 
HETATM   28 CL1  UNL     1      20.874   4.130  51.775  1.00  0.00    -0.086 Cl
BRANCH  27  29
HETATM   29  C10 UNL     1      21.740   2.309  50.395  1.00  0.00     0.210 C 
HETATM   30  C11 UNL     1      20.962   1.281  49.576  1.00  0.00     0.051 C 
HETATM   31  F1  UNL     1      23.074   1.958  50.386  1.00  0.00    -0.244 F 
ENDBRANCH  27  29
ENDBRANCH  25  26
ENDBRANCH  23  25
ENDBRANCH   7  23
TORSDOF 10
ENDMDL
MODEL 4
REMARK VINA RESULT:      -7.4      2.096      2.443
REMARK  10 active torsions:
REMARK  status: ('A' for Active; 'I' for Inactive)
REMARK    1  A    between atoms: O1_2  and  C2_3 
REMARK    2  A    between atoms: C6_9  and  N3_10 
REMARK    3  A    between atoms: N3_10  and  C7_11 
REMARK    4  A    between atoms: C7_11  and  C8_12 
REMARK    5  A    between atoms: C9_13  and  C10_15 
REMARK    6  A    between atoms: C14_20  and  O2_21 
REMARK    7  A    between atoms: O2_21  and  C15_22 
REMARK    8  A    between atoms: C15_22  and  C16_23 
REMARK    9  A    between atoms: C16_23  and  C17_24 
REMARK   10  A    between atoms: C17_24  and  N4_25 
ROOT
HETATM    1  C2  UNL     1      27.293   0.675  53.326  1.00  0.00     0.103 A 
HETATM    2  C3  UNL     1      26.899  -0.038  54.450  1.00  0.00     0.072 A 
HETATM    3  C4  UNL     1      25.592  -0.442  54.615  1.00  0.00     0.075 A 
HETATM    4  N1  UNL     1      25.177  -1.126  55.692  1.00  0.00    -0.241 NA
HETATM    5  C5  UNL     1      23.889  -1.498  55.819  1.00  0.00     0.235 A 
HETATM    6  N2  UNL     1      22.997  -1.191  54.864  1.00  0.00    -0.224 NA
HETATM    7  C6  UNL     1      23.314  -0.511  53.750  1.00  0.00     0.137 A 
HETATM    8  C12 UNL     1      24.635  -0.139  53.640  1.00  0.00     0.041 A 
HETATM    9  C13 UNL     1      25.067   0.567  52.542  1.00  0.00     0.057 A 
HETATM   10  C14 UNL     1      26.373   0.988  52.348  1.00  0.00     0.103 A 
ENDROOT
BRANCH  10  11
HETATM   11  O2  UNL     1      26.739   1.699  51.214  1.00  0.00    -0.348 OA
BRANCH  11  12
HETATM   12  C15 UNL     1      25.966   2.819  50.832  1.00  0.00     0.177 C 
BRANCH  12  13
HETATM   13  C16 UNL     1      26.546   3.475  49.589  1.00  0.00     0.046 C 
BRANCH  13  14
HETATM   14  C17 UNL     1      26.051   4.890  49.435  1.00  0.00     0.119 C 
BRANCH  14  15
HETATM   15  N4  UNL     1      26.951   5.640  48.634  1.00  0.00    -0.412 N 
HETATM   16  C18 UNL     1      28.245   5.088  48.472  1.00  0.00     0.117 C 
HETATM   17  C19 UNL     1      29.322   6.104  48.167  1.00  0.00     0.019 C 
HETATM   18  C20 UNL     1      28.772   7.113  47.212  1.00  0.00     0.003 C 
HETATM   19  C21 UNL     1      27.629   7.863  47.849  1.00  0.00     0.019 C 
HETATM   20  C22 UNL     1      26.920   7.060  48.900  1.00  0.00     0.117 C 
ENDBRANCH  14  15
ENDBRANCH  13  14
ENDBRANCH  12  13
ENDBRANCH  11  12
ENDBRANCH  10  11
BRANCH   1  21
HETATM   21  O1  UNL     1      28.612   1.082  53.164  1.00  0.00    -0.353 OA
HETATM   22  C1  UNL     1      29.675   0.351  53.792  1.00  0.00     0.210 C 
ENDBRANCH   1  21
BRANCH   7  23
HETATM   23  N3  UNL     1      22.335  -0.212  52.766  1.00  0.00    -0.370 N 
HETATM   24  H6  UNL     1      22.317  -0.514  51.779  1.00  0.00     0.161 HD
BRANCH  23  25
HETATM   25  C7  UNL     1      21.202   0.620  53.160  1.00  0.00     0.150 C 
BRANCH  25  26
HETATM   26  C8  UNL     1      19.976  -0.158  53.434  1.00  0.00     0.015 C 
HETATM   27  C9  UNL     1      18.908  -0.358  52.666  1.00  0.00     0.043 C 
HETATM   28 CL1  UNL     1      17.495  -1.323  53.139  1.00  0.00    -0.086 Cl
BRANCH  27  29
HETATM   29  C10 UNL     1      18.433  -0.017  51.301  1.00  0.00     0.210 C 
HETATM   30  C11 UNL     1      18.102   1.473  51.245  1.00  0.00     0.051 C 
HETATM   31  F1  UNL     1      17.314  -0.728  50.920  1.00  0.00    -0.244 F 
ENDBRANCH  27  29
ENDBRANCH  25  26
ENDBRANCH  23  25
ENDBRANCH   7  23
TORSDOF 10
ENDMDL
MODEL 5
REMARK VINA RESULT:      -7.4      1.508      1.931
REMARK  10 active torsions:
REMARK  status: ('A' for Active; 'I' for Inactive)
REMARK    1  A    between atoms: O1_2  and  C2_3 
REMARK    2  A    between atoms: C6_9  and  N3_10 
REMARK    3  A    between atoms: N3_10  and  C7_11 
REMARK    4  A    between atoms: C7_11  and  C8_12 
REMARK    5  A    between atoms: C9_13  and  C10_15 
REMARK    6  A    between atoms: C14_20  and  O2_21 
REMARK    7  A    between atoms: O2_21  and  C15_22 
REMARK    8  A    between atoms: C15_22  and  C16_23 
REMARK    9  A    between atoms: C16_23  and  C17_24 
REMARK   10  A    between atoms: C17_24  and  N4_25 
ROOT
HETATM    1  C2  UNL     1      25.695   0.190  53.035  1.00  0.00     0.103 A 
HETATM    2  C3  UNL     1      24.909  -0.593  53.870  1.00  0.00     0.072 A 
HETATM    3  C4  UNL     1      23.535  -0.504  53.843  1.00  0.00     0.075 A 
HETATM    4  N1  UNL     1      22.747  -1.241  54.641  1.00  0.00    -0.241 NA
HETATM    5  C5  UNL     1      21.407  -1.120  54.589  1.00  0.00     0.235 A 
HETATM    6  N2  UNL     1      20.836  -0.257  53.733  1.00  0.00    -0.224 NA
HETATM    7  C6  UNL     1      21.537   0.523  52.896  1.00  0.00     0.137 A 
HETATM    8  C12 UNL     1      22.906   0.385  52.964  1.00  0.00     0.041 A 
HETATM    9  C13 UNL     1      23.721   1.140  52.154  1.00  0.00     0.057 A 
HETATM   10  C14 UNL     1      25.105   1.074  52.158  1.00  0.00     0.103 A 
ENDROOT
BRANCH  10  11
HETATM   11  O2  UNL     1      25.865   1.868  51.312  1.00  0.00    -0.348 OA
BRANCH  11  12
HETATM   12  C15 UNL     1      25.279   3.028  50.755  1.00  0.00     0.177 C 
BRANCH  12  13
HETATM   13  C16 UNL     1      26.174   3.619  49.678  1.00  0.00     0.046 C 
BRANCH  13  14
HETATM   14  C17 UNL     1      25.792   5.045  49.370  1.00  0.00     0.119 C 
BRANCH  14  15
HETATM   15  N4  UNL     1      26.825   5.682  48.635  1.00  0.00    -0.412 N 
HETATM   16  C18 UNL     1      28.043   4.966  48.530  1.00  0.00     0.117 C 
HETATM   17  C19 UNL     1      29.259   5.836  48.306  1.00  0.00     0.019 C 
HETATM   18  C20 UNL     1      28.900   6.924  47.347  1.00  0.00     0.003 C 
HETATM   19  C21 UNL     1      27.831   7.808  47.939  1.00  0.00     0.019 C 
HETATM   20  C22 UNL     1      26.966   7.088  48.931  1.00  0.00     0.117 C 
ENDBRANCH  14  15
ENDBRANCH  13  14
ENDBRANCH  12  13
ENDBRANCH  11  12
ENDBRANCH  10  11
BRANCH   1  21
HETATM   21  O1  UNL     1      27.082   0.097  53.065  1.00  0.00    -0.353 OA
HETATM   22  C1  UNL     1      27.800   0.405  54.269  1.00  0.00     0.210 C 
ENDBRANCH   1  21
BRANCH   7  23
HETATM   23  N3  UNL     1      20.888   1.418  52.005  1.00  0.00    -0.370 N 
HETATM   24  H6  UNL     1      20.804   2.443  52.086  1.00  0.00     0.161 HD
BRANCH  23  25
HETATM   25  C7  UNL     1      20.249   0.856  50.818  1.00  0.00     0.150 C 
BRANCH  25  26
HETATM   26  C8  UNL     1      21.092   0.942  49.608  1.00  0.00     0.015 C 
HETATM   27  C9  UNL     1      21.588   2.013  48.993  1.00  0.00     0.043 C 
HETATM   28 CL1  UNL     1      22.590   1.958  47.529  1.00  0.00    -0.086 Cl
BRANCH  27  29
HETATM   29  C10 UNL     1      21.619   3.488  49.167  1.00  0.00     0.210 C 
HETATM   30  C11 UNL     1      22.462   4.104  48.053  1.00  0.00     0.051 C 
HETATM   31  F1  UNL     1      22.145   3.881  50.381  1.00  0.00    -0.244 F 
ENDBRANCH  27  29
ENDBRANCH  25  26
ENDBRANCH  23  25
ENDBRANCH   7  23
TORSDOF 10
ENDMDL
MODEL 6
REMARK VINA RESULT:      -7.3      3.217      6.129
REMARK  10 active torsions:
REMARK  status: ('A' for Active; 'I' for Inactive)
REMARK    1  A    between atoms: O1_2  and  C2_3 
REMARK    2  A    between atoms: C6_9  and  N3_10 
REMARK    3  A    between atoms: N3_10  and  C7_11 
REMARK    4  A    between atoms: C7_11  and  C8_12 
REMARK    5  A    between atoms: C9_13  and  C10_15 
REMARK    6  A    between atoms: C14_20  and  O2_21 
REMARK    7  A    between atoms: O2_21  and  C15_22 
REMARK    8  A    between atoms: C15_22  and  C16_23 
REMARK    9  A    between atoms: C16_23  and  C17_24 
REMARK   10  A    between atoms: C17_24  and  N4_25 
ROOT
HETATM    1  C2  UNL     1      22.225   0.167  53.269  1.00  0.00     0.103 A 
HETATM    2  C3  UNL     1      23.476  -0.425  53.369  1.00  0.00     0.072 A 
HETATM    3  C4  UNL     1      24.605   0.211  52.900  1.00  0.00     0.075 A 
HETATM    4  N1  UNL     1      25.827  -0.337  52.974  1.00  0.00    -0.241 NA
HETATM    5  C5  UNL     1      26.905   0.315  52.498  1.00  0.00     0.235 A 
HETATM    6  N2  UNL     1      26.772   1.529  51.941  1.00  0.00    -0.224 NA
HETATM    7  C6  UNL     1      25.593   2.160  51.820  1.00  0.00     0.137 A 
HETATM    8  C12 UNL     1      24.504   1.477  52.312  1.00  0.00     0.041 A 
HETATM    9  C13 UNL     1      23.246   2.029  52.234  1.00  0.00     0.057 A 
HETATM   10  C14 UNL     1      22.093   1.414  52.695  1.00  0.00     0.103 A 
ENDROOT
BRANCH  10  11
HETATM   11  O2  UNL     1      20.856   2.030  52.583  1.00  0.00    -0.348 OA
BRANCH  11  12
HETATM   12  C15 UNL     1      20.802   3.440  52.486  1.00  0.00     0.177 C 
BRANCH  12  13
HETATM   13  C16 UNL     1      19.677   3.873  51.560  1.00  0.00     0.046 C 
BRANCH  13  14
HETATM   14  C17 UNL     1      20.213   4.565  50.333  1.00  0.00     0.119 C 
BRANCH  14  15
HETATM   15  N4  UNL     1      21.029   3.677  49.586  1.00  0.00    -0.412 N 
HETATM   16  C18 UNL     1      21.876   4.276  48.621  1.00  0.00     0.117 C 
HETATM   17  C19 UNL     1      22.257   3.366  47.477  1.00  0.00     0.019 C 
HETATM   18  C20 UNL     1      22.525   2.000  48.019  1.00  0.00     0.003 C 
HETATM   19  C21 UNL     1      21.272   1.429  48.634  1.00  0.00     0.019 C 
HETATM   20  C22 UNL     1      20.338   2.490  49.140  1.00  0.00     0.117 C 
ENDBRANCH  14  15
ENDBRANCH  13  14
ENDBRANCH  12  13
ENDBRANCH  11  12
ENDBRANCH  10  11
BRANCH   1  21
HETATM   21  O1  UNL     1      21.088  -0.478  53.743  1.00  0.00    -0.353 OA
HETATM   22  C1  UNL     1      21.206  -1.722  54.448  1.00  0.00     0.210 C 
ENDBRANCH   1  21
BRANCH   7  23
HETATM   23  N3  UNL     1      25.504   3.446  51.225  1.00  0.00    -0.370 N 
HETATM   24  H6  UNL     1      25.433   4.359  51.700  1.00  0.00     0.161 HD
BRANCH  23  25
HETATM   25  C7  UNL     1      25.511   3.526  49.768  1.00  0.00     0.150 C 
BRANCH  25  26
HETATM   26  C8  UNL     1      26.828   3.896  49.211  1.00  0.00     0.015 C 
HETATM   27  C9  UNL     1      27.275   5.082  48.803  1.00  0.00     0.043 C 
HETATM   28 CL1  UNL     1      28.899   5.372  48.146  1.00  0.00    -0.086 Cl
BRANCH  27  29
HETATM   29  C10 UNL     1      26.807   6.489  48.733  1.00  0.00     0.210 C 
HETATM   30  C11 UNL     1      27.982   7.388  48.354  1.00  0.00     0.051 C 
HETATM   31  F1  UNL     1      26.273   6.945  49.921  1.00  0.00    -0.244 F 
ENDBRANCH  27  29
ENDBRANCH  25  26
ENDBRANCH  23  25
ENDBRANCH   7  23
TORSDOF 10
ENDMDL
MODEL 7
REMARK VINA RESULT:      -7.3      2.677      4.250
REMARK  10 active torsions:
REMARK  status: ('A' for Active; 'I' for Inactive)
REMARK    1  A    between atoms: O1_2  and  C2_3 
REMARK    2  A    between atoms: C6_9  and  N3_10 
REMARK    3  A    between atoms: N3_10  and  C7_11 
REMARK    4  A    between atoms: C7_11  and  C8_12 
REMARK    5  A    between atoms: C9_13  and  C10_15 
REMARK    6  A    between atoms: C14_20  and  O2_21 
REMARK    7  A    between atoms: O2_21  and  C15_22 
REMARK    8  A    between atoms: C15_22  and  C16_23 
REMARK    9  A    between atoms: C16_23  and  C17_24 
REMARK   10  A    between atoms: C17_24  and  N4_25 
ROOT
HETATM    1  C2  UNL     1      27.086   0.542  53.235  1.00  0.00     0.103 A 
HETATM    2  C3  UNL     1      26.651  -0.150  54.357  1.00  0.00     0.072 A 
HETATM    3  C4  UNL     1      25.332  -0.517  54.501  1.00  0.00     0.075 A 
HETATM    4  N1  UNL     1      24.878  -1.180  55.576  1.00  0.00    -0.241 NA
HETATM    5  C5  UNL     1      23.578  -1.515  55.682  1.00  0.00     0.235 A 
HETATM    6  N2  UNL     1      22.713  -1.190  54.709  1.00  0.00    -0.224 NA
HETATM    7  C6  UNL     1      23.068  -0.528  53.596  1.00  0.00     0.137 A 
HETATM    8  C12 UNL     1      24.401  -0.195  53.507  1.00  0.00     0.041 A 
HETATM    9  C13 UNL     1      24.873   0.490  52.411  1.00  0.00     0.057 A 
HETATM   10  C14 UNL     1      26.193   0.874  52.238  1.00  0.00     0.103 A 
ENDROOT
BRANCH  10  11
HETATM   11  O2  UNL     1      26.599   1.564  51.106  1.00  0.00    -0.348 OA
BRANCH  11  12
HETATM   12  C15 UNL     1      26.536   2.977  51.109  1.00  0.00     0.177 C 
BRANCH  12  13
HETATM   13  C16 UNL     1      26.005   3.495  49.782  1.00  0.00     0.046 C 
BRANCH  13  14
HETATM   14  C17 UNL     1      24.638   4.111  49.942  1.00  0.00     0.119 C 
BRANCH  14  15
HETATM   15  N4  UNL     1      23.667   3.331  49.264  1.00  0.00    -0.412 N 
HETATM   16  C18 UNL     1      22.970   3.982  48.216  1.00  0.00     0.117 C 
HETATM   17  C19 UNL     1      21.604   3.407  47.925  1.00  0.00     0.019 C 
HETATM   18  C20 UNL     1      21.683   1.917  48.010  1.00  0.00     0.003 C 
HETATM   19  C21 UNL     1      22.047   1.495  49.411  1.00  0.00     0.019 C 
HETATM   20  C22 UNL     1      22.843   2.535  50.143  1.00  0.00     0.117 C 
ENDBRANCH  14  15
ENDBRANCH  13  14
ENDBRANCH  12  13
ENDBRANCH  11  12
ENDBRANCH  10  11
BRANCH   1  21
HETATM   21  O1  UNL     1      28.419   0.911  53.094  1.00  0.00    -0.353 OA
HETATM   22  C1  UNL     1      28.917   2.083  53.754  1.00  0.00     0.210 C 
ENDBRANCH   1  21
BRANCH   7  23
HETATM   23  N3  UNL     1      22.116  -0.211  52.591  1.00  0.00    -0.370 N 
HETATM   24  H6  UNL     1      22.259  -0.179  51.570  1.00  0.00     0.161 HD
BRANCH  23  25
HETATM   25  C7  UNL     1      20.758   0.115  53.018  1.00  0.00     0.150 C 
BRANCH  25  26
HETATM   26  C8  UNL     1      19.814   0.263  51.891  1.00  0.00     0.015 C 
HETATM   27  C9  UNL     1      18.594  -0.245  51.733  1.00  0.00     0.043 C 
HETATM   28 CL1  UNL     1      17.571   0.020  50.306  1.00  0.00    -0.086 Cl
BRANCH  27  29
HETATM   29  C10 UNL     1      17.620  -1.071  52.491  1.00  0.00     0.210 C 
HETATM   30  C11 UNL     1      16.266  -0.364  52.499  1.00  0.00     0.051 C 
HETATM   31  F1  UNL     1      18.001  -1.299  53.798  1.00  0.00    -0.244 F 
ENDBRANCH  27  29
ENDBRANCH  25  26
ENDBRANCH  23  25
ENDBRANCH   7  23
TORSDOF 10
ENDMDL
MODEL 8
REMARK VINA RESULT:      -7.3      3.180      8.285
REMARK  10 active torsions:
REMARK  status: ('A' for Active; 'I' for Inactive)
REMARK    1  A    between atoms: O1_2  and  C2_3 
REMARK    2  A    between atoms: C6_9  and  N3_10 
REMARK    3  A    between atoms: N3_10  and  C7_11 
REMARK    4  A    between atoms: C7_11  and  C8_12 
REMARK    5  A    between atoms: C9_13  and  C10_15 
REMARK    6  A    between atoms: C14_20  and  O2_21 
REMARK    7  A    between atoms: O2_21  and  C15_22 
REMARK    8  A    between atoms: C15_22  and  C16_23 
REMARK    9  A    between atoms: C16_23  and  C17_24 
REMARK   10  A    between atoms: C17_24  and  N4_25 
ROOT
HETATM    1  C2  UNL     1      23.586   7.029  49.733  1.00  0.00     0.103 A 
HETATM    2  C3  UNL     1      24.791   7.372  49.134  1.00  0.00     0.072 A 
HETATM    3  C4  UNL     1      25.809   6.453  49.006  1.00  0.00     0.075 A 
HETATM    4  N1  UNL     1      26.987   6.754  48.439  1.00  0.00    -0.241 NA
HETATM    5  C5  UNL     1      27.960   5.828  48.339  1.00  0.00     0.235 A 
HETATM    6  N2  UNL     1      27.765   4.585  48.806  1.00  0.00    -0.224 NA
HETATM    7  C6  UNL     1      26.623   4.187  49.390  1.00  0.00     0.137 A 
HETATM    8  C12 UNL     1      25.641   5.148  49.483  1.00  0.00     0.041 A 
HETATM    9  C13 UNL     1      24.433   4.850  50.068  1.00  0.00     0.057 A 
HETATM   10  C14 UNL     1      23.390   5.752  50.212  1.00  0.00     0.103 A 
ENDROOT
BRANCH  10  11
HETATM   11  O2  UNL     1      22.197   5.382  50.815  1.00  0.00    -0.348 OA
BRANCH  11  12
HETATM   12  C15 UNL     1      22.232   4.835  52.119  1.00  0.00     0.177 C 
BRANCH  12  13
HETATM   13  C16 UNL     1      21.664   3.425  52.126  1.00  0.00     0.046 C 
BRANCH  13  14
HETATM   14  C17 UNL     1      22.762   2.392  52.164  1.00  0.00     0.119 C 
BRANCH  14  15
HETATM   15  N4  UNL     1      22.438   1.365  53.086  1.00  0.00    -0.412 N 
HETATM   16  C18 UNL     1      23.261   0.213  53.046  1.00  0.00     0.117 C 
HETATM   17  C19 UNL     1      22.594  -1.047  53.549  1.00  0.00     0.019 C 
HETATM   18  C20 UNL     1      21.773  -0.707  54.751  1.00  0.00     0.003 C 
HETATM   19  C21 UNL     1      20.672   0.252  54.376  1.00  0.00     0.019 C 
HETATM   20  C22 UNL     1      21.021   1.101  53.189  1.00  0.00     0.117 C 
ENDBRANCH  14  15
ENDBRANCH  13  14
ENDBRANCH  12  13
ENDBRANCH  11  12
ENDBRANCH  10  11
BRANCH   1  21
HETATM   21  O1  UNL     1      22.561   7.960  49.861  1.00  0.00    -0.353 OA
HETATM   22  C1  UNL     1      22.369   8.964  48.855  1.00  0.00     0.210 C 
ENDBRANCH   1  21
BRANCH   7  23
HETATM   23  N3  UNL     1      26.462   2.859  49.865  1.00  0.00    -0.370 N 
HETATM   24  H6  UNL     1      26.158   2.029  49.334  1.00  0.00     0.161 HD
BRANCH  23  25
HETATM   25  C7  UNL     1      26.755   2.598  51.271  1.00  0.00     0.150 C 
BRANCH  25  26
HETATM   26  C8  UNL     1      26.630   1.172  51.637  1.00  0.00     0.015 C 
HETATM   27  C9  UNL     1      26.970   0.551  52.764  1.00  0.00     0.043 C 
HETATM   28 CL1  UNL     1      26.761  -1.187  53.057  1.00  0.00    -0.086 Cl
BRANCH  27  29
HETATM   29  C10 UNL     1      27.526   0.885  54.100  1.00  0.00     0.210 C 
HETATM   30  C11 UNL     1      28.942   1.432  53.929  1.00  0.00     0.051 C 
HETATM   31  F1  UNL     1      27.576  -0.197  54.955  1.00  0.00    -0.244 F 
ENDBRANCH  27  29
ENDBRANCH  25  26
ENDBRANCH  23  25
ENDBRANCH   7  23
TORSDOF 10
ENDMDL
MODEL 9
REMARK VINA RESULT:      -7.3      3.238      7.699
REMARK  10 active torsions:
REMARK  status: ('A' for Active; 'I' for Inactive)
REMARK    1  A    between atoms: O1_2  and  C2_3 
REMARK    2  A    between atoms: C6_9  and  N3_10 
REMARK    3  A    between atoms: N3_10  and  C7_11 
REMARK    4  A    between atoms: C7_11  and  C8_12 
REMARK    5  A    between atoms: C9_13  and  C10_15 
REMARK    6  A    between atoms: C14_20  and  O2_21 
REMARK    7  A    between atoms: O2_21  and  C15_22 
REMARK    8  A    between atoms: C15_22  and  C16_23 
REMARK    9  A    between atoms: C16_23  and  C17_24 
REMARK   10  A    between atoms: C17_24  and  N4_25 
ROOT
HETATM    1  C2  UNL     1      23.995  -0.444  53.499  1.00  0.00     0.103 A 
HETATM    2  C3  UNL     1      25.287  -0.617  53.978  1.00  0.00     0.072 A 
HETATM    3  C4  UNL     1      26.305   0.232  53.603  1.00  0.00     0.075 A 
HETATM    4  N1  UNL     1      27.564   0.088  54.041  1.00  0.00    -0.241 NA
HETATM    5  C5  UNL     1      28.533   0.936  53.646  1.00  0.00     0.235 A 
HETATM    6  N2  UNL     1      28.251   1.943  52.804  1.00  0.00    -0.224 NA
HETATM    7  C6  UNL     1      27.024   2.170  52.310  1.00  0.00     0.137 A 
HETATM    8  C12 UNL     1      26.048   1.292  52.726  1.00  0.00     0.041 A 
HETATM    9  C13 UNL     1      24.755   1.428  52.276  1.00  0.00     0.057 A 
HETATM   10  C14 UNL     1      23.711   0.591  52.634  1.00  0.00     0.103 A 
ENDROOT
BRANCH  10  11
HETATM   11  O2  UNL     1      22.430   0.788  52.140  1.00  0.00    -0.348 OA
BRANCH  11  12
HETATM   12  C15 UNL     1      21.700   1.921  52.568  1.00  0.00     0.177 C 
BRANCH  12  13
HETATM   13  C16 UNL     1      20.214   1.612  52.632  1.00  0.00     0.046 C 
BRANCH  13  14
HETATM   14  C17 UNL     1      19.780   0.762  51.465  1.00  0.00     0.119 C 
BRANCH  14  15
HETATM   15  N4  UNL     1      18.810  -0.185  51.882  1.00  0.00    -0.412 N 
HETATM   16  C18 UNL     1      17.463   0.130  51.576  1.00  0.00     0.117 C 
HETATM   17  C19 UNL     1      16.449  -0.512  52.494  1.00  0.00     0.019 C 
HETATM   18  C20 UNL     1      16.883  -1.912  52.784  1.00  0.00     0.003 C 
HETATM   19  C21 UNL     1      18.200  -1.907  53.519  1.00  0.00     0.019 C 
HETATM   20  C22 UNL     1      19.030  -0.695  53.215  1.00  0.00     0.117 C 
ENDBRANCH  14  15
ENDBRANCH  13  14
ENDBRANCH  12  13
ENDBRANCH  11  12
ENDBRANCH  10  11
BRANCH   1  21
HETATM   21  O1  UNL     1      22.971  -1.304  53.879  1.00  0.00    -0.353 OA
HETATM   22  C1  UNL     1      22.182  -1.016  55.042  1.00  0.00     0.210 C 
ENDBRANCH   1  21
BRANCH   7  23
HETATM   23  N3  UNL     1      26.774   3.252  51.425  1.00  0.00    -0.370 N 
HETATM   24  H6  UNL     1      26.793   4.261  51.637  1.00  0.00     0.161 HD
BRANCH  23  25
HETATM   25  C7  UNL     1      26.448   2.936  50.037  1.00  0.00     0.150 C 
BRANCH  25  26
HETATM   26  C8  UNL     1      25.505   3.896  49.428  1.00  0.00     0.015 C 
HETATM   27  C9  UNL     1      25.726   5.123  48.961  1.00  0.00     0.043 C 
HETATM   28 CL1  UNL     1      24.478   6.169  48.254  1.00  0.00    -0.086 Cl
BRANCH  27  29
HETATM   29  C10 UNL     1      26.864   6.057  48.766  1.00  0.00     0.210 C 
HETATM   30  C11 UNL     1      26.399   7.240  47.919  1.00  0.00     0.051 C 
HETATM   31  F1  UNL     1      27.948   5.472  48.143  1.00  0.00    -0.244 F 
ENDBRANCH  27  29
ENDBRANCH  25  26
ENDBRANCH  23  25
ENDBRANCH   7  23
TORSDOF 10
ENDMDL
