MODEL 1
REMARK VINA RESULT:      -8.9      0.000      0.000
REMARK  1 active torsions:
REMARK  status: ('A' for Active; 'I' for Inactive)
REMARK    1  A    between atoms: O1_2  and  C2_3 
ROOT
HETATM    1  C2  UNL     1      26.278   6.953  48.941  1.00  0.00     0.095 A 
HETATM    2  C3  UNL     1      27.478   6.813  48.279  1.00  0.00     0.039 A 
HETATM    3  C4  UNL     1      28.146   5.589  48.208  1.00  0.00     0.003 A 
HETATM    4  C5  UNL     1      27.548   4.492  48.840  1.00  0.00     0.010 A 
HETATM    5  C6  UNL     1      26.342   4.633  49.504  1.00  0.00    -0.020 A 
HETATM    6  C7  UNL     1      25.726   5.859  49.545  1.00  0.00     0.072 A 
HETATM    7  N1  UNL     1      24.559   5.562  50.287  1.00  0.00    -0.356 N 
HETATM    8  C8  UNL     1      23.485   6.450  50.777  1.00  0.00     0.152 C 
HETATM    9  C9  UNL     1      22.156   5.868  50.350  1.00  0.00    -0.003 C 
HETATM   10  C10 UNL     1      22.124   4.622  49.837  1.00  0.00     0.050 C 
HETATM   11  C11 UNL     1      23.285   3.723  49.635  1.00  0.00     0.179 C 
HETATM   12  O2  UNL     1      23.034   2.889  48.729  1.00  0.00    -0.290 OA
HETATM   13  C12 UNL     1      24.364   4.150  50.611  1.00  0.00     0.133 C 
HETATM   14  C13 UNL     1      23.897   3.941  52.006  1.00  0.00     0.311 C 
HETATM   15  N2  UNL     1      24.149   2.699  52.623  1.00  0.00     0.105 N 
HETATM   16  C14 UNL     1      23.424   1.542  52.161  1.00  0.00     0.417 C 
HETATM   17  N3  UNL     1      24.093   0.393  52.649  1.00  0.00    -0.274 NA
HETATM   18  C15 UNL     1      24.559   0.128  53.789  1.00  0.00     0.115 C 
HETATM   19  C16 UNL     1      25.128  -1.213  53.625  1.00  0.00     0.316 C 
HETATM   20  N4  UNL     1      26.595  -1.241  53.441  1.00  0.00     0.089 N 
HETATM   21  C17 UNL     1      26.895  -0.526  52.197  1.00  0.00     0.289 C 
HETATM   22  C18 UNL     1      26.906   0.969  52.438  1.00  0.00     0.144 C 
HETATM   23  N5  UNL     1      26.571   1.644  51.242  1.00  0.00    -0.419 N 
HETATM   24  C19 UNL     1      26.497   3.065  51.346  1.00  0.00     0.126 C 
HETATM   25  C20 UNL     1      25.634   3.532  50.184  1.00  0.00     0.076 C 
HETATM   26  H13 UNL     1      23.910   2.758  53.662  1.00  0.00     0.318 HD
HETATM   27  H19 UNL     1      27.095  -0.789  54.209  1.00  0.00     0.316 HD
HETATM   28  H24 UNL     1      25.871   1.178  50.669  1.00  0.00     0.153 HD
ENDROOT
BRANCH   1  29
HETATM   29  O1  UNL     1      25.602   8.177  49.018  1.00  0.00    -0.354 OA
HETATM   30  C1  UNL     1      26.045   9.188  49.922  1.00  0.00     0.210 C 
ENDBRANCH   1  29
TORSDOF 1
ENDMDL
MODEL 2
REMARK VINA RESULT:      -8.4      1.462      1.713
REMARK  1 active torsions:
REMARK  status: ('A' for Active; 'I' for Inactive)
REMARK    1  A    between atoms: O1_2  and  C2_3 
ROOT
HETATM    1  C2  UNL     1      25.568   6.410  48.477  1.00  0.00     0.095 A 
HETATM    2  C3  UNL     1      26.931   6.252  48.346  1.00  0.00     0.039 A 
HETATM    3  C4  UNL     1      27.585   5.092  48.765  1.00  0.00     0.003 A 
HETATM    4  C5  UNL     1      26.801   4.080  49.331  1.00  0.00     0.010 A 
HETATM    5  C6  UNL     1      25.432   4.238  49.462  1.00  0.00    -0.020 A 
HETATM    6  C7  UNL     1      24.837   5.399  49.034  1.00  0.00     0.072 A 
HETATM    7  N1  UNL     1      23.479   5.146  49.334  1.00  0.00    -0.356 N 
HETATM    8  C8  UNL     1      22.292   6.017  49.211  1.00  0.00     0.152 C 
HETATM    9  C9  UNL     1      21.228   5.264  48.444  1.00  0.00    -0.003 C 
HETATM   10  C10 UNL     1      21.402   3.949  48.207  1.00  0.00     0.050 C 
HETATM   11  C11 UNL     1      22.559   3.124  48.628  1.00  0.00     0.179 C 
HETATM   12  O2  UNL     1      22.676   2.126  47.874  1.00  0.00    -0.290 OA
HETATM   13  C12 UNL     1      23.186   3.802  49.831  1.00  0.00     0.133 C 
HETATM   14  C13 UNL     1      22.228   3.806  50.966  1.00  0.00     0.311 C 
HETATM   15  N2  UNL     1      22.237   2.717  51.861  1.00  0.00     0.105 N 
HETATM   16  C14 UNL     1      21.749   1.442  51.398  1.00  0.00     0.417 C 
HETATM   17  N3  UNL     1      22.193   0.455  52.311  1.00  0.00    -0.274 NA
HETATM   18  C15 UNL     1      22.195   0.434  53.571  1.00  0.00     0.115 C 
HETATM   19  C16 UNL     1      22.794  -0.865  53.892  1.00  0.00     0.316 C 
HETATM   20  N4  UNL     1      24.222  -0.807  54.273  1.00  0.00     0.089 N 
HETATM   21  C17 UNL     1      24.964  -0.302  53.114  1.00  0.00     0.289 C 
HETATM   22  C18 UNL     1      24.873   1.209  53.048  1.00  0.00     0.144 C 
HETATM   23  N5  UNL     1      25.009   1.632  51.705  1.00  0.00    -0.419 N 
HETATM   24  C19 UNL     1      24.891   3.039  51.498  1.00  0.00     0.126 C 
HETATM   25  C20 UNL     1      24.528   3.222  50.032  1.00  0.00     0.076 C 
HETATM   26  H13 UNL     1      21.623   2.939  52.706  1.00  0.00     0.318 HD
HETATM   27  H19 UNL     1      24.391  -0.188  55.068  1.00  0.00     0.316 HD
HETATM   28  H24 UNL     1      24.582   1.017  51.016  1.00  0.00     0.153 HD
ENDROOT
BRANCH   1  29
HETATM   29  O1  UNL     1      24.905   7.569  48.059  1.00  0.00    -0.354 OA
HETATM   30  C1  UNL     1      24.891   8.730  48.890  1.00  0.00     0.210 C 
ENDBRANCH   1  29
TORSDOF 1
ENDMDL
MODEL 3
REMARK VINA RESULT:      -8.4      3.155      6.015
REMARK  1 active torsions:
REMARK  status: ('A' for Active; 'I' for Inactive)
REMARK    1  A    between atoms: O1_2  and  C2_3 
ROOT
HETATM    1  C2  UNL     1      20.036   0.566  51.414  1.00  0.00     0.095 A 
HETATM    2  C3  UNL     1      19.385  -0.105  52.425  1.00  0.00     0.039 A 
HETATM    3  C4  UNL     1      20.001  -0.383  53.647  1.00  0.00     0.003 A 
HETATM    4  C5  UNL     1      21.323   0.048  53.813  1.00  0.00     0.010 A 
HETATM    5  C6  UNL     1      21.978   0.722  52.797  1.00  0.00    -0.020 A 
HETATM    6  C7  UNL     1      21.326   0.971  51.614  1.00  0.00     0.072 A 
HETATM    7  N1  UNL     1      22.320   1.666  50.887  1.00  0.00    -0.356 N 
HETATM    8  C8  UNL     1      22.319   2.157  49.494  1.00  0.00     0.152 C 
HETATM    9  C9  UNL     1      22.722   3.614  49.504  1.00  0.00    -0.003 C 
HETATM   10  C10 UNL     1      23.207   4.149  50.642  1.00  0.00     0.050 C 
HETATM   11  C11 UNL     1      23.399   3.447  51.933  1.00  0.00     0.179 C 
HETATM   12  O2  UNL     1      23.383   4.272  52.881  1.00  0.00    -0.290 OA
HETATM   13  C12 UNL     1      23.543   1.969  51.628  1.00  0.00     0.133 C 
HETATM   14  C13 UNL     1      24.773   1.735  50.827  1.00  0.00     0.311 C 
HETATM   15  N2  UNL     1      25.981   1.480  51.504  1.00  0.00     0.105 N 
HETATM   16  C14 UNL     1      26.606   2.560  52.226  1.00  0.00     0.417 C 
HETATM   17  N3  UNL     1      27.564   1.995  53.102  1.00  0.00    -0.274 NA
HETATM   18  C15 UNL     1      28.433   1.103  52.914  1.00  0.00     0.115 C 
HETATM   19  C16 UNL     1      29.087   0.978  54.220  1.00  0.00     0.316 C 
HETATM   20  N4  UNL     1      28.632  -0.175  55.027  1.00  0.00     0.089 N 
HETATM   21  C17 UNL     1      27.208   0.023  55.312  1.00  0.00     0.289 C 
HETATM   22  C18 UNL     1      26.368  -0.415  54.129  1.00  0.00     0.144 C 
HETATM   23  N5  UNL     1      25.154   0.309  54.118  1.00  0.00    -0.419 N 
HETATM   24  C19 UNL     1      24.288   0.025  53.019  1.00  0.00     0.126 C 
HETATM   25  C20 UNL     1      23.361   1.224  52.889  1.00  0.00     0.076 C 
HETATM   26  H13 UNL     1      26.727   1.168  50.807  1.00  0.00     0.318 HD
HETATM   27  H19 UNL     1      28.749  -1.066  54.541  1.00  0.00     0.316 HD
HETATM   28  H24 UNL     1      25.229   1.278  54.419  1.00  0.00     0.153 HD
ENDROOT
BRANCH   1  29
HETATM   29  O1  UNL     1      19.426   0.849  50.186  1.00  0.00    -0.354 OA
HETATM   30  C1  UNL     1      18.008   0.988  50.103  1.00  0.00     0.210 C 
ENDBRANCH   1  29
TORSDOF 1
ENDMDL
MODEL 4
REMARK VINA RESULT:      -8.2      3.907      7.166
REMARK  1 active torsions:
REMARK  status: ('A' for Active; 'I' for Inactive)
REMARK    1  A    between atoms: O1_2  and  C2_3 
ROOT
HETATM    1  C2  UNL     1      17.751  -0.184  51.211  1.00  0.00     0.095 A 
HETATM    2  C3  UNL     1      17.234  -1.055  52.145  1.00  0.00     0.039 A 
HETATM    3  C4  UNL     1      17.946  -1.423  53.289  1.00  0.00     0.003 A 
HETATM    4  C5  UNL     1      19.220  -0.870  53.459  1.00  0.00     0.010 A 
HETATM    5  C6  UNL     1      19.740   0.006  52.521  1.00  0.00    -0.020 A 
HETATM    6  C7  UNL     1      18.999   0.336  51.413  1.00  0.00     0.072 A 
HETATM    7  N1  UNL     1      19.869   1.232  50.750  1.00  0.00    -0.356 N 
HETATM    8  C8  UNL     1      19.736   1.903  49.441  1.00  0.00     0.152 C 
HETATM    9  C9  UNL     1      19.979   3.382  49.639  1.00  0.00    -0.003 C 
HETATM   10  C10 UNL     1      20.468   3.811  50.819  1.00  0.00     0.050 C 
HETATM   11  C11 UNL     1      20.807   2.968  51.990  1.00  0.00     0.179 C 
HETATM   12  O2  UNL     1      20.756   3.650  53.044  1.00  0.00    -0.290 OA
HETATM   13  C12 UNL     1      21.093   1.571  51.475  1.00  0.00     0.133 C 
HETATM   14  C13 UNL     1      22.292   1.589  50.599  1.00  0.00     0.311 C 
HETATM   15  N2  UNL     1      23.558   1.386  51.183  1.00  0.00     0.105 N 
HETATM   16  C14 UNL     1      24.103   2.424  52.023  1.00  0.00     0.417 C 
HETATM   17  N3  UNL     1      25.164   1.859  52.770  1.00  0.00    -0.274 NA
HETATM   18  C15 UNL     1      26.113   1.106  52.423  1.00  0.00     0.115 C 
HETATM   19  C16 UNL     1      26.849   0.882  53.670  1.00  0.00     0.316 C 
HETATM   20  N4  UNL     1      26.568  -0.414  54.326  1.00  0.00     0.089 N 
HETATM   21  C17 UNL     1      25.149  -0.421  54.694  1.00  0.00     0.289 C 
HETATM   22  C18 UNL     1      24.296  -0.788  53.498  1.00  0.00     0.144 C 
HETATM   23  N5  UNL     1      23.012  -0.214  53.638  1.00  0.00    -0.419 N 
HETATM   24  C19 UNL     1      22.121  -0.444  52.548  1.00  0.00     0.126 C 
HETATM   25  C20 UNL     1      21.064   0.647  52.626  1.00  0.00     0.076 C 
HETATM   26  H13 UNL     1      24.293   1.259  50.418  1.00  0.00     0.318 HD
HETATM   27  H19 UNL     1      26.753  -1.212  53.714  1.00  0.00     0.316 HD
HETATM   28  H24 UNL     1      22.999   0.708  54.069  1.00  0.00     0.153 HD
ENDROOT
BRANCH   1  29
HETATM   29  O1  UNL     1      17.045   0.190  50.062  1.00  0.00    -0.354 OA
HETATM   30  C1  UNL     1      16.287  -0.777  49.337  1.00  0.00     0.210 C 
ENDBRANCH   1  29
TORSDOF 1
ENDMDL
MODEL 5
REMARK VINA RESULT:      -8.1      2.347      6.556
REMARK  1 active torsions:
REMARK  status: ('A' for Active; 'I' for Inactive)
REMARK    1  A    between atoms: O1_2  and  C2_3 
ROOT
HETATM    1  C2  UNL     1      24.134   0.033  53.371  1.00  0.00     0.095 A 
HETATM    2  C3  UNL     1      25.332  -0.037  54.049  1.00  0.00     0.039 A 
HETATM    3  C4  UNL     1      26.280   0.986  53.986  1.00  0.00     0.003 A 
HETATM    4  C5  UNL     1      25.970   2.102  53.201  1.00  0.00     0.010 A 
HETATM    5  C6  UNL     1      24.767   2.174  52.521  1.00  0.00    -0.020 A 
HETATM    6  C7  UNL     1      23.868   1.141  52.615  1.00  0.00     0.072 A 
HETATM    7  N1  UNL     1      22.810   1.612  51.805  1.00  0.00    -0.356 N 
HETATM    8  C8  UNL     1      21.551   0.957  51.396  1.00  0.00     0.152 C 
HETATM    9  C9  UNL     1      20.406   1.895  51.702  1.00  0.00    -0.003 C 
HETATM   10  C10 UNL     1      20.681   3.168  52.052  1.00  0.00     0.050 C 
HETATM   11  C11 UNL     1      22.027   3.775  52.176  1.00  0.00     0.179 C 
HETATM   12  O2  UNL     1      21.988   4.757  52.960  1.00  0.00    -0.290 OA
HETATM   13  C12 UNL     1      22.968   2.975  51.297  1.00  0.00     0.133 C 
HETATM   14  C13 UNL     1      22.568   3.107  49.873  1.00  0.00     0.311 C 
HETATM   15  N2  UNL     1      23.117   4.158  49.112  1.00  0.00     0.105 N 
HETATM   16  C14 UNL     1      22.699   5.507  49.399  1.00  0.00     0.417 C 
HETATM   17  N3  UNL     1      23.630   6.384  48.792  1.00  0.00    -0.274 NA
HETATM   18  C15 UNL     1      24.147   6.376  47.643  1.00  0.00     0.115 C 
HETATM   19  C16 UNL     1      25.028   7.548  47.654  1.00  0.00     0.316 C 
HETATM   20  N4  UNL     1      26.457   7.241  47.881  1.00  0.00     0.089 N 
HETATM   21  C17 UNL     1      26.571   6.644  49.215  1.00  0.00     0.289 C 
HETATM   22  C18 UNL     1      26.215   5.173  49.165  1.00  0.00     0.144 C 
HETATM   23  N5  UNL     1      25.724   4.763  50.426  1.00  0.00    -0.419 N 
HETATM   24  C19 UNL     1      25.303   3.401  50.500  1.00  0.00     0.126 C 
HETATM   25  C20 UNL     1      24.352   3.315  51.684  1.00  0.00     0.076 C 
HETATM   26  H13 UNL     1      22.872   4.024  48.081  1.00  0.00     0.318 HD
HETATM   27  H19 UNL     1      26.831   6.584  47.193  1.00  0.00     0.316 HD
HETATM   28  H24 UNL     1      25.159   5.457  50.913  1.00  0.00     0.153 HD
ENDROOT
BRANCH   1  29
HETATM   29  O1  UNL     1      23.179  -0.988  53.428  1.00  0.00    -0.354 OA
HETATM   30  C1  UNL     1      22.270  -1.062  54.526  1.00  0.00     0.210 C 
ENDBRANCH   1  29
TORSDOF 1
ENDMDL
MODEL 6
REMARK VINA RESULT:      -8.0      3.478      5.134
REMARK  1 active torsions:
REMARK  status: ('A' for Active; 'I' for Inactive)
REMARK    1  A    between atoms: O1_2  and  C2_3 
ROOT
HETATM    1  C2  UNL     1      25.421   3.373  50.831  1.00  0.00     0.095 A 
HETATM    2  C3  UNL     1      26.361   2.652  51.534  1.00  0.00     0.039 A 
HETATM    3  C4  UNL     1      26.058   1.431  52.139  1.00  0.00     0.003 A 
HETATM    4  C5  UNL     1      24.748   0.955  52.005  1.00  0.00     0.010 A 
HETATM    5  C6  UNL     1      23.803   1.678  51.298  1.00  0.00    -0.020 A 
HETATM    6  C7  UNL     1      24.153   2.875  50.722  1.00  0.00     0.072 A 
HETATM    7  N1  UNL     1      22.938   3.259  50.111  1.00  0.00    -0.356 N 
HETATM    8  C8  UNL     1      22.578   4.496  49.388  1.00  0.00     0.152 C 
HETATM    9  C9  UNL     1      21.967   4.109  48.060  1.00  0.00    -0.003 C 
HETATM   10  C10 UNL     1      21.648   2.818  47.839  1.00  0.00     0.050 C 
HETATM   11  C11 UNL     1      21.835   1.692  48.784  1.00  0.00     0.179 C 
HETATM   12  O2  UNL     1      21.918   0.607  48.154  1.00  0.00    -0.290 OA
HETATM   13  C12 UNL     1      21.860   2.273  50.184  1.00  0.00     0.133 C 
HETATM   14  C13 UNL     1      20.543   2.885  50.502  1.00  0.00     0.311 C 
HETATM   15  N2  UNL     1      19.552   2.081  51.099  1.00  0.00     0.105 N 
HETATM   16  C14 UNL     1      18.930   1.052  50.305  1.00  0.00     0.417 C 
HETATM   17  N3  UNL     1      18.270   0.166  51.190  1.00  0.00    -0.274 NA
HETATM   18  C15 UNL     1      17.528   0.388  52.183  1.00  0.00     0.115 C 
HETATM   19  C16 UNL     1      17.182  -0.954  52.662  1.00  0.00     0.316 C 
HETATM   20  N4  UNL     1      17.964  -1.409  53.833  1.00  0.00     0.089 N 
HETATM   21  C17 UNL     1      19.369  -1.483  53.420  1.00  0.00     0.289 C 
HETATM   22  C18 UNL     1      20.005  -0.109  53.471  1.00  0.00     0.144 C 
HETATM   23  N5  UNL     1      21.066  -0.045  52.539  1.00  0.00    -0.419 N 
HETATM   24  C19 UNL     1      21.722   1.219  52.451  1.00  0.00     0.126 C 
HETATM   25  C20 UNL     1      22.408   1.248  51.094  1.00  0.00     0.076 C 
HETATM   26  H13 UNL     1      18.736   2.692  51.418  1.00  0.00     0.318 HD
HETATM   27  H19 UNL     1      17.888  -0.772  54.628  1.00  0.00     0.316 HD
HETATM   28  H24 UNL     1      20.906  -0.553  51.671  1.00  0.00     0.153 HD
ENDROOT
BRANCH   1  29
HETATM   29  O1  UNL     1      25.717   4.598  50.222  1.00  0.00    -0.354 OA
HETATM   30  C1  UNL     1      26.657   4.660  49.150  1.00  0.00     0.210 C 
ENDBRANCH   1  29
TORSDOF 1
ENDMDL
MODEL 7
REMARK VINA RESULT:      -7.9      4.367      7.347
REMARK  1 active torsions:
REMARK  status: ('A' for Active; 'I' for Inactive)
REMARK    1  A    between atoms: O1_2  and  C2_3 
ROOT
HETATM    1  C2  UNL     1      23.951   6.363  48.006  1.00  0.00     0.095 A 
HETATM    2  C3  UNL     1      23.735   5.139  48.601  1.00  0.00     0.039 A 
HETATM    3  C4  UNL     1      24.736   4.473  49.310  1.00  0.00     0.003 A 
HETATM    4  C5  UNL     1      25.986   5.098  49.399  1.00  0.00     0.010 A 
HETATM    5  C6  UNL     1      26.203   6.328  48.803  1.00  0.00    -0.020 A 
HETATM    6  C7  UNL     1      25.185   6.942  48.116  1.00  0.00     0.072 A 
HETATM    7  N1  UNL     1      25.811   8.137  47.693  1.00  0.00    -0.356 N 
HETATM    8  C8  UNL     1      25.311   9.226  46.829  1.00  0.00     0.152 C 
HETATM    9  C9  UNL     1      25.533  10.539  47.545  1.00  0.00    -0.003 C 
HETATM   10  C10 UNL     1      26.295  10.556  48.657  1.00  0.00     0.050 C 
HETATM   11  C11 UNL     1      26.965   9.391  49.282  1.00  0.00     0.179 C 
HETATM   12  O2  UNL     1      27.162   9.610  50.504  1.00  0.00    -0.290 OA
HETATM   13  C12 UNL     1      27.166   8.349  48.200  1.00  0.00     0.133 C 
HETATM   14  C13 UNL     1      28.092   8.869  47.161  1.00  0.00     0.311 C 
HETATM   15  N2  UNL     1      29.474   8.644  47.316  1.00  0.00     0.105 N 
HETATM   16  C14 UNL     1      30.174   9.354  48.357  1.00  0.00     0.417 C 
HETATM   17  N3  UNL     1      31.418   8.708  48.557  1.00  0.00    -0.274 NA
HETATM   18  C15 UNL     1      32.274   8.287  47.734  1.00  0.00     0.115 C 
HETATM   19  C16 UNL     1      33.321   7.716  48.588  1.00  0.00     0.316 C 
HETATM   20  N4  UNL     1      33.277   6.243  48.712  1.00  0.00     0.089 N 
HETATM   21  C17 UNL     1      32.006   5.894  49.353  1.00  0.00     0.289 C 
HETATM   22  C18 UNL     1      30.887   5.887  48.334  1.00  0.00     0.144 C 
HETATM   23  N5  UNL     1      29.660   6.175  48.976  1.00  0.00    -0.419 N 
HETATM   24  C19 UNL     1      28.526   6.248  48.113  1.00  0.00     0.126 C 
HETATM   25  C20 UNL     1      27.480   7.065  48.857  1.00  0.00     0.076 C 
HETATM   26  H13 UNL     1      29.988   8.922  46.422  1.00  0.00     0.318 HD
HETATM   27  H19 UNL     1      33.330   5.771  47.808  1.00  0.00     0.316 HD
HETATM   28  H24 UNL     1      29.721   6.854  49.731  1.00  0.00     0.153 HD
ENDROOT
BRANCH   1  29
HETATM   29  O1  UNL     1      22.953   7.038  47.294  1.00  0.00    -0.354 OA
HETATM   30  C1  UNL     1      22.647   6.661  45.952  1.00  0.00     0.210 C 
ENDBRANCH   1  29
TORSDOF 1
ENDMDL
MODEL 8
REMARK VINA RESULT:      -7.6      4.199      7.359
REMARK  1 active torsions:
REMARK  status: ('A' for Active; 'I' for Inactive)
REMARK    1  A    between atoms: O1_2  and  C2_3 
ROOT
HETATM    1  C2  UNL     1      24.071   0.864  52.821  1.00  0.00     0.095 A 
HETATM    2  C3  UNL     1      23.885  -0.245  53.617  1.00  0.00     0.039 A 
HETATM    3  C4  UNL     1      22.684  -0.958  53.625  1.00  0.00     0.003 A 
HETATM    4  C5  UNL     1      21.660  -0.502  52.786  1.00  0.00     0.010 A 
HETATM    5  C6  UNL     1      21.847   0.612  51.986  1.00  0.00    -0.020 A 
HETATM    6  C7  UNL     1      23.048   1.277  52.015  1.00  0.00     0.072 A 
HETATM    7  N1  UNL     1      22.821   2.307  51.073  1.00  0.00    -0.356 N 
HETATM    8  C8  UNL     1      23.675   3.445  50.675  1.00  0.00     0.152 C 
HETATM    9  C9  UNL     1      23.780   3.454  49.167  1.00  0.00    -0.003 C 
HETATM   10  C10 UNL     1      22.971   2.648  48.451  1.00  0.00     0.050 C 
HETATM   11  C11 UNL     1      21.952   1.718  48.993  1.00  0.00     0.179 C 
HETATM   12  O2  UNL     1      21.731   0.792  48.173  1.00  0.00    -0.290 OA
HETATM   13  C12 UNL     1      21.547   2.236  50.360  1.00  0.00     0.133 C 
HETATM   14  C13 UNL     1      20.889   3.561  50.225  1.00  0.00     0.311 C 
HETATM   15  N2  UNL     1      19.493   3.606  50.046  1.00  0.00     0.105 N 
HETATM   16  C14 UNL     1      18.945   3.159  48.790  1.00  0.00     0.417 C 
HETATM   17  N3  UNL     1      17.558   2.948  48.977  1.00  0.00    -0.274 NA
HETATM   18  C15 UNL     1      16.683   3.650  49.551  1.00  0.00     0.115 C 
HETATM   19  C16 UNL     1      15.455   2.864  49.398  1.00  0.00     0.316 C 
HETATM   20  N4  UNL     1      15.069   2.088  50.597  1.00  0.00     0.089 N 
HETATM   21  C17 UNL     1      16.135   1.116  50.853  1.00  0.00     0.289 C 
HETATM   22  C18 UNL     1      17.282   1.774  51.591  1.00  0.00     0.144 C 
HETATM   23  N5  UNL     1      18.486   1.094  51.296  1.00  0.00    -0.419 N 
HETATM   24  C19 UNL     1      19.658   1.648  51.894  1.00  0.00     0.126 C 
HETATM   25  C20 UNL     1      20.832   1.153  51.063  1.00  0.00     0.076 C 
HETATM   26  H13 UNL     1      19.149   4.614  50.135  1.00  0.00     0.318 HD
HETATM   27  H19 UNL     1      14.954   2.676  51.425  1.00  0.00     0.316 HD
HETATM   28  H24 UNL     1      18.563   0.752  50.341  1.00  0.00     0.153 HD
ENDROOT
BRANCH   1  29
HETATM   29  O1  UNL     1      25.271   1.584  52.807  1.00  0.00    -0.354 OA
HETATM   30  C1  UNL     1      26.355   1.160  51.980  1.00  0.00     0.210 C 
ENDBRANCH   1  29
TORSDOF 1
ENDMDL
MODEL 9
REMARK VINA RESULT:      -7.5      4.227      6.726
REMARK  1 active torsions:
REMARK  status: ('A' for Active; 'I' for Inactive)
REMARK    1  A    between atoms: O1_2  and  C2_3 
ROOT
HETATM    1  C2  UNL     1      24.811   1.448  52.827  1.00  0.00     0.095 A 
HETATM    2  C3  UNL     1      25.287   0.364  53.533  1.00  0.00     0.039 A 
HETATM    3  C4  UNL     1      24.512  -0.777  53.750  1.00  0.00     0.003 A 
HETATM    4  C5  UNL     1      23.217  -0.785  53.219  1.00  0.00     0.010 A 
HETATM    5  C6  UNL     1      22.739   0.302  52.509  1.00  0.00    -0.020 A 
HETATM    6  C7  UNL     1      23.541   1.401  52.323  1.00  0.00     0.072 A 
HETATM    7  N1  UNL     1      22.695   2.242  51.564  1.00  0.00    -0.356 N 
HETATM    8  C8  UNL     1      22.896   3.626  51.091  1.00  0.00     0.152 C 
HETATM    9  C9  UNL     1      22.607   3.668  49.608  1.00  0.00    -0.003 C 
HETATM   10  C10 UNL     1      22.034   2.596  49.024  1.00  0.00     0.050 C 
HETATM   11  C11 UNL     1      21.640   1.335  49.695  1.00  0.00     0.179 C 
HETATM   12  O2  UNL     1      21.608   0.394  48.862  1.00  0.00    -0.290 OA
HETATM   13  C12 UNL     1      21.420   1.650  51.161  1.00  0.00     0.133 C 
HETATM   14  C13 UNL     1      20.279   2.590  51.312  1.00  0.00     0.311 C 
HETATM   15  N2  UNL     1      18.983   2.058  51.466  1.00  0.00     0.105 N 
HETATM   16  C14 UNL     1      18.362   1.418  50.334  1.00  0.00     0.417 C 
HETATM   17  N3  UNL     1      17.269   0.659  50.816  1.00  0.00    -0.274 NA
HETATM   18  C15 UNL     1      16.362   0.946  51.642  1.00  0.00     0.115 C 
HETATM   19  C16 UNL     1      15.552  -0.275  51.702  1.00  0.00     0.316 C 
HETATM   20  N4  UNL     1      15.821  -1.133  52.877  1.00  0.00     0.089 N 
HETATM   21  C17 UNL     1      17.213  -1.583  52.783  1.00  0.00     0.289 C 
HETATM   22  C18 UNL     1      18.149  -0.508  53.296  1.00  0.00     0.144 C 
HETATM   23  N5  UNL     1      19.408  -0.638  52.666  1.00  0.00    -0.419 N 
HETATM   24  C19 UNL     1      20.371   0.351  53.027  1.00  0.00     0.126 C 
HETATM   25  C20 UNL     1      21.396   0.374  51.903  1.00  0.00     0.076 C 
HETATM   26  H13 UNL     1      18.302   2.838  51.730  1.00  0.00     0.318 HD
HETATM   27  H19 UNL     1      15.693  -0.639  53.762  1.00  0.00     0.316 HD
HETATM   28  H24 UNL     1      19.372  -0.925  51.691  1.00  0.00     0.153 HD
ENDROOT
BRANCH   1  29
HETATM   29  O1  UNL     1      25.580   2.595  52.605  1.00  0.00    -0.354 OA
HETATM   30  C1  UNL     1      26.513   2.639  51.526  1.00  0.00     0.210 C 
ENDBRANCH   1  29
TORSDOF 1
ENDMDL
