MODEL 1
REMARK VINA RESULT:      -7.7      0.000      0.000
REMARK  5 active torsions:
REMARK  status: ('A' for Active; 'I' for Inactive)
REMARK    1  A    between atoms: N1_2  and  C2_3 
REMARK    2  A    between atoms: C2_3  and  C4_5 
REMARK    3  A    between atoms: C4_5  and  C5_7 
REMARK    4  A    between atoms: C10_12  and  O2_13 
REMARK    5  A    between atoms: O2_13  and  C11_14 
ROOT
HETATM    1  C5  UNL     1      25.826   1.887  52.294  1.00  0.00     0.045 A 
HETATM    2  C6  UNL     1      26.772   2.442  51.457  1.00  0.00     0.018 A 
HETATM    3  C7  UNL     1      26.412   3.072  50.285  1.00  0.00     0.001 A 
HETATM    4  C8  UNL     1      25.073   3.138  49.962  1.00  0.00     0.003 A 
HETATM    5  C9  UNL     1      24.168   2.570  50.830  1.00  0.00     0.038 A 
HETATM    6  C10 UNL     1      24.456   1.930  52.008  1.00  0.00     0.084 A 
ENDROOT
BRANCH   6   7
HETATM    7  O2  UNL     1      23.633   1.340  52.926  1.00  0.00    -0.337 OA
BRANCH   7   8
HETATM    8  C11 UNL     1      22.582   0.504  52.548  1.00  0.00     0.181 C 
HETATM    9  C12 UNL     1      22.897  -0.846  53.134  1.00  0.00     0.022 C 
HETATM   10  C13 UNL     1      22.751  -1.023  54.423  1.00  0.00    -0.027 C 
HETATM   11  C14 UNL     1      21.629  -0.639  54.963  1.00  0.00     0.012 C 
HETATM   12  C15 UNL     1      20.832   0.391  54.304  1.00  0.00     0.006 C 
HETATM   13  C16 UNL     1      21.282   0.925  53.171  1.00  0.00    -0.051 C 
HETATM   14  C17 UNL     1      20.359   1.963  52.618  1.00  0.00     0.046 C 
ENDBRANCH   7   8
ENDBRANCH   6   7
BRANCH   1  15
HETATM   15  C4  UNL     1      26.260   1.230  53.514  1.00  0.00     0.195 C 
HETATM   16  O1  UNL     1      26.480   1.852  54.573  1.00  0.00    -0.290 OA
BRANCH  15  17
HETATM   17  C2  UNL     1      26.518  -0.209  53.753  1.00  0.00     0.290 C 
HETATM   18  C3  UNL     1      26.636  -0.920  52.443  1.00  0.00     0.051 C 
BRANCH  17  19
HETATM   19  N1  UNL     1      27.701  -0.372  54.582  1.00  0.00     0.090 N 
HETATM   20  C1  UNL     1      28.885  -0.609  53.828  1.00  0.00     0.307 C 
HETATM   21  H4  UNL     1      27.545  -1.153  55.256  1.00  0.00     0.316 HD
ENDBRANCH  17  19
ENDBRANCH  15  17
ENDBRANCH   1  15
TORSDOF 5
ENDMDL
MODEL 2
REMARK VINA RESULT:      -7.2      1.938      5.516
REMARK  5 active torsions:
REMARK  status: ('A' for Active; 'I' for Inactive)
REMARK    1  A    between atoms: N1_2  and  C2_3 
REMARK    2  A    between atoms: C2_3  and  C4_5 
REMARK    3  A    between atoms: C4_5  and  C5_7 
REMARK    4  A    between atoms: C10_12  and  O2_13 
REMARK    5  A    between atoms: O2_13  and  C11_14 
ROOT
HETATM    1  C5  UNL     1      23.507   1.453  52.564  1.00  0.00     0.045 A 
HETATM    2  C6  UNL     1      22.200   1.070  52.344  1.00  0.00     0.018 A 
HETATM    3  C7  UNL     1      21.721  -0.141  52.797  1.00  0.00     0.001 A 
HETATM    4  C8  UNL     1      22.584  -0.971  53.482  1.00  0.00     0.003 A 
HETATM    5  C9  UNL     1      23.878  -0.543  53.675  1.00  0.00     0.038 A 
HETATM    6  C10 UNL     1      24.418   0.644  53.253  1.00  0.00     0.084 A 
ENDROOT
BRANCH   6   7
HETATM    7  O2  UNL     1      25.680   1.151  53.398  1.00  0.00    -0.337 OA
BRANCH   7   8
HETATM    8  C11 UNL     1      26.708   0.839  52.509  1.00  0.00     0.181 C 
HETATM    9  C12 UNL     1      27.678   1.987  52.578  1.00  0.00     0.022 C 
HETATM   10  C13 UNL     1      28.445   2.102  53.633  1.00  0.00    -0.027 C 
HETATM   11  C14 UNL     1      29.097   1.044  54.024  1.00  0.00     0.012 C 
HETATM   12  C15 UNL     1      28.600  -0.280  53.661  1.00  0.00     0.006 C 
HETATM   13  C16 UNL     1      27.479  -0.372  52.950  1.00  0.00    -0.051 C 
HETATM   14  C17 UNL     1      27.098  -1.789  52.657  1.00  0.00     0.046 C 
ENDBRANCH   7   8
ENDBRANCH   6   7
BRANCH   1  15
HETATM   15  C4  UNL     1      23.961   2.737  52.060  1.00  0.00     0.195 C 
HETATM   16  O1  UNL     1      23.995   3.765  52.767  1.00  0.00    -0.290 OA
BRANCH  15  17
HETATM   17  C2  UNL     1      24.446   3.085  50.705  1.00  0.00     0.290 C 
HETATM   18  C3  UNL     1      23.297   3.543  49.864  1.00  0.00     0.051 C 
BRANCH  17  19
HETATM   19  N1  UNL     1      25.501   4.081  50.793  1.00  0.00     0.090 N 
HETATM   20  C1  UNL     1      26.427   4.014  49.714  1.00  0.00     0.307 C 
HETATM   21  H4  UNL     1      26.003   3.973  51.701  1.00  0.00     0.316 HD
ENDBRANCH  17  19
ENDBRANCH  15  17
ENDBRANCH   1  15
TORSDOF 5
ENDMDL
MODEL 3
REMARK VINA RESULT:      -7.0      1.498      4.370
REMARK  5 active torsions:
REMARK  status: ('A' for Active; 'I' for Inactive)
REMARK    1  A    between atoms: N1_2  and  C2_3 
REMARK    2  A    between atoms: C2_3  and  C4_5 
REMARK    3  A    between atoms: C4_5  and  C5_7 
REMARK    4  A    between atoms: C10_12  and  O2_13 
REMARK    5  A    between atoms: O2_13  and  C11_14 
ROOT
HETATM    1  C5  UNL     1      23.585  -0.188  53.572  1.00  0.00     0.045 A 
HETATM    2  C6  UNL     1      23.230  -0.938  54.674  1.00  0.00     0.018 A 
HETATM    3  C7  UNL     1      21.931  -1.358  54.870  1.00  0.00     0.001 A 
HETATM    4  C8  UNL     1      20.983  -1.008  53.931  1.00  0.00     0.003 A 
HETATM    5  C9  UNL     1      21.388  -0.259  52.849  1.00  0.00     0.038 A 
HETATM    6  C10 UNL     1      22.657   0.190  52.594  1.00  0.00     0.084 A 
ENDROOT
BRANCH   6   7
HETATM    7  O2  UNL     1      23.149   0.932  51.557  1.00  0.00    -0.337 OA
BRANCH   7   8
HETATM    8  C11 UNL     1      22.490   2.066  51.082  1.00  0.00     0.181 C 
HETATM    9  C12 UNL     1      23.313   3.242  51.533  1.00  0.00     0.022 C 
HETATM   10  C13 UNL     1      24.449   3.487  50.930  1.00  0.00    -0.027 C 
HETATM   11  C14 UNL     1      24.447   3.516  49.627  1.00  0.00     0.012 C 
HETATM   12  C15 UNL     1      23.405   2.802  48.895  1.00  0.00     0.006 C 
HETATM   13  C16 UNL     1      22.489   2.123  49.581  1.00  0.00    -0.051 C 
HETATM   14  C17 UNL     1      21.492   1.446  48.695  1.00  0.00     0.046 C 
ENDBRANCH   7   8
ENDBRANCH   6   7
BRANCH   1  15
HETATM   15  C4  UNL     1      24.966   0.231  53.418  1.00  0.00     0.195 C 
HETATM   16  O1  UNL     1      25.391   1.324  53.845  1.00  0.00    -0.290 OA
BRANCH  15  17
HETATM   17  C2  UNL     1      26.089  -0.488  52.773  1.00  0.00     0.290 C 
HETATM   18  C3  UNL     1      26.740   0.403  51.764  1.00  0.00     0.051 C 
BRANCH  17  19
HETATM   19  N1  UNL     1      27.024  -0.959  53.782  1.00  0.00     0.090 N 
HETATM   20  C1  UNL     1      28.386  -0.734  53.433  1.00  0.00     0.307 C 
HETATM   21  H4  UNL     1      26.863  -1.976  53.954  1.00  0.00     0.316 HD
ENDBRANCH  17  19
ENDBRANCH  15  17
ENDBRANCH   1  15
TORSDOF 5
ENDMDL
MODEL 4
REMARK VINA RESULT:      -6.9      1.490      2.311
REMARK  5 active torsions:
REMARK  status: ('A' for Active; 'I' for Inactive)
REMARK    1  A    between atoms: N1_2  and  C2_3 
REMARK    2  A    between atoms: C2_3  and  C4_5 
REMARK    3  A    between atoms: C4_5  and  C5_7 
REMARK    4  A    between atoms: C10_12  and  O2_13 
REMARK    5  A    between atoms: O2_13  and  C11_14 
ROOT
HETATM    1  C5  UNL     1      25.016   1.586  51.709  1.00  0.00     0.045 A 
HETATM    2  C6  UNL     1      25.595   2.563  50.925  1.00  0.00     0.018 A 
HETATM    3  C7  UNL     1      24.861   3.263  49.991  1.00  0.00     0.001 A 
HETATM    4  C8  UNL     1      23.522   2.964  49.854  1.00  0.00     0.003 A 
HETATM    5  C9  UNL     1      22.991   1.982  50.660  1.00  0.00     0.038 A 
HETATM    6  C10 UNL     1      23.661   1.249  51.605  1.00  0.00     0.084 A 
ENDROOT
BRANCH   6   7
HETATM    7  O2  UNL     1      23.223   0.263  52.444  1.00  0.00    -0.337 OA
BRANCH   7   8
HETATM    8  C11 UNL     1      22.569   0.549  53.643  1.00  0.00     0.181 C 
HETATM    9  C12 UNL     1      21.186   1.004  53.261  1.00  0.00     0.022 C 
HETATM   10  C13 UNL     1      20.321   0.113  52.848  1.00  0.00    -0.027 C 
HETATM   11  C14 UNL     1      20.170  -0.963  53.567  1.00  0.00     0.012 C 
HETATM   12  C15 UNL     1      21.252  -1.394  54.447  1.00  0.00     0.006 C 
HETATM   13  C16 UNL     1      22.375  -0.682  54.480  1.00  0.00    -0.051 C 
HETATM   14  C17 UNL     1      23.387  -1.247  55.426  1.00  0.00     0.046 C 
ENDBRANCH   7   8
ENDBRANCH   6   7
BRANCH   1  15
HETATM   15  C4  UNL     1      25.836   0.877  52.674  1.00  0.00     0.195 C 
HETATM   16  O1  UNL     1      26.341  -0.240  52.438  1.00  0.00    -0.290 OA
BRANCH  15  17
HETATM   17  C2  UNL     1      26.227   1.287  54.042  1.00  0.00     0.290 C 
HETATM   18  C3  UNL     1      26.970   0.172  54.706  1.00  0.00     0.051 C 
BRANCH  17  19
HETATM   19  N1  UNL     1      27.001   2.517  53.992  1.00  0.00     0.090 N 
HETATM   20  C1  UNL     1      28.354   2.311  53.598  1.00  0.00     0.307 C 
HETATM   21  H4  UNL     1      26.968   2.984  54.924  1.00  0.00     0.316 HD
ENDBRANCH  17  19
ENDBRANCH  15  17
ENDBRANCH   1  15
TORSDOF 5
ENDMDL
MODEL 5
REMARK VINA RESULT:      -6.9      1.604      4.500
REMARK  5 active torsions:
REMARK  status: ('A' for Active; 'I' for Inactive)
REMARK    1  A    between atoms: N1_2  and  C2_3 
REMARK    2  A    between atoms: C2_3  and  C4_5 
REMARK    3  A    between atoms: C4_5  and  C5_7 
REMARK    4  A    between atoms: C10_12  and  O2_13 
REMARK    5  A    between atoms: O2_13  and  C11_14 
ROOT
HETATM    1  C5  UNL     1      24.850  -0.046  53.272  1.00  0.00     0.045 A 
HETATM    2  C6  UNL     1      24.262  -0.823  54.248  1.00  0.00     0.018 A 
HETATM    3  C7  UNL     1      22.906  -0.767  54.492  1.00  0.00     0.001 A 
HETATM    4  C8  UNL     1      22.140   0.092  53.731  1.00  0.00     0.003 A 
HETATM    5  C9  UNL     1      22.774   0.846  52.769  1.00  0.00     0.038 A 
HETATM    6  C10 UNL     1      24.113   0.839  52.476  1.00  0.00     0.084 A 
ENDROOT
BRANCH   6   7
HETATM    7  O2  UNL     1      24.826   1.546  51.548  1.00  0.00    -0.337 OA
BRANCH   7   8
HETATM    8  C11 UNL     1      25.311   2.827  51.807  1.00  0.00     0.181 C 
HETATM    9  C12 UNL     1      26.527   2.993  50.936  1.00  0.00     0.022 C 
HETATM   10  C13 UNL     1      26.362   3.172  49.650  1.00  0.00    -0.027 C 
HETATM   11  C14 UNL     1      25.510   4.082  49.271  1.00  0.00     0.012 C 
HETATM   12  C15 UNL     1      24.436   4.481  50.177  1.00  0.00     0.006 C 
HETATM   13  C16 UNL     1      24.347   3.890  51.365  1.00  0.00    -0.051 C 
HETATM   14  C17 UNL     1      23.200   4.403  52.178  1.00  0.00     0.046 C 
ENDBRANCH   7   8
ENDBRANCH   6   7
BRANCH   1  15
HETATM   15  C4  UNL     1      26.283  -0.141  53.061  1.00  0.00     0.195 C 
HETATM   16  O1  UNL     1      26.783  -0.502  51.976  1.00  0.00    -0.290 OA
BRANCH  15  17
HETATM   17  C2  UNL     1      27.383   0.147  54.010  1.00  0.00     0.290 C 
HETATM   18  C3  UNL     1      28.658  -0.436  53.490  1.00  0.00     0.051 C 
BRANCH  17  19
HETATM   19  N1  UNL     1      27.481   1.579  54.240  1.00  0.00     0.090 N 
HETATM   20  C1  UNL     1      28.700   2.141  53.764  1.00  0.00     0.307 C 
HETATM   21  H4  UNL     1      27.372   1.774  55.259  1.00  0.00     0.316 HD
ENDBRANCH  17  19
ENDBRANCH  15  17
ENDBRANCH   1  15
TORSDOF 5
ENDMDL
MODEL 6
REMARK VINA RESULT:      -6.8      1.951      3.552
REMARK  5 active torsions:
REMARK  status: ('A' for Active; 'I' for Inactive)
REMARK    1  A    between atoms: N1_2  and  C2_3 
REMARK    2  A    between atoms: C2_3  and  C4_5 
REMARK    3  A    between atoms: C4_5  and  C5_7 
REMARK    4  A    between atoms: C10_12  and  O2_13 
REMARK    5  A    between atoms: O2_13  and  C11_14 
ROOT
HETATM    1  C5  UNL     1      25.571   1.475  52.763  1.00  0.00     0.045 A 
HETATM    2  C6  UNL     1      26.938   1.513  52.579  1.00  0.00     0.018 A 
HETATM    3  C7  UNL     1      27.712   0.379  52.700  1.00  0.00     0.001 A 
HETATM    4  C8  UNL     1      27.085  -0.810  53.013  1.00  0.00     0.003 A 
HETATM    5  C9  UNL     1      25.719  -0.796  53.186  1.00  0.00     0.038 A 
HETATM    6  C10 UNL     1      24.892   0.292  53.081  1.00  0.00     0.084 A 
ENDROOT
BRANCH   6   7
HETATM    7  O2  UNL     1      23.539   0.401  53.234  1.00  0.00    -0.337 OA
BRANCH   7   8
HETATM    8  C11 UNL     1      22.657  -0.546  52.713  1.00  0.00     0.181 C 
HETATM    9  C12 UNL     1      22.062  -1.254  53.900  1.00  0.00     0.022 C 
HETATM   10  C13 UNL     1      21.170  -0.629  54.626  1.00  0.00    -0.027 C 
HETATM   11  C14 UNL     1      20.180  -0.055  54.005  1.00  0.00     0.012 C 
HETATM   12  C15 UNL     1      20.338   0.330  52.605  1.00  0.00     0.006 C 
HETATM   13  C16 UNL     1      21.501   0.098  52.003  1.00  0.00    -0.051 C 
HETATM   14  C17 UNL     1      21.510   0.546  50.576  1.00  0.00     0.046 C 
ENDBRANCH   7   8
ENDBRANCH   6   7
BRANCH   1  15
HETATM   15  C4  UNL     1      24.806   2.701  52.628  1.00  0.00     0.195 C 
HETATM   16  O1  UNL     1      24.505   3.419  53.603  1.00  0.00    -0.290 OA
BRANCH  15  17
HETATM   17  C2  UNL     1      24.255   3.322  51.401  1.00  0.00     0.290 C 
HETATM   18  C3  UNL     1      22.859   3.791  51.661  1.00  0.00     0.051 C 
BRANCH  17  19
HETATM   19  N1  UNL     1      25.126   4.397  50.953  1.00  0.00     0.090 N 
HETATM   20  C1  UNL     1      25.986   4.012  49.885  1.00  0.00     0.307 C 
HETATM   21  H4  UNL     1      25.691   4.742  51.759  1.00  0.00     0.316 HD
ENDBRANCH  17  19
ENDBRANCH  15  17
ENDBRANCH   1  15
TORSDOF 5
ENDMDL
MODEL 7
REMARK VINA RESULT:      -6.7      2.355      4.294
REMARK  5 active torsions:
REMARK  status: ('A' for Active; 'I' for Inactive)
REMARK    1  A    between atoms: N1_2  and  C2_3 
REMARK    2  A    between atoms: C2_3  and  C4_5 
REMARK    3  A    between atoms: C4_5  and  C5_7 
REMARK    4  A    between atoms: C10_12  and  O2_13 
REMARK    5  A    between atoms: O2_13  and  C11_14 
ROOT
HETATM    1  C5  UNL     1      24.379   1.937  51.651  1.00  0.00     0.045 A 
HETATM    2  C6  UNL     1      25.645   2.424  51.398  1.00  0.00     0.018 A 
HETATM    3  C7  UNL     1      26.772   1.737  51.795  1.00  0.00     0.001 A 
HETATM    4  C8  UNL     1      26.607   0.539  52.459  1.00  0.00     0.003 A 
HETATM    5  C9  UNL     1      25.324   0.096  52.687  1.00  0.00     0.038 A 
HETATM    6  C10 UNL     1      24.163   0.726  52.320  1.00  0.00     0.084 A 
ENDROOT
BRANCH   6   7
HETATM    7  O2  UNL     1      22.857   0.366  52.502  1.00  0.00    -0.337 OA
BRANCH   7   8
HETATM    8  C11 UNL     1      22.208   0.532  53.725  1.00  0.00     0.181 C 
HETATM    9  C12 UNL     1      20.804   0.961  53.392  1.00  0.00     0.022 C 
HETATM   10  C13 UNL     1      19.968   0.072  52.918  1.00  0.00    -0.027 C 
HETATM   11  C14 UNL     1      19.867  -1.061  53.553  1.00  0.00     0.012 C 
HETATM   12  C15 UNL     1      20.975  -1.517  54.388  1.00  0.00     0.006 C 
HETATM   13  C16 UNL     1      22.071  -0.767  54.466  1.00  0.00    -0.051 C 
HETATM   14  C17 UNL     1      23.114  -1.363  55.356  1.00  0.00     0.046 C 
ENDBRANCH   7   8
ENDBRANCH   6   7
BRANCH   1  15
HETATM   15  C4  UNL     1      23.226   2.704  51.215  1.00  0.00     0.195 C 
HETATM   16  O1  UNL     1      22.712   3.604  51.910  1.00  0.00    -0.290 OA
BRANCH  15  17
HETATM   17  C2  UNL     1      22.465   2.599  49.948  1.00  0.00     0.290 C 
HETATM   18  C3  UNL     1      23.340   3.001  48.804  1.00  0.00     0.051 C 
BRANCH  17  19
HETATM   19  N1  UNL     1      21.936   1.253  49.795  1.00  0.00     0.090 N 
HETATM   20  C1  UNL     1      20.584   1.231  49.348  1.00  0.00     0.307 C 
HETATM   21  H4  UNL     1      22.021   0.744  50.701  1.00  0.00     0.316 HD
ENDBRANCH  17  19
ENDBRANCH  15  17
ENDBRANCH   1  15
TORSDOF 5
ENDMDL
MODEL 8
REMARK VINA RESULT:      -6.6      2.442      5.595
REMARK  5 active torsions:
REMARK  status: ('A' for Active; 'I' for Inactive)
REMARK    1  A    between atoms: N1_2  and  C2_3 
REMARK    2  A    between atoms: C2_3  and  C4_5 
REMARK    3  A    between atoms: C4_5  and  C5_7 
REMARK    4  A    between atoms: C10_12  and  O2_13 
REMARK    5  A    between atoms: O2_13  and  C11_14 
ROOT
HETATM    1  C5  UNL     1      22.057   0.673  52.641  1.00  0.00     0.045 A 
HETATM    2  C6  UNL     1      20.691   0.560  52.802  1.00  0.00     0.018 A 
HETATM    3  C7  UNL     1      20.137  -0.456  53.549  1.00  0.00     0.001 A 
HETATM    4  C8  UNL     1      20.984  -1.370  54.141  1.00  0.00     0.003 A 
HETATM    5  C9  UNL     1      22.339  -1.214  53.951  1.00  0.00     0.038 A 
HETATM    6  C10 UNL     1      22.955  -0.231  53.222  1.00  0.00     0.084 A 
ENDROOT
BRANCH   6   7
HETATM    7  O2  UNL     1      24.280   0.002  52.980  1.00  0.00    -0.337 OA
BRANCH   7   8
HETATM    8  C11 UNL     1      25.276  -0.870  53.419  1.00  0.00     0.181 C 
HETATM    9  C12 UNL     1      26.410  -0.729  52.439  1.00  0.00     0.022 C 
HETATM   10  C13 UNL     1      27.151   0.349  52.482  1.00  0.00    -0.027 C 
HETATM   11  C14 UNL     1      27.618   0.717  53.641  1.00  0.00     0.012 C 
HETATM   12  C15 UNL     1      26.933   0.289  54.858  1.00  0.00     0.006 C 
HETATM   13  C16 UNL     1      25.836  -0.455  54.749  1.00  0.00    -0.051 C 
HETATM   14  C17 UNL     1      25.249  -0.813  56.078  1.00  0.00     0.046 C 
ENDBRANCH   7   8
ENDBRANCH   6   7
BRANCH   1  15
HETATM   15  C4  UNL     1      22.587   1.760  51.839  1.00  0.00     0.195 C 
HETATM   16  O1  UNL     1      22.908   1.621  50.641  1.00  0.00    -0.290 OA
BRANCH  15  17
HETATM   17  C2  UNL     1      22.843   3.165  52.231  1.00  0.00     0.290 C 
HETATM   18  C3  UNL     1      24.169   3.260  52.916  1.00  0.00     0.051 C 
BRANCH  17  19
HETATM   19  N1  UNL     1      22.758   4.032  51.067  1.00  0.00     0.090 N 
HETATM   20  C1  UNL     1      23.672   5.123  51.112  1.00  0.00     0.307 C 
HETATM   21  H4  UNL     1      21.782   4.388  50.972  1.00  0.00     0.316 HD
ENDBRANCH  17  19
ENDBRANCH  15  17
ENDBRANCH   1  15
TORSDOF 5
ENDMDL
MODEL 9
REMARK VINA RESULT:      -6.5      2.323      4.211
REMARK  5 active torsions:
REMARK  status: ('A' for Active; 'I' for Inactive)
REMARK    1  A    between atoms: N1_2  and  C2_3 
REMARK    2  A    between atoms: C2_3  and  C4_5 
REMARK    3  A    between atoms: C4_5  and  C5_7 
REMARK    4  A    between atoms: C10_12  and  O2_13 
REMARK    5  A    between atoms: O2_13  and  C11_14 
ROOT
HETATM    1  C5  UNL     1      24.734   1.658  51.653  1.00  0.00     0.045 A 
HETATM    2  C6  UNL     1      26.082   1.922  51.521  1.00  0.00     0.018 A 
HETATM    3  C7  UNL     1      27.032   1.130  52.129  1.00  0.00     0.001 A 
HETATM    4  C8  UNL     1      26.605   0.057  52.882  1.00  0.00     0.003 A 
HETATM    5  C9  UNL     1      25.249  -0.165  52.983  1.00  0.00     0.038 A 
HETATM    6  C10 UNL     1      24.253   0.580  52.406  1.00  0.00     0.084 A 
ENDROOT
BRANCH   6   7
HETATM    7  O2  UNL     1      22.895   0.438  52.450  1.00  0.00    -0.337 OA
BRANCH   7   8
HETATM    8  C11 UNL     1      22.166   0.655  53.619  1.00  0.00     0.181 C 
HETATM    9  C12 UNL     1      20.848   1.236  53.183  1.00  0.00     0.022 C 
HETATM   10  C13 UNL     1      19.966   0.449  52.622  1.00  0.00    -0.027 C 
HETATM   11  C14 UNL     1      19.693  -0.676  53.219  1.00  0.00     0.012 C 
HETATM   12  C15 UNL     1      20.673  -1.260  54.131  1.00  0.00     0.006 C 
HETATM   13  C16 UNL     1      21.831  -0.633  54.316  1.00  0.00    -0.051 C 
HETATM   14  C17 UNL     1      22.728  -1.350  55.274  1.00  0.00     0.046 C 
ENDBRANCH   7   8
ENDBRANCH   6   7
BRANCH   1  15
HETATM   15  C4  UNL     1      23.776   2.527  50.994  1.00  0.00     0.195 C 
HETATM   16  O1  UNL     1      23.167   2.196  49.956  1.00  0.00    -0.290 OA
BRANCH  15  17
HETATM   17  C2  UNL     1      23.341   3.890  51.378  1.00  0.00     0.290 C 
HETATM   18  C3  UNL     1      23.580   4.099  52.839  1.00  0.00     0.051 C 
BRANCH  17  19
HETATM   19  N1  UNL     1      24.022   4.879  50.558  1.00  0.00     0.090 N 
HETATM   20  C1  UNL     1      24.081   6.166  51.166  1.00  0.00     0.307 C 
HETATM   21  H4  UNL     1      23.548   4.944  49.631  1.00  0.00     0.316 HD
ENDBRANCH  17  19
ENDBRANCH  15  17
ENDBRANCH   1  15
TORSDOF 5
ENDMDL
