MODEL 1
REMARK VINA RESULT:      -8.5      0.000      0.000
REMARK  0 active torsions:
REMARK  status: ('A' for Active; 'I' for Inactive)
ROOT
HETATM    1  F1  UNL     1      24.545   3.318  49.056  1.00  0.00    -0.211 F 
HETATM    2  C1  UNL     1      24.042   3.102  50.315  1.00  0.00     0.094 C 
HETATM    3  C2  UNL     1      23.069   3.949  50.657  1.00  0.00     0.035 C 
HETATM    4  C3  UNL     1      22.402   3.887  51.955  1.00  0.00    -0.007 C 
HETATM    5  C4  UNL     1      22.194   2.895  52.777  1.00  0.00     0.035 A 
HETATM    6  C5  UNL     1      22.842   1.778  52.598  1.00  0.00    -0.047 A 
HETATM    7  O1  UNL     1      21.478   1.764  52.801  1.00  0.00     0.000 OA
HETATM    8  C6  UNL     1      20.646   0.713  52.405  1.00  0.00     0.137 C 
HETATM    9  N1  UNL     1      20.431  -0.184  53.323  1.00  0.00    -0.250 NA
HETATM   10  C7  UNL     1      21.046  -0.014  54.605  1.00  0.00     0.264 C 
HETATM   11  N2  UNL     1      22.190  -0.535  54.899  1.00  0.00    -0.101 NA
HETATM   12  O2  UNL     1      22.849  -1.273  53.972  1.00  0.00    -0.135 OA
HETATM   13  N3  UNL     1      23.690  -0.649  53.052  1.00  0.00    -0.269 N 
HETATM   14  C8  UNL     1      24.733   0.310  52.753  1.00  0.00     0.056 C 
HETATM   15  C9  UNL     1      25.766  -0.571  52.997  1.00  0.00     0.094 C 
HETATM   16  C10 UNL     1      27.114  -0.254  52.877  1.00  0.00     0.049 C 
HETATM   17  C11 UNL     1      27.978  -0.157  53.892  1.00  0.00    -0.009 C 
HETATM   18  C12 UNL     1      27.242  -0.023  54.947  1.00  0.00    -0.029 C 
HETATM   19  C13 UNL     1      26.362   0.933  54.876  1.00  0.00     0.091 C 
HETATM   20  N4  UNL     1      26.145   1.896  53.951  1.00  0.00    -0.397 N 
HETATM   21  C14 UNL     1      25.073   2.620  53.296  1.00  0.00     0.135 C 
HETATM   22  C15 UNL     1      24.269   1.726  52.381  1.00  0.00     0.029 C 
HETATM   23  C16 UNL     1      24.714   1.981  50.973  1.00  0.00     0.088 C 
HETATM   24  H5  UNL     1      23.663  -0.870  52.008  1.00  0.00     0.190 HD
HETATM   25  H9  UNL     1      27.108   2.171  53.651  1.00  0.00     0.158 HD
ENDROOT
TORSDOF 0
ENDMDL
MODEL 2
REMARK VINA RESULT:      -8.4      2.742      5.312
REMARK  0 active torsions:
REMARK  status: ('A' for Active; 'I' for Inactive)
ROOT
HETATM    1  F1  UNL     1      20.729  -0.039  50.437  1.00  0.00    -0.211 F 
HETATM    2  C1  UNL     1      21.713   0.465  51.251  1.00  0.00     0.094 C 
HETATM    3  C2  UNL     1      21.750  -0.097  52.460  1.00  0.00     0.035 C 
HETATM    4  C3  UNL     1      22.724   0.298  53.475  1.00  0.00    -0.007 C 
HETATM    5  C4  UNL     1      23.925   0.797  53.375  1.00  0.00     0.035 A 
HETATM    6  C5  UNL     1      24.326   1.258  52.224  1.00  0.00    -0.047 A 
HETATM    7  O1  UNL     1      25.129   0.399  52.946  1.00  0.00     0.000 OA
HETATM    8  C6  UNL     1      26.144  -0.375  52.376  1.00  0.00     0.137 C 
HETATM    9  N1  UNL     1      27.323   0.174  52.401  1.00  0.00    -0.250 NA
HETATM   10  C7  UNL     1      27.463   1.474  52.987  1.00  0.00     0.264 C 
HETATM   11  N2  UNL     1      27.388   2.559  52.291  1.00  0.00    -0.101 NA
HETATM   12  O2  UNL     1      27.169   2.486  50.955  1.00  0.00    -0.135 OA
HETATM   13  N3  UNL     1      25.866   2.419  50.464  1.00  0.00    -0.269 N 
HETATM   14  C8  UNL     1      24.496   2.886  50.471  1.00  0.00     0.056 C 
HETATM   15  C9  UNL     1      24.719   3.891  49.552  1.00  0.00     0.094 C 
HETATM   16  C10 UNL     1      23.740   4.765  49.091  1.00  0.00     0.049 C 
HETATM   17  C11 UNL     1      23.684   6.073  49.360  1.00  0.00    -0.009 C 
HETATM   18  C12 UNL     1      24.441   6.235  50.396  1.00  0.00    -0.029 C 
HETATM   19  C13 UNL     1      24.163   5.451  51.398  1.00  0.00     0.091 C 
HETATM   20  N4  UNL     1      23.155   4.574  51.609  1.00  0.00    -0.397 N 
HETATM   21  C14 UNL     1      22.881   3.278  52.198  1.00  0.00     0.135 C 
HETATM   22  C15 UNL     1      23.533   2.159  51.421  1.00  0.00     0.029 C 
HETATM   23  C16 UNL     1      22.483   1.509  50.573  1.00  0.00     0.088 C 
HETATM   24  H5  UNL     1      25.570   1.715  49.718  1.00  0.00     0.190 HD
HETATM   25  H9  UNL     1      22.324   5.049  51.188  1.00  0.00     0.158 HD
ENDROOT
TORSDOF 0
ENDMDL
MODEL 3
REMARK VINA RESULT:      -8.2      2.401      5.052
REMARK  0 active torsions:
REMARK  status: ('A' for Active; 'I' for Inactive)
ROOT
HETATM    1  F1  UNL     1      24.499   6.809  50.606  1.00  0.00    -0.211 F 
HETATM    2  C1  UNL     1      24.848   5.488  50.460  1.00  0.00     0.094 C 
HETATM    3  C2  UNL     1      25.934   5.300  49.708  1.00  0.00     0.035 C 
HETATM    4  C3  UNL     1      26.470   3.970  49.430  1.00  0.00    -0.007 C 
HETATM    5  C4  UNL     1      26.418   2.856  50.107  1.00  0.00     0.035 A 
HETATM    6  C5  UNL     1      25.585   2.761  51.106  1.00  0.00    -0.047 A 
HETATM    7  O1  UNL     1      26.902   2.376  51.259  1.00  0.00     0.000 OA
HETATM    8  C6  UNL     1      27.547   2.299  52.497  1.00  0.00     0.137 C 
HETATM    9  N1  UNL     1      27.512   1.124  53.054  1.00  0.00    -0.250 NA
HETATM   10  C7  UNL     1      26.840   0.059  52.371  1.00  0.00     0.264 C 
HETATM   11  N2  UNL     1      25.597  -0.222  52.581  1.00  0.00    -0.101 NA
HETATM   12  O2  UNL     1      24.887   0.506  53.478  1.00  0.00    -0.135 OA
HETATM   13  N3  UNL     1      24.257   1.684  53.078  1.00  0.00    -0.269 N 
HETATM   14  C8  UNL     1      23.443   2.413  52.129  1.00  0.00     0.056 C 
HETATM   15  C9  UNL     1      22.245   2.048  52.708  1.00  0.00     0.094 C 
HETATM   16  C10 UNL     1      20.996   2.450  52.246  1.00  0.00     0.049 C 
HETATM   17  C11 UNL     1      20.087   1.648  51.683  1.00  0.00    -0.009 C 
HETATM   18  C12 UNL     1      20.747   0.598  51.316  1.00  0.00    -0.029 C 
HETATM   19  C13 UNL     1      21.797   0.846  50.587  1.00  0.00     0.091 C 
HETATM   20  N4  UNL     1      22.267   1.988  50.036  1.00  0.00    -0.397 N 
HETATM   21  C14 UNL     1      23.507   2.683  49.748  1.00  0.00     0.135 C 
HETATM   22  C15 UNL     1      24.197   3.146  51.009  1.00  0.00     0.029 C 
HETATM   23  C16 UNL     1      23.924   4.610  51.178  1.00  0.00     0.088 C 
HETATM   24  H5  UNL     1      24.326   2.590  53.640  1.00  0.00     0.190 HD
HETATM   25  H9  UNL     1      21.402   2.491  49.734  1.00  0.00     0.158 HD
ENDROOT
TORSDOF 0
ENDMDL
MODEL 4
REMARK VINA RESULT:      -7.0     10.847     12.566
REMARK  0 active torsions:
REMARK  status: ('A' for Active; 'I' for Inactive)
ROOT
HETATM    1  F1  UNL     1      31.760   8.735  50.387  1.00  0.00    -0.211 F 
HETATM    2  C1  UNL     1      31.469   8.249  49.136  1.00  0.00     0.094 C 
HETATM    3  C2  UNL     1      30.328   8.718  48.630  1.00  0.00     0.035 C 
HETATM    4  C3  UNL     1      29.839   8.323  47.311  1.00  0.00    -0.007 C 
HETATM    5  C4  UNL     1      30.465   7.929  46.237  1.00  0.00     0.035 A 
HETATM    6  C5  UNL     1      31.721   7.591  46.325  1.00  0.00    -0.047 A 
HETATM    7  O1  UNL     1      31.302   8.452  45.332  1.00  0.00     0.000 OA
HETATM    8  C6  UNL     1      32.151   9.345  44.671  1.00  0.00     0.137 C 
HETATM    9  N1  UNL     1      32.660   8.889  43.564  1.00  0.00    -0.250 NA
HETATM   10  C7  UNL     1      32.316   7.563  43.144  1.00  0.00     0.264 C 
HETATM   11  N2  UNL     1      33.029   6.532  43.454  1.00  0.00    -0.101 NA
HETATM   12  O2  UNL     1      34.147   6.690  44.203  1.00  0.00    -0.135 OA
HETATM   13  N3  UNL     1      34.061   6.692  45.594  1.00  0.00    -0.269 N 
HETATM   14  C8  UNL     1      33.549   6.119  46.822  1.00  0.00     0.056 C 
HETATM   15  C9  UNL     1      34.576   5.208  46.954  1.00  0.00     0.094 C 
HETATM   16  C10 UNL     1      34.689   4.298  48.000  1.00  0.00     0.049 C 
HETATM   17  C11 UNL     1      34.555   2.973  47.888  1.00  0.00    -0.009 C 
HETATM   18  C12 UNL     1      33.935   2.792  46.767  1.00  0.00    -0.029 C 
HETATM   19  C13 UNL     1      32.832   3.473  46.642  1.00  0.00     0.091 C 
HETATM   20  N4  UNL     1      32.144   4.249  47.510  1.00  0.00    -0.397 N 
HETATM   21  C14 UNL     1      31.366   5.471  47.570  1.00  0.00     0.135 C 
HETATM   22  C15 UNL     1      32.222   6.694  47.340  1.00  0.00     0.029 C 
HETATM   23  C16 UNL     1      32.503   7.323  48.670  1.00  0.00     0.088 C 
HETATM   24  H5  UNL     1      34.548   7.426  46.199  1.00  0.00     0.190 HD
HETATM   25  H9  UNL     1      32.240   3.745  48.421  1.00  0.00     0.158 HD
ENDROOT
TORSDOF 0
ENDMDL
MODEL 5
REMARK VINA RESULT:      -6.9      4.806      6.479
REMARK  0 active torsions:
REMARK  status: ('A' for Active; 'I' for Inactive)
ROOT
HETATM    1  F1  UNL     1      28.308   6.263  47.940  1.00  0.00    -0.211 F 
HETATM    2  C1  UNL     1      26.997   6.576  48.205  1.00  0.00     0.094 C 
HETATM    3  C2  UNL     1      26.660   7.817  47.848  1.00  0.00     0.035 C 
HETATM    4  C3  UNL     1      25.312   8.346  48.045  1.00  0.00    -0.007 C 
HETATM    5  C4  UNL     1      24.149   7.757  48.097  1.00  0.00     0.035 A 
HETATM    6  C5  UNL     1      24.101   6.460  48.223  1.00  0.00    -0.047 A 
HETATM    7  O1  UNL     1      23.338   7.094  47.264  1.00  0.00     0.000 OA
HETATM    8  C6  UNL     1      22.843   6.456  46.122  1.00  0.00     0.137 C 
HETATM    9  N1  UNL     1      21.641   5.975  46.248  1.00  0.00    -0.250 NA
HETATM   10  C7  UNL     1      20.964   6.138  47.500  1.00  0.00     0.264 C 
HETATM   11  N2  UNL     1      21.010   5.246  48.433  1.00  0.00    -0.101 NA
HETATM   12  O2  UNL     1      21.720   4.108  48.239  1.00  0.00    -0.135 OA
HETATM   13  N3  UNL     1      23.082   4.077  48.535  1.00  0.00    -0.269 N 
HETATM   14  C8  UNL     1      24.182   4.386  49.425  1.00  0.00     0.056 C 
HETATM   15  C9  UNL     1      24.066   3.219  50.152  1.00  0.00     0.094 C 
HETATM   16  C10 UNL     1      24.885   2.876  51.222  1.00  0.00     0.049 C 
HETATM   17  C11 UNL     1      24.498   2.806  52.499  1.00  0.00    -0.009 C 
HETATM   18  C12 UNL     1      23.396   3.481  52.553  1.00  0.00    -0.029 C 
HETATM   19  C13 UNL     1      23.473   4.684  52.063  1.00  0.00     0.091 C 
HETATM   20  N4  UNL     1      24.520   5.412  51.611  1.00  0.00    -0.397 N 
HETATM   21  C14 UNL     1      24.879   6.367  50.581  1.00  0.00     0.135 C 
HETATM   22  C15 UNL     1      24.874   5.739  49.207  1.00  0.00     0.029 C 
HETATM   23  C16 UNL     1      26.294   5.451  48.822  1.00  0.00     0.088 C 
HETATM   24  H5  UNL     1      23.806   3.664  47.866  1.00  0.00     0.190 HD
HETATM   25  H9  UNL     1      25.296   5.161  52.265  1.00  0.00     0.158 HD
ENDROOT
TORSDOF 0
ENDMDL
MODEL 6
REMARK VINA RESULT:      -6.8     10.687     12.615
REMARK  0 active torsions:
REMARK  status: ('A' for Active; 'I' for Inactive)
ROOT
HETATM    1  F1  UNL     1      35.408   9.795  45.284  1.00  0.00    -0.211 F 
HETATM    2  C1  UNL     1      34.479   8.789  45.195  1.00  0.00     0.094 C 
HETATM    3  C2  UNL     1      34.496   8.145  44.027  1.00  0.00     0.035 C 
HETATM    4  C3  UNL     1      33.585   7.041  43.731  1.00  0.00    -0.007 C 
HETATM    5  C4  UNL     1      32.994   6.174  44.506  1.00  0.00     0.035 A 
HETATM    6  C5  UNL     1      32.980   6.381  45.793  1.00  0.00    -0.047 A 
HETATM    7  O1  UNL     1      33.346   5.149  45.292  1.00  0.00     0.000 OA
HETATM    8  C6  UNL     1      34.121   4.224  45.998  1.00  0.00     0.137 C 
HETATM    9  N1  UNL     1      33.438   3.348  46.674  1.00  0.00    -0.250 NA
HETATM   10  C7  UNL     1      32.007   3.411  46.632  1.00  0.00     0.264 C 
HETATM   11  N2  UNL     1      31.318   4.064  47.507  1.00  0.00    -0.101 NA
HETATM   12  O2  UNL     1      31.952   4.718  48.510  1.00  0.00    -0.135 OA
HETATM   13  N3  UNL     1      32.405   6.023  48.314  1.00  0.00    -0.269 N 
HETATM   14  C8  UNL     1      32.186   7.369  47.830  1.00  0.00     0.056 C 
HETATM   15  C9  UNL     1      31.613   7.816  49.003  1.00  0.00     0.094 C 
HETATM   16  C10 UNL     1      31.155   9.112  49.209  1.00  0.00     0.049 C 
HETATM   17  C11 UNL     1      29.874   9.466  49.348  1.00  0.00    -0.009 C 
HETATM   18  C12 UNL     1      29.198   8.474  48.867  1.00  0.00    -0.029 C 
HETATM   19  C13 UNL     1      29.547   8.113  47.665  1.00  0.00     0.091 C 
HETATM   20  N4  UNL     1      30.405   8.654  46.771  1.00  0.00    -0.397 N 
HETATM   21  C14 UNL     1      31.381   8.282  45.765  1.00  0.00     0.135 C 
HETATM   22  C15 UNL     1      32.606   7.647  46.379  1.00  0.00     0.029 C 
HETATM   23  C16 UNL     1      33.692   8.679  46.424  1.00  0.00     0.088 C 
HETATM   24  H5  UNL     1      33.386   6.338  48.598  1.00  0.00     0.190 HD
HETATM   25  H9  UNL     1      30.270   9.684  46.892  1.00  0.00     0.158 HD
ENDROOT
TORSDOF 0
ENDMDL
MODEL 7
REMARK VINA RESULT:      -6.8      9.402     11.738
REMARK  0 active torsions:
REMARK  status: ('A' for Active; 'I' for Inactive)
ROOT
HETATM    1  F1  UNL     1      30.559  12.804  49.695  1.00  0.00    -0.211 F 
HETATM    2  C1  UNL     1      30.706  11.732  48.850  1.00  0.00     0.094 C 
HETATM    3  C2  UNL     1      31.779  11.812  48.062  1.00  0.00     0.035 C 
HETATM    4  C3  UNL     1      32.114  10.773  47.091  1.00  0.00    -0.007 C 
HETATM    5  C4  UNL     1      31.862   9.493  47.070  1.00  0.00     0.035 A 
HETATM    6  C5  UNL     1      30.983   9.007  47.901  1.00  0.00    -0.047 A 
HETATM    7  O1  UNL     1      32.217   8.404  47.762  1.00  0.00     0.000 OA
HETATM    8  C6  UNL     1      32.790   7.578  48.734  1.00  0.00     0.137 C 
HETATM    9  N1  UNL     1      32.550   6.309  48.577  1.00  0.00    -0.250 NA
HETATM   10  C7  UNL     1      31.750   5.894  47.464  1.00  0.00     0.264 C 
HETATM   11  N2  UNL     1      30.471   5.738  47.551  1.00  0.00    -0.101 NA
HETATM   12  O2  UNL     1      29.845   5.971  48.730  1.00  0.00    -0.135 OA
HETATM   13  N3  UNL     1      29.422   7.260  49.053  1.00  0.00    -0.269 N 
HETATM   14  C8  UNL     1      28.772   8.499  48.680  1.00  0.00     0.056 C 
HETATM   15  C9  UNL     1      27.509   8.070  49.031  1.00  0.00     0.094 C 
HETATM   16  C10 UNL     1      26.358   8.841  48.916  1.00  0.00     0.049 C 
HETATM   17  C11 UNL     1      25.360   8.616  48.056  1.00  0.00    -0.009 C 
HETATM   18  C12 UNL     1      25.865   7.839  47.153  1.00  0.00    -0.029 C 
HETATM   19  C13 UNL     1      26.970   8.274  46.620  1.00  0.00     0.091 C 
HETATM   20  N4  UNL     1      27.634   9.446  46.743  1.00  0.00    -0.397 N 
HETATM   21  C14 UNL     1      28.977   9.988  46.813  1.00  0.00     0.135 C 
HETATM   22  C15 UNL     1      29.677   9.592  48.092  1.00  0.00     0.029 C 
HETATM   23  C16 UNL     1      29.627  10.759  49.030  1.00  0.00     0.088 C 
HETATM   24  H5  UNL     1      29.607   7.702  50.007  1.00  0.00     0.190 HD
HETATM   25  H9  UNL     1      26.870  10.158  46.799  1.00  0.00     0.158 HD
ENDROOT
TORSDOF 0
ENDMDL
MODEL 8
REMARK VINA RESULT:      -6.7     11.050     12.529
REMARK  0 active torsions:
REMARK  status: ('A' for Active; 'I' for Inactive)
ROOT
HETATM    1  F1  UNL     1      34.571   9.444  43.358  1.00  0.00    -0.211 F 
HETATM    2  C1  UNL     1      34.102   9.255  44.635  1.00  0.00     0.094 C 
HETATM    3  C2  UNL     1      33.931  10.389  45.317  1.00  0.00     0.035 C 
HETATM    4  C3  UNL     1      33.441  10.405  46.693  1.00  0.00    -0.007 C 
HETATM    5  C4  UNL     1      32.671   9.580  47.349  1.00  0.00     0.035 A 
HETATM    6  C5  UNL     1      32.426   8.404  46.842  1.00  0.00    -0.047 A 
HETATM    7  O1  UNL     1      31.392   9.184  47.318  1.00  0.00     0.000 OA
HETATM    8  C6  UNL     1      30.061   9.032  46.921  1.00  0.00     0.137 C 
HETATM    9  N1  UNL     1      29.352   8.255  47.688  1.00  0.00    -0.250 NA
HETATM   10  C7  UNL     1      29.982   7.653  48.825  1.00  0.00     0.264 C 
HETATM   11  N2  UNL     1      30.521   6.480  48.776  1.00  0.00    -0.101 NA
HETATM   12  O2  UNL     1      30.501   5.779  47.616  1.00  0.00    -0.135 OA
HETATM   13  N3  UNL     1      31.506   5.968  46.669  1.00  0.00    -0.269 N 
HETATM   14  C8  UNL     1      32.908   6.109  46.336  1.00  0.00     0.056 C 
HETATM   15  C9  UNL     1      33.126   4.754  46.200  1.00  0.00     0.094 C 
HETATM   16  C10 UNL     1      34.349   4.185  45.861  1.00  0.00     0.049 C 
HETATM   17  C11 UNL     1      35.109   3.447  46.675  1.00  0.00    -0.009 C 
HETATM   18  C12 UNL     1      34.683   3.716  47.867  1.00  0.00    -0.029 C 
HETATM   19  C13 UNL     1      34.636   4.985  48.152  1.00  0.00     0.091 C 
HETATM   20  N4  UNL     1      35.061   6.080  47.480  1.00  0.00    -0.397 N 
HETATM   21  C14 UNL     1      34.694   7.454  47.202  1.00  0.00     0.135 C 
HETATM   22  C15 UNL     1      33.464   7.541  46.328  1.00  0.00     0.029 C 
HETATM   23  C16 UNL     1      33.908   7.834  44.927  1.00  0.00     0.088 C 
HETATM   24  H5  UNL     1      31.297   6.104  45.630  1.00  0.00     0.190 HD
HETATM   25  H9  UNL     1      35.957   5.768  47.041  1.00  0.00     0.158 HD
ENDROOT
TORSDOF 0
ENDMDL
MODEL 9
REMARK VINA RESULT:      -6.5     20.489     22.368
REMARK  0 active torsions:
REMARK  status: ('A' for Active; 'I' for Inactive)
ROOT
HETATM    1  F1  UNL     1      14.795   4.620  71.458  1.00  0.00    -0.211 F 
HETATM    2  C1  UNL     1      15.821   4.315  72.318  1.00  0.00     0.094 C 
HETATM    3  C2  UNL     1      15.820   3.045  72.725  1.00  0.00     0.035 C 
HETATM    4  C3  UNL     1      16.828   2.519  73.643  1.00  0.00    -0.007 C 
HETATM    5  C4  UNL     1      18.064   2.871  73.866  1.00  0.00     0.035 A 
HETATM    6  C5  UNL     1      18.493   4.009  73.397  1.00  0.00    -0.047 A 
HETATM    7  O1  UNL     1      19.230   2.857  73.209  1.00  0.00     0.000 OA
HETATM    8  C6  UNL     1      20.178   2.701  72.193  1.00  0.00     0.137 C 
HETATM    9  N1  UNL     1      21.397   2.998  72.539  1.00  0.00    -0.250 NA
HETATM   10  C7  UNL     1      21.642   3.439  73.880  1.00  0.00     0.264 C 
HETATM   11  N2  UNL     1      21.649   4.689  74.206  1.00  0.00    -0.101 NA
HETATM   12  O2  UNL     1      21.417   5.631  73.259  1.00  0.00    -0.135 OA
HETATM   13  N3  UNL     1      20.110   6.011  72.958  1.00  0.00    -0.269 N 
HETATM   14  C8  UNL     1      18.781   6.390  73.389  1.00  0.00     0.056 C 
HETATM   15  C9  UNL     1      19.077   7.734  73.487  1.00  0.00     0.094 C 
HETATM   16  C10 UNL     1      18.167   8.712  73.874  1.00  0.00     0.049 C 
HETATM   17  C11 UNL     1      18.216   9.403  75.017  1.00  0.00    -0.009 C 
HETATM   18  C12 UNL     1      18.989   8.714  75.792  1.00  0.00    -0.029 C 
HETATM   19  C13 UNL     1      18.657   7.461  75.915  1.00  0.00     0.091 C 
HETATM   20  N4  UNL     1      17.584   6.763  75.479  1.00  0.00    -0.397 N 
HETATM   21  C14 UNL     1      17.212   5.466  74.948  1.00  0.00     0.135 C 
HETATM   22  C15 UNL     1      17.769   5.248  73.561  1.00  0.00     0.029 C 
HETATM   23  C16 UNL     1      16.666   5.482  72.574  1.00  0.00     0.088 C 
HETATM   24  H5  UNL     1      19.755   6.097  71.954  1.00  0.00     0.190 HD
HETATM   25  H9  UNL     1      16.790   7.434  75.592  1.00  0.00     0.158 HD
ENDROOT
TORSDOF 0
ENDMDL
