MODEL 1
REMARK VINA RESULT:      -7.8      0.000      0.000
REMARK  7 active torsions:
REMARK  status: ('A' for Active; 'I' for Inactive)
REMARK    1  A    between atoms: C2_2  and  N1_3 
REMARK    2  A    between atoms: N1_3  and  C3_4 
REMARK    3  A    between atoms: N1_3  and  C5_7 
REMARK    4  A    between atoms: C3_4  and  C4_5 
REMARK    5  A    between atoms: C5_7  and  C6_8 
REMARK    6  A    between atoms: C8_10  and  C9_11 
REMARK       I    between atoms: C9_11  and  N2_13 
REMARK    7  A    between atoms: N2_13  and  C10_14 
ROOT
HETATM    1  C6  UNL     1      21.559  -0.070  52.570  1.00  0.00    -0.034 A 
HETATM    2  C7  UNL     1      22.802  -0.221  52.954  1.00  0.00     0.024 A 
HETATM    3  C8  UNL     1      23.281  -0.740  54.217  1.00  0.00     0.047 A 
HETATM    4  C16 UNL     1      22.434  -1.126  55.146  1.00  0.00     0.100 A 
HETATM    5  N3  UNL     1      21.092  -0.958  54.731  1.00  0.00    -0.394 N 
HETATM    6  C17 UNL     1      20.471  -0.471  53.533  1.00  0.00     0.155 A 
HETATM    7  H19 UNL     1      20.293  -1.224  55.381  1.00  0.00     0.159 HD
ENDROOT
BRANCH   3   8
HETATM    8  C9  UNL     1      24.713  -0.831  54.407  1.00  0.00     0.257 C 
HETATM    9  O1  UNL     1      25.141  -1.200  55.524  1.00  0.00    -0.267 OA
HETATM   10  N2  UNL     1      25.698  -0.541  53.449  1.00  0.00    -0.320 N 
HETATM   11  H13 UNL     1      25.208  -0.253  52.576  1.00  0.00     0.169 HD
BRANCH  10  12
HETATM   12  C10 UNL     1      27.097  -0.568  53.462  1.00  0.00     0.073 A 
HETATM   13  C11 UNL     1      27.731   0.603  53.872  1.00  0.00     0.033 A 
HETATM   14  C12 UNL     1      29.074   0.746  53.946  1.00  0.00     0.002 A 
HETATM   15  C13 UNL     1      29.893  -0.294  53.607  1.00  0.00     0.003 A 
HETATM   16  C14 UNL     1      29.335  -1.483  53.191  1.00  0.00     0.044 A 
HETATM   17  C15 UNL     1      27.963  -1.553  53.143  1.00  0.00     0.143 A 
HETATM   18  F1  UNL     1      27.514  -2.737  52.733  1.00  0.00    -0.204 F 
ENDBRANCH  10  12
ENDBRANCH   3   8
BRANCH   1  19
HETATM   19  C5  UNL     1      20.874   0.410  51.390  1.00  0.00     0.308 C 
BRANCH  19  20
HETATM   20  N1  UNL     1      21.127   1.760  51.023  1.00  0.00     0.093 NA
BRANCH  20  21
HETATM   21  C2  UNL     1      22.216   1.727  50.006  1.00  0.00     0.268 C 
HETATM   22  C1  UNL     1      21.676   1.386  48.662  1.00  0.00     0.037 C 
ENDBRANCH  20  21
BRANCH  20  23
HETATM   23  C3  UNL     1      21.514   2.669  52.063  1.00  0.00     0.287 C 
BRANCH  23  24
HETATM   24  C4  UNL     1      22.758   3.447  51.893  1.00  0.00     0.144 C 
HETATM   25 CL1  UNL     1      24.091   3.074  52.954  1.00  0.00    -0.129 Cl
ENDBRANCH  23  24
ENDBRANCH  20  23
ENDBRANCH  19  20
ENDBRANCH   1  19
TORSDOF 7
ENDMDL
MODEL 2
REMARK VINA RESULT:      -7.6      1.397      1.634
REMARK  7 active torsions:
REMARK  status: ('A' for Active; 'I' for Inactive)
REMARK    1  A    between atoms: C2_2  and  N1_3 
REMARK    2  A    between atoms: N1_3  and  C3_4 
REMARK    3  A    between atoms: N1_3  and  C5_7 
REMARK    4  A    between atoms: C3_4  and  C4_5 
REMARK    5  A    between atoms: C5_7  and  C6_8 
REMARK    6  A    between atoms: C8_10  and  C9_11 
REMARK       I    between atoms: C9_11  and  N2_13 
REMARK    7  A    between atoms: N2_13  and  C10_14 
ROOT
HETATM    1  C6  UNL     1      21.532  -0.050  52.582  1.00  0.00    -0.034 A 
HETATM    2  C7  UNL     1      22.776  -0.200  52.964  1.00  0.00     0.024 A 
HETATM    3  C8  UNL     1      23.257  -0.765  54.206  1.00  0.00     0.047 A 
HETATM    4  C16 UNL     1      22.412  -1.201  55.115  1.00  0.00     0.100 A 
HETATM    5  N3  UNL     1      21.070  -1.034  54.701  1.00  0.00    -0.394 N 
HETATM    6  C17 UNL     1      20.446  -0.506  53.523  1.00  0.00     0.155 A 
HETATM    7  H19 UNL     1      20.272  -1.339  55.336  1.00  0.00     0.159 HD
ENDROOT
BRANCH   3   8
HETATM    8  C9  UNL     1      24.689  -0.843  54.398  1.00  0.00     0.257 C 
HETATM    9  O1  UNL     1      25.119  -1.195  55.520  1.00  0.00    -0.267 OA
HETATM   10  N2  UNL     1      25.673  -0.559  53.438  1.00  0.00    -0.320 N 
HETATM   11  H13 UNL     1      25.182  -0.287  52.560  1.00  0.00     0.169 HD
BRANCH  10  12
HETATM   12  C10 UNL     1      27.072  -0.577  53.452  1.00  0.00     0.073 A 
HETATM   13  C11 UNL     1      27.698   0.597  53.867  1.00  0.00     0.033 A 
HETATM   14  C12 UNL     1      29.039   0.749  53.942  1.00  0.00     0.002 A 
HETATM   15  C13 UNL     1      29.866  -0.285  53.601  1.00  0.00     0.003 A 
HETATM   16  C14 UNL     1      29.317  -1.476  53.181  1.00  0.00     0.044 A 
HETATM   17  C15 UNL     1      27.946  -1.555  53.130  1.00  0.00     0.143 A 
HETATM   18  F1  UNL     1      27.505  -2.741  52.716  1.00  0.00    -0.204 F 
ENDBRANCH  10  12
ENDBRANCH   3   8
BRANCH   1  19
HETATM   19  C5  UNL     1      20.844   0.469  51.420  1.00  0.00     0.308 C 
BRANCH  19  20
HETATM   20  N1  UNL     1      20.639   1.876  51.390  1.00  0.00     0.093 NA
BRANCH  20  21
HETATM   21  C2  UNL     1      19.252   2.093  50.890  1.00  0.00     0.268 C 
HETATM   22  C1  UNL     1      18.738   0.874  50.207  1.00  0.00     0.037 C 
ENDBRANCH  20  21
BRANCH  20  23
HETATM   23  C3  UNL     1      21.532   2.660  50.585  1.00  0.00     0.287 C 
BRANCH  23  24
HETATM   24  C4  UNL     1      22.481   1.957  49.697  1.00  0.00     0.144 C 
HETATM   25 CL1  UNL     1      21.885   1.422  48.148  1.00  0.00    -0.129 Cl
ENDBRANCH  23  24
ENDBRANCH  20  23
ENDBRANCH  19  20
ENDBRANCH   1  19
TORSDOF 7
ENDMDL
MODEL 3
REMARK VINA RESULT:      -7.5      1.448      1.834
REMARK  7 active torsions:
REMARK  status: ('A' for Active; 'I' for Inactive)
REMARK    1  A    between atoms: C2_2  and  N1_3 
REMARK    2  A    between atoms: N1_3  and  C3_4 
REMARK    3  A    between atoms: N1_3  and  C5_7 
REMARK    4  A    between atoms: C3_4  and  C4_5 
REMARK    5  A    between atoms: C5_7  and  C6_8 
REMARK    6  A    between atoms: C8_10  and  C9_11 
REMARK       I    between atoms: C9_11  and  N2_13 
REMARK    7  A    between atoms: N2_13  and  C10_14 
ROOT
HETATM    1  C6  UNL     1      21.597   0.315  52.898  1.00  0.00    -0.034 A 
HETATM    2  C7  UNL     1      22.850   0.142  53.238  1.00  0.00     0.024 A 
HETATM    3  C8  UNL     1      23.369  -0.658  54.326  1.00  0.00     0.047 A 
HETATM    4  C16 UNL     1      22.553  -1.321  55.118  1.00  0.00     0.100 A 
HETATM    5  N3  UNL     1      21.201  -1.129  54.750  1.00  0.00    -0.394 N 
HETATM    6  C17 UNL     1      20.542  -0.385  53.717  1.00  0.00     0.155 A 
HETATM    7  H19 UNL     1      20.424  -1.602  55.303  1.00  0.00     0.159 HD
ENDROOT
BRANCH   3   8
HETATM    8  C9  UNL     1      24.805  -0.711  54.496  1.00  0.00     0.257 C 
HETATM    9  O1  UNL     1      25.258  -1.120  55.589  1.00  0.00    -0.267 OA
HETATM   10  N2  UNL     1      25.768  -0.343  53.543  1.00  0.00    -0.320 N 
HETATM   11  H13 UNL     1      25.259  -0.030  52.690  1.00  0.00     0.169 HD
BRANCH  10  12
HETATM   12  C10 UNL     1      27.168  -0.326  53.539  1.00  0.00     0.073 A 
HETATM   13  C11 UNL     1      27.797  -1.538  53.263  1.00  0.00     0.033 A 
HETATM   14  C12 UNL     1      29.139  -1.696  53.216  1.00  0.00     0.002 A 
HETATM   15  C13 UNL     1      29.963  -0.629  53.447  1.00  0.00     0.003 A 
HETATM   16  C14 UNL     1      29.409   0.601  53.727  1.00  0.00     0.044 A 
HETATM   17  C15 UNL     1      28.038   0.684  53.757  1.00  0.00     0.143 A 
HETATM   18  F1  UNL     1      27.593   1.908  54.032  1.00  0.00    -0.204 F 
ENDBRANCH  10  12
ENDBRANCH   3   8
BRANCH   1  19
HETATM   19  C5  UNL     1      20.875   1.044  51.879  1.00  0.00     0.308 C 
BRANCH  19  20
HETATM   20  N1  UNL     1      20.085   2.137  52.330  1.00  0.00     0.093 NA
BRANCH  20  21
HETATM   21  C2  UNL     1      18.841   2.131  51.509  1.00  0.00     0.268 C 
HETATM   22  C1  UNL     1      18.909   1.085  50.454  1.00  0.00     0.037 C 
ENDBRANCH  20  21
BRANCH  20  23
HETATM   23  C3  UNL     1      20.664   3.448  52.256  1.00  0.00     0.287 C 
BRANCH  23  24
HETATM   24  C4  UNL     1      21.966   3.607  51.577  1.00  0.00     0.144 C 
HETATM   25 CL1  UNL     1      23.378   3.797  52.583  1.00  0.00    -0.129 Cl
ENDBRANCH  23  24
ENDBRANCH  20  23
ENDBRANCH  19  20
ENDBRANCH   1  19
TORSDOF 7
ENDMDL
MODEL 4
REMARK VINA RESULT:      -7.4      1.727      2.249
REMARK  7 active torsions:
REMARK  status: ('A' for Active; 'I' for Inactive)
REMARK    1  A    between atoms: C2_2  and  N1_3 
REMARK    2  A    between atoms: N1_3  and  C3_4 
REMARK    3  A    between atoms: N1_3  and  C5_7 
REMARK    4  A    between atoms: C3_4  and  C4_5 
REMARK    5  A    between atoms: C5_7  and  C6_8 
REMARK    6  A    between atoms: C8_10  and  C9_11 
REMARK       I    between atoms: C9_11  and  N2_13 
REMARK    7  A    between atoms: N2_13  and  C10_14 
ROOT
HETATM    1  C6  UNL     1      21.568   0.474  52.926  1.00  0.00    -0.034 A 
HETATM    2  C7  UNL     1      22.814   0.243  53.259  1.00  0.00     0.024 A 
HETATM    3  C8  UNL     1      23.303  -0.651  54.286  1.00  0.00     0.047 A 
HETATM    4  C16 UNL     1      22.465  -1.351  55.020  1.00  0.00     0.100 A 
HETATM    5  N3  UNL     1      21.121  -1.097  54.659  1.00  0.00    -0.394 N 
HETATM    6  C17 UNL     1      20.490  -0.260  53.681  1.00  0.00     0.155 A 
HETATM    7  H19 UNL     1      20.328  -1.590  55.170  1.00  0.00     0.159 HD
ENDROOT
BRANCH   3   8
HETATM    8  C9  UNL     1      24.736  -0.754  54.461  1.00  0.00     0.257 C 
HETATM    9  O1  UNL     1      25.172  -1.147  55.566  1.00  0.00    -0.267 OA
HETATM   10  N2  UNL     1      25.714  -0.450  53.500  1.00  0.00    -0.320 N 
HETATM   11  H13 UNL     1      25.218  -0.143  52.637  1.00  0.00     0.169 HD
BRANCH  10  12
HETATM   12  C10 UNL     1      27.113  -0.486  53.499  1.00  0.00     0.073 A 
HETATM   13  C11 UNL     1      27.696  -1.704  53.157  1.00  0.00     0.033 A 
HETATM   14  C12 UNL     1      29.032  -1.910  53.103  1.00  0.00     0.002 A 
HETATM   15  C13 UNL     1      29.895  -0.890  53.393  1.00  0.00     0.003 A 
HETATM   16  C14 UNL     1      29.387   0.343  53.740  1.00  0.00     0.044 A 
HETATM   17  C15 UNL     1      28.020   0.476  53.772  1.00  0.00     0.143 A 
HETATM   18  F1  UNL     1      27.622   1.699  54.113  1.00  0.00    -0.204 F 
ENDBRANCH  10  12
ENDBRANCH   3   8
BRANCH   1  19
HETATM   19  C5  UNL     1      20.873   1.296  51.960  1.00  0.00     0.308 C 
BRANCH  19  20
HETATM   20  N1  UNL     1      21.336   2.635  51.828  1.00  0.00     0.093 NA
BRANCH  20  21
HETATM   21  C2  UNL     1      20.155   3.516  52.049  1.00  0.00     0.268 C 
HETATM   22  C1  UNL     1      18.942   2.951  51.398  1.00  0.00     0.037 C 
ENDBRANCH  20  21
BRANCH  20  23
HETATM   23  C3  UNL     1      21.945   3.006  50.584  1.00  0.00     0.287 C 
BRANCH  23  24
HETATM   24  C4  UNL     1      22.471   1.938  49.710  1.00  0.00     0.144 C 
HETATM   25 CL1  UNL     1      21.413   1.324  48.466  1.00  0.00    -0.129 Cl
ENDBRANCH  23  24
ENDBRANCH  20  23
ENDBRANCH  19  20
ENDBRANCH   1  19
TORSDOF 7
ENDMDL
MODEL 5
REMARK VINA RESULT:      -7.3      6.519      8.807
REMARK  7 active torsions:
REMARK  status: ('A' for Active; 'I' for Inactive)
REMARK    1  A    between atoms: C2_2  and  N1_3 
REMARK    2  A    between atoms: N1_3  and  C3_4 
REMARK    3  A    between atoms: N1_3  and  C5_7 
REMARK    4  A    between atoms: C3_4  and  C4_5 
REMARK    5  A    between atoms: C5_7  and  C6_8 
REMARK    6  A    between atoms: C8_10  and  C9_11 
REMARK       I    between atoms: C9_11  and  N2_13 
REMARK    7  A    between atoms: N2_13  and  C10_14 
ROOT
HETATM    1  C6  UNL     1      28.660   5.961  48.126  1.00  0.00    -0.034 A 
HETATM    2  C7  UNL     1      27.949   5.052  48.743  1.00  0.00     0.024 A 
HETATM    3  C8  UNL     1      26.542   5.106  49.078  1.00  0.00     0.047 A 
HETATM    4  C16 UNL     1      25.819   6.159  48.763  1.00  0.00     0.100 A 
HETATM    5  N3  UNL     1      26.591   7.141  48.099  1.00  0.00    -0.394 N 
HETATM    6  C17 UNL     1      27.965   7.230  47.700  1.00  0.00     0.155 A 
HETATM    7  H19 UNL     1      26.141   8.052  47.785  1.00  0.00     0.159 HD
ENDROOT
BRANCH   3   8
HETATM    8  C9  UNL     1      25.967   3.961  49.752  1.00  0.00     0.257 C 
HETATM    9  O1  UNL     1      24.968   3.411  49.238  1.00  0.00    -0.267 OA
HETATM   10  N2  UNL     1      26.422   3.388  50.951  1.00  0.00    -0.320 N 
HETATM   11  H13 UNL     1      27.251   3.935  51.263  1.00  0.00     0.169 HD
BRANCH  10  12
HETATM   12  C10 UNL     1      25.993   2.307  51.730  1.00  0.00     0.073 A 
HETATM   13  C11 UNL     1      26.698   1.116  51.568  1.00  0.00     0.033 A 
HETATM   14  C12 UNL     1      26.418  -0.022  52.244  1.00  0.00     0.002 A 
HETATM   15  C13 UNL     1      25.393  -0.047  53.148  1.00  0.00     0.003 A 
HETATM   16  C14 UNL     1      24.653   1.096  53.359  1.00  0.00     0.044 A 
HETATM   17  C15 UNL     1      24.997   2.213  52.636  1.00  0.00     0.143 A 
HETATM   18  F1  UNL     1      24.231   3.267  52.906  1.00  0.00    -0.204 F 
ENDBRANCH  10  12
ENDBRANCH   3   8
BRANCH   1  19
HETATM   19  C5  UNL     1      30.034   6.111  47.698  1.00  0.00     0.308 C 
BRANCH  19  20
HETATM   20  N1  UNL     1      30.957   5.157  48.207  1.00  0.00     0.093 NA
BRANCH  20  21
HETATM   21  C2  UNL     1      31.785   5.866  49.223  1.00  0.00     0.268 C 
HETATM   22  C1  UNL     1      32.111   7.246  48.771  1.00  0.00     0.037 C 
ENDBRANCH  20  21
BRANCH  20  23
HETATM   23  C3  UNL     1      31.841   4.524  47.272  1.00  0.00     0.287 C 
BRANCH  23  24
HETATM   24  C4  UNL     1      32.820   3.541  47.781  1.00  0.00     0.144 C 
HETATM   25 CL1  UNL     1      32.796   1.946  47.076  1.00  0.00    -0.129 Cl
ENDBRANCH  23  24
ENDBRANCH  20  23
ENDBRANCH  19  20
ENDBRANCH   1  19
TORSDOF 7
ENDMDL
MODEL 6
REMARK VINA RESULT:      -7.0      3.569      7.487
REMARK  7 active torsions:
REMARK  status: ('A' for Active; 'I' for Inactive)
REMARK    1  A    between atoms: C2_2  and  N1_3 
REMARK    2  A    between atoms: N1_3  and  C3_4 
REMARK    3  A    between atoms: N1_3  and  C5_7 
REMARK    4  A    between atoms: C3_4  and  C4_5 
REMARK    5  A    between atoms: C5_7  and  C6_8 
REMARK    6  A    between atoms: C8_10  and  C9_11 
REMARK       I    between atoms: C9_11  and  N2_13 
REMARK    7  A    between atoms: N2_13  and  C10_14 
ROOT
HETATM    1  C6  UNL     1      25.173  -0.493  54.030  1.00  0.00    -0.034 A 
HETATM    2  C7  UNL     1      23.970  -0.490  53.514  1.00  0.00     0.024 A 
HETATM    3  C8  UNL     1      22.738  -0.918  54.141  1.00  0.00     0.047 A 
HETATM    4  C16 UNL     1      22.740  -1.381  55.373  1.00  0.00     0.100 A 
HETATM    5  N3  UNL     1      24.042  -1.385  55.926  1.00  0.00    -0.394 N 
HETATM    6  C17 UNL     1      25.334  -0.997  55.441  1.00  0.00     0.155 A 
HETATM    7  H19 UNL     1      24.200  -1.737  56.917  1.00  0.00     0.159 HD
ENDROOT
BRANCH   3   8
HETATM    8  C9  UNL     1      21.517  -0.803  53.373  1.00  0.00     0.257 C 
HETATM    9  O1  UNL     1      21.602  -0.448  52.176  1.00  0.00    -0.267 OA
HETATM   10  N2  UNL     1      20.216  -1.054  53.837  1.00  0.00    -0.320 N 
HETATM   11  H13 UNL     1      20.292  -1.342  54.835  1.00  0.00     0.169 HD
BRANCH  10  12
HETATM   12  C10 UNL     1      18.949  -0.990  53.247  1.00  0.00     0.073 A 
HETATM   13  C11 UNL     1      18.741   0.057  52.351  1.00  0.00     0.033 A 
HETATM   14  C12 UNL     1      17.578   0.263  51.692  1.00  0.00     0.002 A 
HETATM   15  C13 UNL     1      16.521  -0.582  51.886  1.00  0.00     0.003 A 
HETATM   16  C14 UNL     1      16.656  -1.639  52.758  1.00  0.00     0.044 A 
HETATM   17  C15 UNL     1      17.867  -1.784  53.391  1.00  0.00     0.143 A 
HETATM   18  F1  UNL     1      17.906  -2.832  54.212  1.00  0.00    -0.204 F 
ENDBRANCH  10  12
ENDBRANCH   3   8
BRANCH   1  19
HETATM   19  C5  UNL     1      26.503  -0.119  53.599  1.00  0.00     0.308 C 
BRANCH  19  20
HETATM   20  N1  UNL     1      27.183   0.827  54.414  1.00  0.00     0.093 NA
BRANCH  20  21
HETATM   21  C2  UNL     1      27.186   2.113  53.661  1.00  0.00     0.268 C 
HETATM   22  C1  UNL     1      26.998   1.875  52.204  1.00  0.00     0.037 C 
ENDBRANCH  20  21
BRANCH  20  23
HETATM   23  C3  UNL     1      28.534   0.527  54.792  1.00  0.00     0.287 C 
BRANCH  23  24
HETATM   24  C4  UNL     1      29.479   0.090  53.743  1.00  0.00     0.144 C 
HETATM   25 CL1  UNL     1      29.734  -1.625  53.555  1.00  0.00    -0.129 Cl
ENDBRANCH  23  24
ENDBRANCH  20  23
ENDBRANCH  19  20
ENDBRANCH   1  19
TORSDOF 7
ENDMDL
MODEL 7
REMARK VINA RESULT:      -7.0      2.541      3.982
REMARK  7 active torsions:
REMARK  status: ('A' for Active; 'I' for Inactive)
REMARK    1  A    between atoms: C2_2  and  N1_3 
REMARK    2  A    between atoms: N1_3  and  C3_4 
REMARK    3  A    between atoms: N1_3  and  C5_7 
REMARK    4  A    between atoms: C3_4  and  C4_5 
REMARK    5  A    between atoms: C5_7  and  C6_8 
REMARK    6  A    between atoms: C8_10  and  C9_11 
REMARK       I    between atoms: C9_11  and  N2_13 
REMARK    7  A    between atoms: N2_13  and  C10_14 
ROOT
HETATM    1  C6  UNL     1      21.851   2.416  51.993  1.00  0.00    -0.034 A 
HETATM    2  C7  UNL     1      23.127   2.126  52.060  1.00  0.00     0.024 A 
HETATM    3  C8  UNL     1      24.212   2.734  51.321  1.00  0.00     0.047 A 
HETATM    4  C16 UNL     1      23.976   3.699  50.458  1.00  0.00     0.100 A 
HETATM    5  N3  UNL     1      22.597   4.007  50.386  1.00  0.00    -0.394 N 
HETATM    6  C17 UNL     1      21.426   3.506  51.043  1.00  0.00     0.155 A 
HETATM    7  H19 UNL     1      22.253   4.767  49.726  1.00  0.00     0.159 HD
ENDROOT
BRANCH   3   8
HETATM    8  C9  UNL     1      25.553   2.254  51.579  1.00  0.00     0.257 C 
HETATM    9  O1  UNL     1      26.469   2.609  50.802  1.00  0.00    -0.267 OA
HETATM   10  N2  UNL     1      25.946   1.413  52.632  1.00  0.00    -0.320 N 
HETATM   11  H13 UNL     1      25.096   1.202  53.196  1.00  0.00     0.169 HD
BRANCH  10  12
HETATM   12  C10 UNL     1      27.170   0.859  53.021  1.00  0.00     0.073 A 
HETATM   13  C11 UNL     1      27.282  -0.525  52.904  1.00  0.00     0.033 A 
HETATM   14  C12 UNL     1      28.395  -1.221  53.233  1.00  0.00     0.002 A 
HETATM   15  C13 UNL     1      29.496  -0.566  53.711  1.00  0.00     0.003 A 
HETATM   16  C14 UNL     1      29.455   0.804  53.853  1.00  0.00     0.044 A 
HETATM   17  C15 UNL     1      28.291   1.441  53.498  1.00  0.00     0.143 A 
HETATM   18  F1  UNL     1      28.344   2.760  53.666  1.00  0.00    -0.204 F 
ENDBRANCH  10  12
ENDBRANCH   3   8
BRANCH   1  19
HETATM   19  C5  UNL     1      20.633   1.953  52.622  1.00  0.00     0.308 C 
BRANCH  19  20
HETATM   20  N1  UNL     1      20.573   0.566  52.927  1.00  0.00     0.093 NA
BRANCH  20  21
HETATM   21  C2  UNL     1      19.245   0.083  52.453  1.00  0.00     0.268 C 
HETATM   22  C1  UNL     1      18.977   0.549  51.065  1.00  0.00     0.037 C 
ENDBRANCH  20  21
BRANCH  20  23
HETATM   23  C3  UNL     1      20.724   0.181  54.301  1.00  0.00     0.287 C 
BRANCH  23  24
HETATM   24  C4  UNL     1      21.934  -0.569  54.693  1.00  0.00     0.144 C 
HETATM   25 CL1  UNL     1      22.972  -1.146  53.416  1.00  0.00    -0.129 Cl
ENDBRANCH  23  24
ENDBRANCH  20  23
ENDBRANCH  19  20
ENDBRANCH   1  19
TORSDOF 7
ENDMDL
MODEL 8
REMARK VINA RESULT:      -6.9      2.053      2.313
REMARK  7 active torsions:
REMARK  status: ('A' for Active; 'I' for Inactive)
REMARK    1  A    between atoms: C2_2  and  N1_3 
REMARK    2  A    between atoms: N1_3  and  C3_4 
REMARK    3  A    between atoms: N1_3  and  C5_7 
REMARK    4  A    between atoms: C3_4  and  C4_5 
REMARK    5  A    between atoms: C5_7  and  C6_8 
REMARK    6  A    between atoms: C8_10  and  C9_11 
REMARK       I    between atoms: C9_11  and  N2_13 
REMARK    7  A    between atoms: N2_13  and  C10_14 
ROOT
HETATM    1  C6  UNL     1      20.195   0.143  52.330  1.00  0.00    -0.034 A 
HETATM    2  C7  UNL     1      21.501   0.233  52.375  1.00  0.00     0.024 A 
HETATM    3  C8  UNL     1      22.389  -0.291  53.390  1.00  0.00     0.047 A 
HETATM    4  C16 UNL     1      21.910  -0.947  54.425  1.00  0.00     0.100 A 
HETATM    5  N3  UNL     1      20.499  -1.039  54.376  1.00  0.00    -0.394 N 
HETATM    6  C17 UNL     1      19.500  -0.584  53.453  1.00  0.00     0.155 A 
HETATM    7  H19 UNL     1      19.968  -1.540  55.150  1.00  0.00     0.159 HD
ENDROOT
BRANCH   3   8
HETATM    8  C9  UNL     1      23.810  -0.081  53.213  1.00  0.00     0.257 C 
HETATM    9  O1  UNL     1      24.183   0.784  52.389  1.00  0.00    -0.267 OA
HETATM   10  N2  UNL     1      24.840  -0.761  53.883  1.00  0.00    -0.320 N 
HETATM   11  H13 UNL     1      24.393  -1.441  54.533  1.00  0.00     0.169 HD
BRANCH  10  12
HETATM   12  C10 UNL     1      26.237  -0.691  53.833  1.00  0.00     0.073 A 
HETATM   13  C11 UNL     1      26.843   0.162  54.753  1.00  0.00     0.033 A 
HETATM   14  C12 UNL     1      28.180   0.345  54.843  1.00  0.00     0.002 A 
HETATM   15  C13 UNL     1      29.022  -0.329  54.002  1.00  0.00     0.003 A 
HETATM   16  C14 UNL     1      28.491  -1.190  53.066  1.00  0.00     0.044 A 
HETATM   17  C15 UNL     1      27.124  -1.324  53.035  1.00  0.00     0.143 A 
HETATM   18  F1  UNL     1      26.703  -2.176  52.104  1.00  0.00    -0.204 F 
ENDBRANCH  10  12
ENDBRANCH   3   8
BRANCH   1  19
HETATM   19  C5  UNL     1      19.141   0.576  51.439  1.00  0.00     0.308 C 
BRANCH  19  20
HETATM   20  N1  UNL     1      18.737   1.934  51.558  1.00  0.00     0.093 NA
BRANCH  20  21
HETATM   21  C2  UNL     1      17.256   1.953  51.387  1.00  0.00     0.268 C 
HETATM   22  C1  UNL     1      16.853   2.968  50.376  1.00  0.00     0.037 C 
ENDBRANCH  20  21
BRANCH  20  23
HETATM   23  C3  UNL     1      19.305   2.878  50.640  1.00  0.00     0.287 C 
BRANCH  23  24
HETATM   24  C4  UNL     1      20.033   4.042  51.186  1.00  0.00     0.144 C 
HETATM   25 CL1  UNL     1      21.287   3.727  52.358  1.00  0.00    -0.129 Cl
ENDBRANCH  23  24
ENDBRANCH  20  23
ENDBRANCH  19  20
ENDBRANCH   1  19
TORSDOF 7
ENDMDL
MODEL 9
REMARK VINA RESULT:      -6.7      5.397      6.918
REMARK  7 active torsions:
REMARK  status: ('A' for Active; 'I' for Inactive)
REMARK    1  A    between atoms: C2_2  and  N1_3 
REMARK    2  A    between atoms: N1_3  and  C3_4 
REMARK    3  A    between atoms: N1_3  and  C5_7 
REMARK    4  A    between atoms: C3_4  and  C4_5 
REMARK    5  A    between atoms: C5_7  and  C6_8 
REMARK    6  A    between atoms: C8_10  and  C9_11 
REMARK       I    between atoms: C9_11  and  N2_13 
REMARK    7  A    between atoms: N2_13  and  C10_14 
ROOT
HETATM    1  C6  UNL     1      25.629   6.249  48.735  1.00  0.00    -0.034 A 
HETATM    2  C7  UNL     1      26.182   5.206  49.301  1.00  0.00     0.024 A 
HETATM    3  C8  UNL     1      25.535   4.186  50.099  1.00  0.00     0.047 A 
HETATM    4  C16 UNL     1      24.242   4.239  50.332  1.00  0.00     0.100 A 
HETATM    5  N3  UNL     1      23.648   5.369  49.722  1.00  0.00    -0.394 N 
HETATM    6  C17 UNL     1      24.145   6.445  48.915  1.00  0.00     0.155 A 
HETATM    7  H19 UNL     1      22.604   5.547  49.828  1.00  0.00     0.159 HD
ENDROOT
BRANCH   3   8
HETATM    8  C9  UNL     1      26.357   3.110  50.608  1.00  0.00     0.257 C 
HETATM    9  O1  UNL     1      26.940   2.368  49.785  1.00  0.00    -0.267 OA
HETATM   10  N2  UNL     1      26.576   2.800  51.960  1.00  0.00    -0.320 N 
HETATM   11  H13 UNL     1      26.042   3.490  52.528  1.00  0.00     0.169 HD
BRANCH  10  12
HETATM   12  C10 UNL     1      27.320   1.814  52.618  1.00  0.00     0.073 A 
HETATM   13  C11 UNL     1      28.312   2.269  53.485  1.00  0.00     0.033 A 
HETATM   14  C12 UNL     1      29.118   1.452  54.201  1.00  0.00     0.002 A 
HETATM   15  C13 UNL     1      28.984   0.095  54.099  1.00  0.00     0.003 A 
HETATM   16  C14 UNL     1      28.023  -0.425  53.260  1.00  0.00     0.044 A 
HETATM   17  C15 UNL     1      27.242   0.467  52.565  1.00  0.00     0.143 A 
HETATM   18  F1  UNL     1      26.342  -0.125  51.783  1.00  0.00    -0.204 F 
ENDBRANCH  10  12
ENDBRANCH   3   8
BRANCH   1  19
HETATM   19  C5  UNL     1      26.069   7.359  47.918  1.00  0.00     0.308 C 
BRANCH  19  20
HETATM   20  N1  UNL     1      27.390   7.827  48.156  1.00  0.00     0.093 NA
BRANCH  20  21
HETATM   21  C2  UNL     1      27.267   9.249  48.587  1.00  0.00     0.268 C 
HETATM   22  C1  UNL     1      27.595   9.394  50.031  1.00  0.00     0.037 C 
ENDBRANCH  20  21
BRANCH  20  23
HETATM   23  C3  UNL     1      28.321   7.770  47.065  1.00  0.00     0.287 C 
BRANCH  23  24
HETATM   24  C4  UNL     1      29.603   7.065  47.269  1.00  0.00     0.144 C 
HETATM   25 CL1  UNL     1      29.546   5.495  48.027  1.00  0.00    -0.129 Cl
ENDBRANCH  23  24
ENDBRANCH  20  23
ENDBRANCH  19  20
ENDBRANCH   1  19
TORSDOF 7
ENDMDL
