MODEL 1
REMARK VINA RESULT:      -7.8      0.000      0.000
REMARK  6 active torsions:
REMARK  status: ('A' for Active; 'I' for Inactive)
REMARK    1  A    between atoms: C3_3  and  C4_4 
REMARK       I    between atoms: C4_4  and  N1_6 
REMARK    2  A    between atoms: N1_6  and  C5_7 
REMARK    3  A    between atoms: C12_16  and  N4_17 
REMARK    4  A    between atoms: N4_17  and  C13_18 
REMARK    5  A    between atoms: C13_18  and  C14_19 
REMARK    6  A    between atoms: C14_19  and  C15_20 
ROOT
HETATM    1  C5  UNL     1      25.220  -0.396  54.511  1.00  0.00     0.035 A 
HETATM    2  C6  UNL     1      24.747  -1.209  55.539  1.00  0.00     0.032 A 
HETATM    3  C7  UNL     1      23.409  -1.554  55.624  1.00  0.00     0.035 A 
HETATM    4  C8  UNL     1      22.525  -1.081  54.667  1.00  0.00     0.069 A 
HETATM    5  N2  UNL     1      21.217  -1.402  54.727  1.00  0.00    -0.259 NA
HETATM    6  C9  UNL     1      20.363  -0.932  53.783  1.00  0.00     0.142 A 
HETATM    7  C10 UNL     1      20.837  -0.120  52.757  1.00  0.00     0.089 A 
HETATM    8  C11 UNL     1      19.879   0.342  51.794  1.00  0.00     0.103 C 
HETATM    9  N3  UNL     1      19.091   0.732  51.021  1.00  0.00    -0.191 NA
HETATM   10  C12 UNL     1      22.169   0.233  52.660  1.00  0.00     0.063 A 
HETATM   11  C16 UNL     1      22.994  -0.275  53.648  1.00  0.00     0.023 A 
HETATM   12  C17 UNL     1      24.329   0.069  53.565  1.00  0.00     0.045 A 
ENDROOT
BRANCH  10  13
HETATM   13  N4  UNL     1      22.642   1.063  51.608  1.00  0.00    -0.387 N 
HETATM   14  H10 UNL     1      23.098   0.772  50.729  1.00  0.00     0.159 HD
BRANCH  13  15
HETATM   15  C13 UNL     1      22.420   2.471  51.877  1.00  0.00     0.129 C 
BRANCH  15  16
HETATM   16  C14 UNL     1      23.447   3.348  51.234  1.00  0.00     0.158 C 
BRANCH  16  17
HETATM   17  C15 UNL     1      24.742   2.969  51.183  1.00  0.00     0.136 A 
HETATM   18  F1  UNL     1      25.948   2.306  51.179  1.00  0.00    -0.323 F 
HETATM   19 BR1  UNL     1      26.437   2.057  51.174  1.00  0.00     0.040 Br
ENDBRANCH  16  17
ENDBRANCH  15  16
ENDBRANCH  13  15
ENDBRANCH  10  13
BRANCH   1  20
HETATM   20  N1  UNL     1      26.613  -0.173  54.620  1.00  0.00    -0.324 N 
HETATM   21  C4  UNL     1      27.468  -0.662  53.626  1.00  0.00     0.245 C 
HETATM   22  O1  UNL     1      26.838  -1.261  52.732  1.00  0.00    -0.268 OA
HETATM   23  H6  UNL     1      26.960   0.367  55.470  1.00  0.00     0.169 HD
BRANCH  21  24
HETATM   24  C3  UNL     1      28.908  -0.457  53.696  1.00  0.00     0.070 C 
HETATM   25  C2  UNL     1      29.486   0.726  53.794  1.00  0.00    -0.026 C 
HETATM   26  C1  UNL     1      28.980   2.100  53.860  1.00  0.00     0.036 C 
ENDBRANCH  21  24
ENDBRANCH   1  20
TORSDOF 6
ENDMDL
MODEL 2
REMARK VINA RESULT:      -7.8      1.755      2.102
REMARK  6 active torsions:
REMARK  status: ('A' for Active; 'I' for Inactive)
REMARK    1  A    between atoms: C3_3  and  C4_4 
REMARK       I    between atoms: C4_4  and  N1_6 
REMARK    2  A    between atoms: N1_6  and  C5_7 
REMARK    3  A    between atoms: C12_16  and  N4_17 
REMARK    4  A    between atoms: N4_17  and  C13_18 
REMARK    5  A    between atoms: C13_18  and  C14_19 
REMARK    6  A    between atoms: C14_19  and  C15_20 
ROOT
HETATM    1  C5  UNL     1      25.350   0.507  52.915  1.00  0.00     0.035 A 
HETATM    2  C6  UNL     1      24.942  -0.579  53.687  1.00  0.00     0.032 A 
HETATM    3  C7  UNL     1      23.608  -0.772  54.005  1.00  0.00     0.035 A 
HETATM    4  C8  UNL     1      22.664   0.132  53.546  1.00  0.00     0.069 A 
HETATM    5  N2  UNL     1      21.359  -0.033  53.842  1.00  0.00    -0.259 NA
HETATM    6  C9  UNL     1      20.444   0.860  53.386  1.00  0.00     0.142 A 
HETATM    7  C10 UNL     1      20.854   1.944  52.615  1.00  0.00     0.089 A 
HETATM    8  C11 UNL     1      19.836   2.849  52.167  1.00  0.00     0.103 C 
HETATM    9  N3  UNL     1      19.003   3.595  51.818  1.00  0.00    -0.191 NA
HETATM   10  C12 UNL     1      22.181   2.150  52.290  1.00  0.00     0.063 A 
HETATM   11  C16 UNL     1      23.069   1.209  52.781  1.00  0.00     0.023 A 
HETATM   12  C17 UNL     1      24.399   1.400  52.464  1.00  0.00     0.045 A 
ENDROOT
BRANCH  10  13
HETATM   13  N4  UNL     1      22.588   3.260  51.502  1.00  0.00    -0.387 N 
HETATM   14  H10 UNL     1      22.979   4.157  51.828  1.00  0.00     0.159 HD
BRANCH  13  15
HETATM   15  C13 UNL     1      22.401   3.023  50.083  1.00  0.00     0.129 C 
BRANCH  15  16
HETATM   16  C14 UNL     1      23.323   3.842  49.237  1.00  0.00     0.158 C 
BRANCH  16  17
HETATM   17  C15 UNL     1      24.661   3.754  49.393  1.00  0.00     0.136 A 
HETATM   18  F1  UNL     1      25.958   3.412  49.705  1.00  0.00    -0.323 F 
HETATM   19 BR1  UNL     1      26.480   3.289  49.821  1.00  0.00     0.040 Br
ENDBRANCH  16  17
ENDBRANCH  15  16
ENDBRANCH  13  15
ENDBRANCH  10  13
BRANCH   1  20
HETATM   20  N1  UNL     1      26.750   0.507  52.714  1.00  0.00    -0.324 N 
HETATM   21  C4  UNL     1      27.590   0.996  53.722  1.00  0.00     0.245 C 
HETATM   22  O1  UNL     1      26.939   1.385  54.712  1.00  0.00    -0.268 OA
HETATM   23  H6  UNL     1      27.116   0.130  51.788  1.00  0.00     0.169 HD
BRANCH  21  24
HETATM   24  C3  UNL     1      29.036   1.017  53.561  1.00  0.00     0.070 C 
HETATM   25  C2  UNL     1      29.791  -0.063  53.481  1.00  0.00    -0.026 C 
HETATM   26  C1  UNL     1      29.511  -1.500  53.521  1.00  0.00     0.036 C 
ENDBRANCH  21  24
ENDBRANCH   1  20
TORSDOF 6
ENDMDL
MODEL 3
REMARK VINA RESULT:      -7.8      2.582      3.658
REMARK  6 active torsions:
REMARK  status: ('A' for Active; 'I' for Inactive)
REMARK    1  A    between atoms: C3_3  and  C4_4 
REMARK       I    between atoms: C4_4  and  N1_6 
REMARK    2  A    between atoms: N1_6  and  C5_7 
REMARK    3  A    between atoms: C12_16  and  N4_17 
REMARK    4  A    between atoms: N4_17  and  C13_18 
REMARK    5  A    between atoms: C13_18  and  C14_19 
REMARK    6  A    between atoms: C14_19  and  C15_20 
ROOT
HETATM    1  C5  UNL     1      25.997   0.708  52.591  1.00  0.00     0.035 A 
HETATM    2  C6  UNL     1      25.070  -0.218  53.063  1.00  0.00     0.032 A 
HETATM    3  C7  UNL     1      23.719   0.080  53.114  1.00  0.00     0.035 A 
HETATM    4  C8  UNL     1      23.283   1.324  52.686  1.00  0.00     0.069 A 
HETATM    5  N2  UNL     1      21.973   1.640  52.724  1.00  0.00    -0.259 NA
HETATM    6  C9  UNL     1      21.560   2.862  52.302  1.00  0.00     0.142 A 
HETATM    7  C10 UNL     1      22.488   3.786  51.831  1.00  0.00     0.089 A 
HETATM    8  C11 UNL     1      21.982   5.058  51.400  1.00  0.00     0.103 C 
HETATM    9  N3  UNL     1      21.568   6.101  51.068  1.00  0.00    -0.191 NA
HETATM   10  C12 UNL     1      23.839   3.503  51.775  1.00  0.00     0.063 A 
HETATM   11  C16 UNL     1      24.203   2.243  52.217  1.00  0.00     0.023 A 
HETATM   12  C17 UNL     1      25.550   1.944  52.168  1.00  0.00     0.045 A 
ENDROOT
BRANCH  10  13
HETATM   13  N4  UNL     1      24.777   4.453  51.292  1.00  0.00    -0.387 N 
HETATM   14  H10 UNL     1      25.349   5.114  51.841  1.00  0.00     0.159 HD
BRANCH  13  15
HETATM   15  C13 UNL     1      24.887   4.430  49.845  1.00  0.00     0.129 C 
BRANCH  15  16
HETATM   16  C14 UNL     1      26.192   3.869  49.377  1.00  0.00     0.158 C 
BRANCH  16  17
HETATM   17  C15 UNL     1      27.202   4.686  49.011  1.00  0.00     0.136 A 
HETATM   18  F1  UNL     1      28.303   5.293  48.450  1.00  0.00    -0.323 F 
HETATM   19 BR1  UNL     1      28.740   5.548  48.237  1.00  0.00     0.040 Br
ENDBRANCH  16  17
ENDBRANCH  15  16
ENDBRANCH  13  15
ENDBRANCH  10  13
BRANCH   1  20
HETATM   20  N1  UNL     1      27.315   0.194  52.629  1.00  0.00    -0.324 N 
HETATM   21  C4  UNL     1      28.139   0.493  53.721  1.00  0.00     0.245 C 
HETATM   22  O1  UNL     1      27.554   1.214  54.553  1.00  0.00    -0.268 OA
HETATM   23  H6  UNL     1      27.632  -0.409  51.812  1.00  0.00     0.169 HD
BRANCH  21  24
HETATM   24  C3  UNL     1      29.501  -0.013  53.804  1.00  0.00     0.070 C 
HETATM   25  C2  UNL     1      29.841  -1.271  53.591  1.00  0.00    -0.026 C 
HETATM   26  C1  UNL     1      29.089  -2.479  53.241  1.00  0.00     0.036 C 
ENDBRANCH  21  24
ENDBRANCH   1  20
TORSDOF 6
ENDMDL
MODEL 4
REMARK VINA RESULT:      -7.6      2.500      6.197
REMARK  6 active torsions:
REMARK  status: ('A' for Active; 'I' for Inactive)
REMARK    1  A    between atoms: C3_3  and  C4_4 
REMARK       I    between atoms: C4_4  and  N1_6 
REMARK    2  A    between atoms: N1_6  and  C5_7 
REMARK    3  A    between atoms: C12_16  and  N4_17 
REMARK    4  A    between atoms: N4_17  and  C13_18 
REMARK    5  A    between atoms: C13_18  and  C14_19 
REMARK    6  A    between atoms: C14_19  and  C15_20 
ROOT
HETATM    1  C5  UNL     1      22.201   0.665  53.048  1.00  0.00     0.035 A 
HETATM    2  C6  UNL     1      22.259  -0.486  53.831  1.00  0.00     0.032 A 
HETATM    3  C7  UNL     1      23.451  -0.913  54.392  1.00  0.00     0.035 A 
HETATM    4  C8  UNL     1      24.606  -0.181  54.170  1.00  0.00     0.069 A 
HETATM    5  N2  UNL     1      25.778  -0.574  54.706  1.00  0.00    -0.259 NA
HETATM    6  C9  UNL     1      26.902   0.153  54.480  1.00  0.00     0.142 A 
HETATM    7  C10 UNL     1      26.842   1.302  53.697  1.00  0.00     0.089 A 
HETATM    8  C11 UNL     1      28.067   2.022  53.499  1.00  0.00     0.103 C 
HETATM    9  N3  UNL     1      29.073   2.596  53.325  1.00  0.00    -0.191 NA
HETATM   10  C12 UNL     1      25.661   1.740  53.130  1.00  0.00     0.063 A 
HETATM   11  C16 UNL     1      24.548   0.961  53.394  1.00  0.00     0.023 A 
HETATM   12  C17 UNL     1      23.360   1.385  52.834  1.00  0.00     0.045 A 
ENDROOT
BRANCH  10  13
HETATM   13  N4  UNL     1      25.612   2.915  52.333  1.00  0.00    -0.387 N 
HETATM   14  H10 UNL     1      25.305   3.858  52.615  1.00  0.00     0.159 HD
BRANCH  13  15
HETATM   15  C13 UNL     1      26.063   2.676  50.975  1.00  0.00     0.129 C 
BRANCH  15  16
HETATM   16  C14 UNL     1      25.813   3.842  50.073  1.00  0.00     0.158 C 
BRANCH  16  17
HETATM   17  C15 UNL     1      26.796   4.326  49.284  1.00  0.00     0.136 A 
HETATM   18  F1  UNL     1      27.790   5.055  48.671  1.00  0.00    -0.323 F 
HETATM   19 BR1  UNL     1      28.188   5.333  48.414  1.00  0.00     0.040 Br
ENDBRANCH  16  17
ENDBRANCH  15  16
ENDBRANCH  13  15
ENDBRANCH  10  13
BRANCH   1  20
HETATM   20  N1  UNL     1      20.890   0.912  52.578  1.00  0.00    -0.324 N 
HETATM   21  C4  UNL     1      20.555   0.572  51.262  1.00  0.00     0.245 C 
HETATM   22  O1  UNL     1      21.523   0.070  50.657  1.00  0.00    -0.268 OA
HETATM   23  H6  UNL     1      20.198   1.354  53.256  1.00  0.00     0.169 HD
BRANCH  21  24
HETATM   24  C3  UNL     1      19.219   0.807  50.735  1.00  0.00     0.070 C 
HETATM   25  C2  UNL     1      18.128   0.214  51.183  1.00  0.00    -0.026 C 
HETATM   26  C1  UNL     1      17.870  -0.773  52.234  1.00  0.00     0.036 C 
ENDBRANCH  21  24
ENDBRANCH   1  20
TORSDOF 6
ENDMDL
MODEL 5
REMARK VINA RESULT:      -7.6      2.062      2.755
REMARK  6 active torsions:
REMARK  status: ('A' for Active; 'I' for Inactive)
REMARK    1  A    between atoms: C3_3  and  C4_4 
REMARK       I    between atoms: C4_4  and  N1_6 
REMARK    2  A    between atoms: N1_6  and  C5_7 
REMARK    3  A    between atoms: C12_16  and  N4_17 
REMARK    4  A    between atoms: N4_17  and  C13_18 
REMARK    5  A    between atoms: C13_18  and  C14_19 
REMARK    6  A    between atoms: C14_19  and  C15_20 
ROOT
HETATM    1  C5  UNL     1      24.937  -0.067  53.713  1.00  0.00     0.035 A 
HETATM    2  C6  UNL     1      23.876  -0.855  54.154  1.00  0.00     0.032 A 
HETATM    3  C7  UNL     1      22.562  -0.455  53.976  1.00  0.00     0.035 A 
HETATM    4  C8  UNL     1      22.300   0.751  53.347  1.00  0.00     0.069 A 
HETATM    5  N2  UNL     1      21.030   1.163  53.161  1.00  0.00    -0.259 NA
HETATM    6  C9  UNL     1      20.788   2.347  52.543  1.00  0.00     0.142 A 
HETATM    7  C10 UNL     1      21.849   3.133  52.104  1.00  0.00     0.089 A 
HETATM    8  C11 UNL     1      21.521   4.372  51.459  1.00  0.00     0.103 C 
HETATM    9  N3  UNL     1      21.249   5.391  50.951  1.00  0.00    -0.191 NA
HETATM   10  C12 UNL     1      23.165   2.748  52.275  1.00  0.00     0.063 A 
HETATM   11  C16 UNL     1      23.352   1.533  52.910  1.00  0.00     0.023 A 
HETATM   12  C17 UNL     1      24.662   1.133  53.088  1.00  0.00     0.045 A 
ENDROOT
BRANCH  10  13
HETATM   13  N4  UNL     1      24.240   3.558  51.822  1.00  0.00    -0.387 N 
HETATM   14  H10 UNL     1      24.797   4.233  52.368  1.00  0.00     0.159 HD
BRANCH  13  15
HETATM   15  C13 UNL     1      24.527   3.352  50.415  1.00  0.00     0.129 C 
BRANCH  15  16
HETATM   16  C14 UNL     1      25.983   3.134  50.152  1.00  0.00     0.158 C 
BRANCH  16  17
HETATM   17  C15 UNL     1      26.735   4.104  49.591  1.00  0.00     0.136 A 
HETATM   18  F1  UNL     1      27.543   4.890  48.799  1.00  0.00    -0.323 F 
HETATM   19 BR1  UNL     1      27.863   5.216  48.495  1.00  0.00     0.040 Br
ENDBRANCH  16  17
ENDBRANCH  15  16
ENDBRANCH  13  15
ENDBRANCH  10  13
BRANCH   1  20
HETATM   20  N1  UNL     1      26.186  -0.666  53.999  1.00  0.00    -0.324 N 
HETATM   21  C4  UNL     1      27.030  -1.034  52.944  1.00  0.00     0.245 C 
HETATM   22  O1  UNL     1      26.525  -0.764  51.837  1.00  0.00    -0.268 OA
HETATM   23  H6  UNL     1      26.439  -0.815  55.022  1.00  0.00     0.169 HD
BRANCH  21  24
HETATM   24  C3  UNL     1      28.325  -1.653  53.190  1.00  0.00     0.070 C 
HETATM   25  C2  UNL     1      29.417  -0.987  53.515  1.00  0.00    -0.026 C 
HETATM   26  C1  UNL     1      29.715   0.432  53.725  1.00  0.00     0.036 C 
ENDBRANCH  21  24
ENDBRANCH   1  20
TORSDOF 6
ENDMDL
MODEL 6
REMARK VINA RESULT:      -7.5      2.906      5.344
REMARK  6 active torsions:
REMARK  status: ('A' for Active; 'I' for Inactive)
REMARK    1  A    between atoms: C3_3  and  C4_4 
REMARK       I    between atoms: C4_4  and  N1_6 
REMARK    2  A    between atoms: N1_6  and  C5_7 
REMARK    3  A    between atoms: C12_16  and  N4_17 
REMARK    4  A    between atoms: N4_17  and  C13_18 
REMARK    5  A    between atoms: C13_18  and  C14_19 
REMARK    6  A    between atoms: C14_19  and  C15_20 
ROOT
HETATM    1  C5  UNL     1      23.370   2.666  50.037  1.00  0.00     0.035 A 
HETATM    2  C6  UNL     1      22.079   2.528  49.533  1.00  0.00     0.032 A 
HETATM    3  C7  UNL     1      21.150   1.708  50.151  1.00  0.00     0.035 A 
HETATM    4  C8  UNL     1      21.514   1.010  51.291  1.00  0.00     0.069 A 
HETATM    5  N2  UNL     1      20.630   0.204  51.912  1.00  0.00    -0.259 NA
HETATM    6  C9  UNL     1      21.000  -0.473  53.028  1.00  0.00     0.142 A 
HETATM    7  C10 UNL     1      22.291  -0.334  53.530  1.00  0.00     0.089 A 
HETATM    8  C11 UNL     1      22.615  -1.079  54.713  1.00  0.00     0.103 C 
HETATM    9  N3  UNL     1      22.881  -1.703  55.668  1.00  0.00    -0.191 NA
HETATM   10  C12 UNL     1      23.228   0.481  52.925  1.00  0.00     0.063 A 
HETATM   11  C16 UNL     1      22.795   1.146  51.791  1.00  0.00     0.023 A 
HETATM   12  C17 UNL     1      23.720   1.965  51.174  1.00  0.00     0.045 A 
ENDROOT
BRANCH  10  13
HETATM   13  N4  UNL     1      24.543   0.615  53.446  1.00  0.00    -0.387 N 
HETATM   14  H10 UNL     1      24.921   1.387  54.016  1.00  0.00     0.159 HD
BRANCH  13  15
HETATM   15  C13 UNL     1      25.390  -0.508  53.092  1.00  0.00     0.129 C 
BRANCH  15  16
HETATM   16  C14 UNL     1      26.630  -0.087  52.369  1.00  0.00     0.158 C 
BRANCH  16  17
HETATM   17  C15 UNL     1      27.843  -0.219  52.946  1.00  0.00     0.136 A 
HETATM   18  F1  UNL     1      29.054  -0.642  53.446  1.00  0.00    -0.323 F 
HETATM   19 BR1  UNL     1      29.540  -0.794  53.651  1.00  0.00     0.040 Br
ENDBRANCH  16  17
ENDBRANCH  15  16
ENDBRANCH  13  15
ENDBRANCH  10  13
BRANCH   1  20
HETATM   20  N1  UNL     1      24.146   3.550  49.252  1.00  0.00    -0.324 N 
HETATM   21  C4  UNL     1      24.424   4.835  49.733  1.00  0.00     0.245 C 
HETATM   22  O1  UNL     1      23.914   5.025  50.855  1.00  0.00    -0.268 OA
HETATM   23  H6  UNL     1      24.493   3.197  48.309  1.00  0.00     0.169 HD
BRANCH  21  24
HETATM   24  C3  UNL     1      25.218   5.779  48.960  1.00  0.00     0.070 C 
HETATM   25  C2  UNL     1      26.485   5.595  48.637  1.00  0.00    -0.026 C 
HETATM   26  C1  UNL     1      27.452   4.525  48.895  1.00  0.00     0.036 C 
ENDBRANCH  21  24
ENDBRANCH   1  20
TORSDOF 6
ENDMDL
MODEL 7
REMARK VINA RESULT:      -7.3      3.130      5.360
REMARK  6 active torsions:
REMARK  status: ('A' for Active; 'I' for Inactive)
REMARK    1  A    between atoms: C3_3  and  C4_4 
REMARK       I    between atoms: C4_4  and  N1_6 
REMARK    2  A    between atoms: N1_6  and  C5_7 
REMARK    3  A    between atoms: C12_16  and  N4_17 
REMARK    4  A    between atoms: N4_17  and  C13_18 
REMARK    5  A    between atoms: C13_18  and  C14_19 
REMARK    6  A    between atoms: C14_19  and  C15_20 
ROOT
HETATM    1  C5  UNL     1      25.184   2.821  50.493  1.00  0.00     0.035 A 
HETATM    2  C6  UNL     1      26.482   2.462  50.851  1.00  0.00     0.032 A 
HETATM    3  C7  UNL     1      26.720   1.514  51.831  1.00  0.00     0.035 A 
HETATM    4  C8  UNL     1      25.647   0.913  52.468  1.00  0.00     0.069 A 
HETATM    5  N2  UNL     1      25.852  -0.013  53.426  1.00  0.00    -0.259 NA
HETATM    6  C9  UNL     1      24.791  -0.595  54.042  1.00  0.00     0.142 A 
HETATM    7  C10 UNL     1      23.495  -0.235  53.684  1.00  0.00     0.089 A 
HETATM    8  C11 UNL     1      22.421  -0.888  54.375  1.00  0.00     0.103 C 
HETATM    9  N3  UNL     1      21.548  -1.411  54.954  1.00  0.00    -0.191 NA
HETATM   10  C12 UNL     1      23.241   0.710  52.707  1.00  0.00     0.063 A 
HETATM   11  C16 UNL     1      24.360   1.268  52.114  1.00  0.00     0.023 A 
HETATM   12  C17 UNL     1      24.123   2.214  51.136  1.00  0.00     0.045 A 
ENDROOT
BRANCH  10  13
HETATM   13  N4  UNL     1      21.914   1.069  52.350  1.00  0.00    -0.387 N 
HETATM   14  H10 UNL     1      21.360   1.867  52.696  1.00  0.00     0.159 HD
BRANCH  13  15
HETATM   15  C13 UNL     1      21.342   0.157  51.377  1.00  0.00     0.129 C 
BRANCH  15  16
HETATM   16  C14 UNL     1      20.686   0.870  50.238  1.00  0.00     0.158 C 
BRANCH  16  17
HETATM   17  C15 UNL     1      21.391   1.206  49.137  1.00  0.00     0.136 A 
HETATM   18  F1  UNL     1      22.082   1.830  48.123  1.00  0.00    -0.323 F 
HETATM   19 BR1  UNL     1      22.361   2.064  47.711  1.00  0.00     0.040 Br
ENDBRANCH  16  17
ENDBRANCH  15  16
ENDBRANCH  13  15
ENDBRANCH  10  13
BRANCH   1  20
HETATM   20  N1  UNL     1      25.175   3.803  49.475  1.00  0.00    -0.324 N 
HETATM   21  C4  UNL     1      24.866   5.129  49.801  1.00  0.00     0.245 C 
HETATM   22  O1  UNL     1      24.628   5.259  51.018  1.00  0.00    -0.268 OA
HETATM   23  H6  UNL     1      25.408   3.489  48.485  1.00  0.00     0.169 HD
BRANCH  21  24
HETATM   24  C3  UNL     1      24.844   6.173  48.787  1.00  0.00     0.070 C 
HETATM   25  C2  UNL     1      25.924   6.701  48.240  1.00  0.00    -0.026 C 
HETATM   26  C1  UNL     1      27.361   6.477  48.414  1.00  0.00     0.036 C 
ENDBRANCH  21  24
ENDBRANCH   1  20
TORSDOF 6
ENDMDL
MODEL 8
REMARK VINA RESULT:      -7.2      2.301      4.412
REMARK  6 active torsions:
REMARK  status: ('A' for Active; 'I' for Inactive)
REMARK    1  A    between atoms: C3_3  and  C4_4 
REMARK       I    between atoms: C4_4  and  N1_6 
REMARK    2  A    between atoms: N1_6  and  C5_7 
REMARK    3  A    between atoms: C12_16  and  N4_17 
REMARK    4  A    between atoms: N4_17  and  C13_18 
REMARK    5  A    between atoms: C13_18  and  C14_19 
REMARK    6  A    between atoms: C14_19  and  C15_20 
ROOT
HETATM    1  C5  UNL     1      26.253   1.994  51.760  1.00  0.00     0.035 A 
HETATM    2  C6  UNL     1      26.604   2.941  50.800  1.00  0.00     0.032 A 
HETATM    3  C7  UNL     1      25.657   3.783  50.242  1.00  0.00     0.035 A 
HETATM    4  C8  UNL     1      24.336   3.680  50.647  1.00  0.00     0.069 A 
HETATM    5  N2  UNL     1      23.394   4.488  50.119  1.00  0.00    -0.259 NA
HETATM    6  C9  UNL     1      22.104   4.376  50.525  1.00  0.00     0.142 A 
HETATM    7  C10 UNL     1      21.755   3.429  51.483  1.00  0.00     0.089 A 
HETATM    8  C11 UNL     1      20.374   3.365  51.866  1.00  0.00     0.103 C 
HETATM    9  N3  UNL     1      19.243   3.303  52.161  1.00  0.00    -0.191 NA
HETATM   10  C12 UNL     1      22.689   2.582  52.049  1.00  0.00     0.063 A 
HETATM   11  C16 UNL     1      23.988   2.741  51.598  1.00  0.00     0.023 A 
HETATM   12  C17 UNL     1      24.933   1.902  52.154  1.00  0.00     0.045 A 
ENDROOT
BRANCH  10  13
HETATM   13  N4  UNL     1      22.322   1.619  53.027  1.00  0.00    -0.387 N 
HETATM   14  H10 UNL     1      22.296   1.736  54.051  1.00  0.00     0.159 HD
BRANCH  13  15
HETATM   15  C13 UNL     1      21.951   0.348  52.433  1.00  0.00     0.129 C 
BRANCH  15  16
HETATM   16  C14 UNL     1      22.585  -0.816  53.125  1.00  0.00     0.158 C 
BRANCH  16  17
HETATM   17  C15 UNL     1      23.707  -0.654  53.858  1.00  0.00     0.136 A 
HETATM   18  F1  UNL     1      24.826  -0.788  54.650  1.00  0.00    -0.323 F 
HETATM   19 BR1  UNL     1      25.275  -0.824  54.963  1.00  0.00     0.040 Br
ENDBRANCH  16  17
ENDBRANCH  15  16
ENDBRANCH  13  15
ENDBRANCH  10  13
BRANCH   1  20
HETATM   20  N1  UNL     1      27.374   1.246  52.190  1.00  0.00    -0.324 N 
HETATM   21  C4  UNL     1      27.950   1.524  53.435  1.00  0.00     0.245 C 
HETATM   22  O1  UNL     1      27.354   2.448  54.021  1.00  0.00    -0.268 OA
HETATM   23  H6  UNL     1      27.741   0.489  51.537  1.00  0.00     0.169 HD
BRANCH  21  24
HETATM   24  C3  UNL     1      29.104   0.780  53.919  1.00  0.00     0.070 C 
HETATM   25  C2  UNL     1      29.270  -0.520  53.762  1.00  0.00    -0.026 C 
HETATM   26  C1  UNL     1      28.472  -1.575  53.132  1.00  0.00     0.036 C 
ENDBRANCH  21  24
ENDBRANCH   1  20
TORSDOF 6
ENDMDL
MODEL 9
REMARK VINA RESULT:      -7.2      2.063      3.977
REMARK  6 active torsions:
REMARK  status: ('A' for Active; 'I' for Inactive)
REMARK    1  A    between atoms: C3_3  and  C4_4 
REMARK       I    between atoms: C4_4  and  N1_6 
REMARK    2  A    between atoms: N1_6  and  C5_7 
REMARK    3  A    between atoms: C12_16  and  N4_17 
REMARK    4  A    between atoms: N4_17  and  C13_18 
REMARK    5  A    between atoms: C13_18  and  C14_19 
REMARK    6  A    between atoms: C14_19  and  C15_20 
ROOT
HETATM    1  C5  UNL     1      24.838   2.440  52.195  1.00  0.00     0.035 A 
HETATM    2  C6  UNL     1      24.928   2.888  50.880  1.00  0.00     0.032 A 
HETATM    3  C7  UNL     1      23.892   2.694  49.982  1.00  0.00     0.035 A 
HETATM    4  C8  UNL     1      22.745   2.040  50.402  1.00  0.00     0.069 A 
HETATM    5  N2  UNL     1      21.722   1.837  49.548  1.00  0.00    -0.259 NA
HETATM    6  C9  UNL     1      20.604   1.195  49.973  1.00  0.00     0.142 A 
HETATM    7  C10 UNL     1      20.516   0.748  51.287  1.00  0.00     0.089 A 
HETATM    8  C11 UNL     1      19.306   0.077  51.669  1.00  0.00     0.103 C 
HETATM    9  N3  UNL     1      18.325  -0.486  51.971  1.00  0.00    -0.191 NA
HETATM   10  C12 UNL     1      21.541   0.934  52.194  1.00  0.00     0.063 A 
HETATM   11  C16 UNL     1      22.655   1.595  51.707  1.00  0.00     0.023 A 
HETATM   12  C17 UNL     1      23.689   1.789  52.601  1.00  0.00     0.045 A 
ENDROOT
BRANCH  10  13
HETATM   13  N4  UNL     1      21.440   0.473  53.534  1.00  0.00    -0.387 N 
HETATM   14  H10 UNL     1      21.204   1.022  54.376  1.00  0.00     0.159 HD
BRANCH  13  15
HETATM   15  C13 UNL     1      21.715  -0.946  53.648  1.00  0.00     0.129 C 
BRANCH  15  16
HETATM   16  C14 UNL     1      22.444  -1.291  54.907  1.00  0.00     0.158 C 
BRANCH  16  17
HETATM   17  C15 UNL     1      23.781  -1.127  54.997  1.00  0.00     0.136 A 
HETATM   18  F1  UNL     1      25.081  -0.675  55.004  1.00  0.00    -0.323 F 
HETATM   19 BR1  UNL     1      25.605  -0.511  55.011  1.00  0.00     0.040 Br
ENDBRANCH  16  17
ENDBRANCH  15  16
ENDBRANCH  13  15
ENDBRANCH  10  13
BRANCH   1  20
HETATM   20  N1  UNL     1      26.006   2.744  52.932  1.00  0.00    -0.324 N 
HETATM   21  C4  UNL     1      27.144   1.942  52.781  1.00  0.00     0.245 C 
HETATM   22  O1  UNL     1      26.948   1.018  51.968  1.00  0.00    -0.268 OA
HETATM   23  H6  UNL     1      25.973   3.585  53.584  1.00  0.00     0.169 HD
BRANCH  21  24
HETATM   24  C3  UNL     1      28.368   2.217  53.519  1.00  0.00     0.070 C 
HETATM   25  C2  UNL     1      29.193   1.286  53.961  1.00  0.00    -0.026 C 
HETATM   26  C1  UNL     1      29.200  -0.177  53.896  1.00  0.00     0.036 C 
ENDBRANCH  21  24
ENDBRANCH   1  20
TORSDOF 6
ENDMDL
