MODEL 1
REMARK VINA RESULT:      -8.1      0.000      0.000
REMARK  5 active torsions:
REMARK  status: ('A' for Active; 'I' for Inactive)
REMARK    1  A    between atoms: O1_2  and  C2_3 
REMARK    2  A    between atoms: C6_9  and  N3_10 
REMARK    3  A    between atoms: N3_10  and  C7_11 
REMARK    4  A    between atoms: C7_11  and  C8_12 
REMARK    5  A    between atoms: C17_21  and  O2_22 
ROOT
HETATM    1  C2  UNL     1      27.936   0.528  53.843  1.00  0.00     0.103 A 
HETATM    2  C3  UNL     1      26.753  -0.165  53.979  1.00  0.00     0.072 A 
HETATM    3  C4  UNL     1      25.585   0.290  53.425  1.00  0.00     0.075 A 
HETATM    4  N1  UNL     1      24.443  -0.420  53.581  1.00  0.00    -0.241 NA
HETATM    5  C5  UNL     1      23.279   0.031  53.030  1.00  0.00     0.235 A 
HETATM    6  N2  UNL     1      23.269   1.176  52.336  1.00  0.00    -0.224 NA
HETATM    7  C6  UNL     1      24.352   1.936  52.135  1.00  0.00     0.137 A 
HETATM    8  C15 UNL     1      25.512   1.458  52.702  1.00  0.00     0.041 A 
HETATM    9  C16 UNL     1      26.705   2.133  52.579  1.00  0.00     0.057 A 
HETATM   10  C17 UNL     1      27.896   1.705  53.123  1.00  0.00     0.100 A 
ENDROOT
BRANCH   7  11
HETATM   11  N3  UNL     1      24.304   3.142  51.389  1.00  0.00    -0.370 N 
HETATM   12  H6  UNL     1      24.380   4.064  51.866  1.00  0.00     0.161 HD
BRANCH  11  13
HETATM   13  C7  UNL     1      24.153   3.268  49.966  1.00  0.00     0.160 C 
BRANCH  13  14
HETATM   14  C8  UNL     1      25.099   4.272  49.447  1.00  0.00    -0.040 A 
HETATM   15  C9  UNL     1      26.404   3.769  49.388  1.00  0.00     0.009 A 
HETATM   16  C10 UNL     1      27.457   4.535  48.919  1.00  0.00     0.001 A 
HETATM   17  C11 UNL     1      27.280   5.833  48.487  1.00  0.00     0.007 A 
HETATM   18  C12 UNL     1      25.988   6.310  48.553  1.00  0.00    -0.061 A 
HETATM   19  C13 UNL     1      25.675   7.697  48.113  1.00  0.00     0.048 C 
HETATM   20  C14 UNL     1      24.924   5.566  49.015  1.00  0.00     0.015 A 
ENDBRANCH  13  14
ENDBRANCH  11  13
ENDBRANCH   7  11
BRANCH  10  21
HETATM   21  O2  UNL     1      29.094   2.406  52.985  1.00  0.00    -0.358 OA
HETATM   22  H17 UNL     1      29.294   2.974  52.162  1.00  0.00     0.217 HD
ENDBRANCH  10  21
BRANCH   1  23
HETATM   23  O1  UNL     1      29.131   0.093  54.391  1.00  0.00    -0.353 OA
HETATM   24  C1  UNL     1      29.946  -0.887  53.822  1.00  0.00     0.210 C 
ENDBRANCH   1  23
TORSDOF 5
ENDMDL
MODEL 2
REMARK VINA RESULT:      -8.0      2.563      3.751
REMARK  5 active torsions:
REMARK  status: ('A' for Active; 'I' for Inactive)
REMARK    1  A    between atoms: O1_2  and  C2_3 
REMARK    2  A    between atoms: C6_9  and  N3_10 
REMARK    3  A    between atoms: N3_10  and  C7_11 
REMARK    4  A    between atoms: C7_11  and  C8_12 
REMARK    5  A    between atoms: C17_21  and  O2_22 
ROOT
HETATM    1  C2  UNL     1      23.950  -0.348  53.561  1.00  0.00     0.103 A 
HETATM    2  C3  UNL     1      25.251  -0.468  53.999  1.00  0.00     0.072 A 
HETATM    3  C4  UNL     1      26.240   0.367  53.553  1.00  0.00     0.075 A 
HETATM    4  N1  UNL     1      27.507   0.217  54.008  1.00  0.00    -0.241 NA
HETATM    5  C5  UNL     1      28.494   1.047  53.565  1.00  0.00     0.235 A 
HETATM    6  N2  UNL     1      28.208   2.011  52.680  1.00  0.00    -0.224 NA
HETATM    7  C6  UNL     1      26.985   2.227  52.181  1.00  0.00     0.137 A 
HETATM    8  C15 UNL     1      26.009   1.374  52.645  1.00  0.00     0.041 A 
HETATM    9  C16 UNL     1      24.703   1.476  52.221  1.00  0.00     0.057 A 
HETATM   10  C17 UNL     1      23.684   0.653  52.649  1.00  0.00     0.100 A 
ENDROOT
BRANCH   7  11
HETATM   11  N3  UNL     1      26.718   3.262  51.248  1.00  0.00    -0.370 N 
HETATM   12  H6  UNL     1      26.596   4.245  51.567  1.00  0.00     0.161 HD
BRANCH  11  13
HETATM   13  C7  UNL     1      26.583   3.123  49.824  1.00  0.00     0.160 C 
BRANCH  13  14
HETATM   14  C8  UNL     1      26.734   4.438  49.175  1.00  0.00    -0.040 A 
HETATM   15  C9  UNL     1      25.531   5.155  49.175  1.00  0.00     0.009 A 
HETATM   16  C10 UNL     1      25.442   6.422  48.628  1.00  0.00     0.001 A 
HETATM   17  C11 UNL     1      26.528   7.048  48.053  1.00  0.00     0.007 A 
HETATM   18  C12 UNL     1      27.704   6.327  48.063  1.00  0.00    -0.061 A 
HETATM   19  C13 UNL     1      28.943   6.900  47.471  1.00  0.00     0.048 C 
HETATM   20  C14 UNL     1      27.817   5.064  48.602  1.00  0.00     0.015 A 
ENDBRANCH  13  14
ENDBRANCH  11  13
ENDBRANCH   7  11
BRANCH  10  21
HETATM   21  O2  UNL     1      22.367   0.775  52.205  1.00  0.00    -0.358 OA
HETATM   22  H17 UNL     1      21.892   0.019  51.712  1.00  0.00     0.217 HD
ENDBRANCH  10  21
BRANCH   1  23
HETATM   23  O1  UNL     1      22.929  -1.177  53.994  1.00  0.00    -0.353 OA
HETATM   24  C1  UNL     1      22.661  -1.459  55.335  1.00  0.00     0.210 C 
ENDBRANCH   1  23
TORSDOF 5
ENDMDL
MODEL 3
REMARK VINA RESULT:      -7.8      2.162      5.895
REMARK  5 active torsions:
REMARK  status: ('A' for Active; 'I' for Inactive)
REMARK    1  A    between atoms: O1_2  and  C2_3 
REMARK    2  A    between atoms: C6_9  and  N3_10 
REMARK    3  A    between atoms: N3_10  and  C7_11 
REMARK    4  A    between atoms: C7_11  and  C8_12 
REMARK    5  A    between atoms: C17_21  and  O2_22 
ROOT
HETATM    1  C2  UNL     1      27.826   0.472  53.896  1.00  0.00     0.103 A 
HETATM    2  C3  UNL     1      27.958   1.309  52.809  1.00  0.00     0.072 A 
HETATM    3  C4  UNL     1      26.875   1.931  52.246  1.00  0.00     0.075 A 
HETATM    4  N1  UNL     1      27.045   2.747  51.179  1.00  0.00    -0.241 NA
HETATM    5  C5  UNL     1      25.968   3.368  50.616  1.00  0.00     0.235 A 
HETATM    6  N2  UNL     1      24.744   3.169  51.121  1.00  0.00    -0.224 NA
HETATM    7  C6  UNL     1      24.490   2.380  52.172  1.00  0.00     0.137 A 
HETATM    8  C15 UNL     1      25.594   1.767  52.720  1.00  0.00     0.041 A 
HETATM    9  C16 UNL     1      25.486   0.926  53.805  1.00  0.00     0.057 A 
HETATM   10  C17 UNL     1      26.554   0.285  54.396  1.00  0.00     0.100 A 
ENDROOT
BRANCH   7  11
HETATM   11  N3  UNL     1      23.179   2.197  52.683  1.00  0.00    -0.370 N 
HETATM   12  H6  UNL     1      22.979   2.343  53.694  1.00  0.00     0.161 HD
BRANCH  11  13
HETATM   13  C7  UNL     1      22.012   1.809  51.941  1.00  0.00     0.160 C 
BRANCH  13  14
HETATM   14  C8  UNL     1      21.320   0.706  52.632  1.00  0.00    -0.040 A 
HETATM   15  C9  UNL     1      22.177   0.029  53.509  1.00  0.00     0.009 A 
HETATM   16  C10 UNL     1      21.738  -1.037  54.274  1.00  0.00     0.001 A 
HETATM   17  C11 UNL     1      20.437  -1.491  54.216  1.00  0.00     0.007 A 
HETATM   18  C12 UNL     1      19.608  -0.812  53.347  1.00  0.00    -0.061 A 
HETATM   19  C13 UNL     1      18.182  -1.211  53.200  1.00  0.00     0.048 C 
HETATM   20  C14 UNL     1      20.023   0.253  52.576  1.00  0.00     0.015 A 
ENDBRANCH  13  14
ENDBRANCH  11  13
ENDBRANCH   7  11
BRANCH  10  21
HETATM   21  O2  UNL     1      26.421  -0.563  55.496  1.00  0.00    -0.358 OA
HETATM   22  H17 UNL     1      26.997  -1.397  55.606  1.00  0.00     0.217 HD
ENDBRANCH  10  21
BRANCH   1  23
HETATM   23  O1  UNL     1      28.902  -0.171  54.486  1.00  0.00    -0.353 OA
HETATM   24  C1  UNL     1      29.888  -0.862  53.781  1.00  0.00     0.210 C 
ENDBRANCH   1  23
TORSDOF 5
ENDMDL
MODEL 4
REMARK VINA RESULT:      -7.4      4.070      6.717
REMARK  5 active torsions:
REMARK  status: ('A' for Active; 'I' for Inactive)
REMARK    1  A    between atoms: O1_2  and  C2_3 
REMARK    2  A    between atoms: C6_9  and  N3_10 
REMARK    3  A    between atoms: N3_10  and  C7_11 
REMARK    4  A    between atoms: C7_11  and  C8_12 
REMARK    5  A    between atoms: C17_21  and  O2_22 
ROOT
HETATM    1  C2  UNL     1      20.255  -0.744  53.659  1.00  0.00     0.103 A 
HETATM    2  C3  UNL     1      20.005   0.443  53.004  1.00  0.00     0.072 A 
HETATM    3  C4  UNL     1      21.016   1.301  52.659  1.00  0.00     0.075 A 
HETATM    4  N1  UNL     1      20.729   2.458  52.016  1.00  0.00    -0.241 NA
HETATM    5  C5  UNL     1      21.733   3.314  51.671  1.00  0.00     0.235 A 
HETATM    6  N2  UNL     1      23.002   3.006  51.967  1.00  0.00    -0.224 NA
HETATM    7  C6  UNL     1      23.371   1.886  52.598  1.00  0.00     0.137 A 
HETATM    8  C15 UNL     1      22.337   1.041  52.935  1.00  0.00     0.041 A 
HETATM    9  C16 UNL     1      22.564  -0.149  53.589  1.00  0.00     0.057 A 
HETATM   10  C17 UNL     1      21.572  -1.034  53.952  1.00  0.00     0.100 A 
ENDROOT
BRANCH   7  11
HETATM   11  N3  UNL     1      24.728   1.591  52.891  1.00  0.00    -0.370 N 
HETATM   12  H6  UNL     1      25.163   1.920  53.778  1.00  0.00     0.161 HD
BRANCH  11  13
HETATM   13  C7  UNL     1      25.644   0.850  52.070  1.00  0.00     0.160 C 
BRANCH  13  14
HETATM   14  C8  UNL     1      26.964   0.784  52.723  1.00  0.00    -0.040 A 
HETATM   15  C9  UNL     1      27.380   2.043  53.174  1.00  0.00     0.009 A 
HETATM   16  C10 UNL     1      28.586   2.217  53.829  1.00  0.00     0.001 A 
HETATM   17  C11 UNL     1      29.443   1.164  54.075  1.00  0.00     0.007 A 
HETATM   18  C12 UNL     1      29.016  -0.067  53.624  1.00  0.00    -0.061 A 
HETATM   19  C13 UNL     1      29.856  -1.277  53.832  1.00  0.00     0.048 C 
HETATM   20  C14 UNL     1      27.819  -0.265  52.970  1.00  0.00     0.015 A 
ENDBRANCH  13  14
ENDBRANCH  11  13
ENDBRANCH   7  11
BRANCH  10  21
HETATM   21  O2  UNL     1      21.826  -2.236  54.613  1.00  0.00    -0.358 OA
HETATM   22  H17 UNL     1      22.210  -3.047  54.129  1.00  0.00     0.217 HD
ENDBRANCH  10  21
BRANCH   1  23
HETATM   23  O1  UNL     1      19.255  -1.629  54.021  1.00  0.00    -0.353 OA
HETATM   24  C1  UNL     1      17.977  -1.645  53.458  1.00  0.00     0.210 C 
ENDBRANCH   1  23
TORSDOF 5
ENDMDL
MODEL 5
REMARK VINA RESULT:      -7.2      2.109      6.280
REMARK  5 active torsions:
REMARK  status: ('A' for Active; 'I' for Inactive)
REMARK    1  A    between atoms: O1_2  and  C2_3 
REMARK    2  A    between atoms: C6_9  and  N3_10 
REMARK    3  A    between atoms: N3_10  and  C7_11 
REMARK    4  A    between atoms: C7_11  and  C8_12 
REMARK    5  A    between atoms: C17_21  and  O2_22 
ROOT
HETATM    1  C2  UNL     1      25.602   5.461  49.395  1.00  0.00     0.103 A 
HETATM    2  C3  UNL     1      24.302   5.488  49.852  1.00  0.00     0.072 A 
HETATM    3  C4  UNL     1      23.771   4.451  50.575  1.00  0.00     0.075 A 
HETATM    4  N1  UNL     1      22.490   4.516  51.006  1.00  0.00    -0.241 NA
HETATM    5  C5  UNL     1      21.959   3.485  51.725  1.00  0.00     0.235 A 
HETATM    6  N2  UNL     1      22.709   2.411  52.004  1.00  0.00    -0.224 NA
HETATM    7  C6  UNL     1      23.982   2.268  51.616  1.00  0.00     0.137 A 
HETATM    8  C15 UNL     1      24.491   3.323  50.892  1.00  0.00     0.041 A 
HETATM    9  C16 UNL     1      25.786   3.317  50.426  1.00  0.00     0.057 A 
HETATM   10  C17 UNL     1      26.351   4.342  49.697  1.00  0.00     0.100 A 
ENDROOT
BRANCH   7  11
HETATM   11  N3  UNL     1      24.747   1.117  51.935  1.00  0.00    -0.370 N 
HETATM   12  H6  UNL     1      25.107   0.494  51.183  1.00  0.00     0.161 HD
BRANCH  11  13
HETATM   13  C7  UNL     1      25.116   0.665  53.248  1.00  0.00     0.160 C 
BRANCH  13  14
HETATM   14  C8  UNL     1      26.584   0.665  53.385  1.00  0.00    -0.040 A 
HETATM   15  C9  UNL     1      27.091   1.965  53.506  1.00  0.00     0.009 A 
HETATM   16  C10 UNL     1      28.445   2.204  53.658  1.00  0.00     0.001 A 
HETATM   17  C11 UNL     1      29.368   1.180  53.699  1.00  0.00     0.007 A 
HETATM   18  C12 UNL     1      28.850  -0.092  53.579  1.00  0.00    -0.061 A 
HETATM   19  C13 UNL     1      29.749  -1.278  53.609  1.00  0.00     0.048 C 
HETATM   20  C14 UNL     1      27.506  -0.356  53.427  1.00  0.00     0.015 A 
ENDBRANCH  13  14
ENDBRANCH  11  13
ENDBRANCH   7  11
BRANCH  10  21
HETATM   21  O2  UNL     1      27.667   4.314  49.235  1.00  0.00    -0.358 OA
HETATM   22  H17 UNL     1      27.888   4.297  48.240  1.00  0.00     0.217 HD
ENDBRANCH  10  21
BRANCH   1  23
HETATM   23  O1  UNL     1      26.164   6.493  48.663  1.00  0.00    -0.353 OA
HETATM   24  C1  UNL     1      25.432   7.417  47.916  1.00  0.00     0.210 C 
ENDBRANCH   1  23
TORSDOF 5
ENDMDL
MODEL 6
REMARK VINA RESULT:      -7.2      2.709      6.185
REMARK  5 active torsions:
REMARK  status: ('A' for Active; 'I' for Inactive)
REMARK    1  A    between atoms: O1_2  and  C2_3 
REMARK    2  A    between atoms: C6_9  and  N3_10 
REMARK    3  A    between atoms: N3_10  and  C7_11 
REMARK    4  A    between atoms: C7_11  and  C8_12 
REMARK    5  A    between atoms: C17_21  and  O2_22 
ROOT
HETATM    1  C2  UNL     1      25.704   2.997  51.224  1.00  0.00     0.103 A 
HETATM    2  C3  UNL     1      26.565   1.928  51.351  1.00  0.00     0.072 A 
HETATM    3  C4  UNL     1      26.266   0.855  52.149  1.00  0.00     0.075 A 
HETATM    4  N1  UNL     1      27.138  -0.176  52.247  1.00  0.00    -0.241 NA
HETATM    5  C5  UNL     1      26.843  -1.246  53.041  1.00  0.00     0.235 A 
HETATM    6  N2  UNL     1      25.690  -1.273  53.722  1.00  0.00    -0.224 NA
HETATM    7  C6  UNL     1      24.775  -0.298  53.680  1.00  0.00     0.137 A 
HETATM    8  C15 UNL     1      25.099   0.769  52.871  1.00  0.00     0.041 A 
HETATM    9  C16 UNL     1      24.255   1.847  52.730  1.00  0.00     0.057 A 
HETATM   10  C17 UNL     1      24.524   2.942  51.936  1.00  0.00     0.100 A 
ENDROOT
BRANCH   7  11
HETATM   11  N3  UNL     1      23.561  -0.364  54.411  1.00  0.00    -0.370 N 
HETATM   12  H6  UNL     1      23.366   0.312  55.179  1.00  0.00     0.161 HD
BRANCH  11  13
HETATM   13  C7  UNL     1      22.492  -1.304  54.221  1.00  0.00     0.160 C 
BRANCH  13  14
HETATM   14  C8  UNL     1      21.501  -0.755  53.278  1.00  0.00    -0.040 A 
HETATM   15  C9  UNL     1      20.193  -0.920  53.749  1.00  0.00     0.009 A 
HETATM   16  C10 UNL     1      19.100  -0.467  53.031  1.00  0.00     0.001 A 
HETATM   17  C11 UNL     1      19.238   0.168  51.815  1.00  0.00     0.007 A 
HETATM   18  C12 UNL     1      20.533   0.321  51.367  1.00  0.00    -0.061 A 
HETATM   19  C13 UNL     1      20.806   0.993  50.067  1.00  0.00     0.048 C 
HETATM   20  C14 UNL     1      21.637  -0.120  52.064  1.00  0.00     0.015 A 
ENDBRANCH  13  14
ENDBRANCH  11  13
ENDBRANCH   7  11
BRANCH  10  21
HETATM   21  O2  UNL     1      23.652   4.023  51.807  1.00  0.00    -0.358 OA
HETATM   22  H17 UNL     1      22.793   3.960  51.262  1.00  0.00     0.217 HD
ENDBRANCH  10  21
BRANCH   1  23
HETATM   23  O1  UNL     1      25.979   4.094  50.425  1.00  0.00    -0.353 OA
HETATM   24  C1  UNL     1      26.824   4.066  49.314  1.00  0.00     0.210 C 
ENDBRANCH   1  23
TORSDOF 5
ENDMDL
MODEL 7
REMARK VINA RESULT:      -7.2      3.236      6.303
REMARK  5 active torsions:
REMARK  status: ('A' for Active; 'I' for Inactive)
REMARK    1  A    between atoms: O1_2  and  C2_3 
REMARK    2  A    between atoms: C6_9  and  N3_10 
REMARK    3  A    between atoms: N3_10  and  C7_11 
REMARK    4  A    between atoms: C7_11  and  C8_12 
REMARK    5  A    between atoms: C17_21  and  O2_22 
ROOT
HETATM    1  C2  UNL     1      26.780   0.118  53.957  1.00  0.00     0.103 A 
HETATM    2  C3  UNL     1      26.947   1.050  52.954  1.00  0.00     0.072 A 
HETATM    3  C4  UNL     1      25.891   1.492  52.202  1.00  0.00     0.075 A 
HETATM    4  N1  UNL     1      26.095   2.408  51.226  1.00  0.00    -0.241 NA
HETATM    5  C5  UNL     1      25.045   2.851  50.475  1.00  0.00     0.235 A 
HETATM    6  N2  UNL     1      23.814   2.378  50.706  1.00  0.00    -0.224 NA
HETATM    7  C6  UNL     1      23.527   1.473  51.649  1.00  0.00     0.137 A 
HETATM    8  C15 UNL     1      24.604   1.044  52.391  1.00  0.00     0.041 A 
HETATM    9  C16 UNL     1      24.462   0.115  53.396  1.00  0.00     0.057 A 
HETATM   10  C17 UNL     1      25.501  -0.352  54.172  1.00  0.00     0.100 A 
ENDROOT
BRANCH   7  11
HETATM   11  N3  UNL     1      22.208   0.998  51.868  1.00  0.00    -0.370 N 
HETATM   12  H6  UNL     1      22.024  -0.019  51.988  1.00  0.00     0.161 HD
BRANCH  11  13
HETATM   13  C7  UNL     1      21.011   1.788  51.949  1.00  0.00     0.160 C 
BRANCH  13  14
HETATM   14  C8  UNL     1      19.826   0.915  51.876  1.00  0.00    -0.040 A 
HETATM   15  C9  UNL     1      19.077   1.156  50.718  1.00  0.00     0.009 A 
HETATM   16  C10 UNL     1      17.927   0.442  50.435  1.00  0.00     0.001 A 
HETATM   17  C11 UNL     1      17.455  -0.545  51.276  1.00  0.00     0.007 A 
HETATM   18  C12 UNL     1      18.205  -0.768  52.410  1.00  0.00    -0.061 A 
HETATM   19  C13 UNL     1      17.794  -1.809  53.392  1.00  0.00     0.048 C 
HETATM   20  C14 UNL     1      19.354  -0.070  52.713  1.00  0.00     0.015 A 
ENDBRANCH  13  14
ENDBRANCH  11  13
ENDBRANCH   7  11
BRANCH  10  21
HETATM   21  O2  UNL     1      25.333  -1.294  55.187  1.00  0.00    -0.358 OA
HETATM   22  H17 UNL     1      26.116  -1.625  55.750  1.00  0.00     0.217 HD
ENDBRANCH  10  21
BRANCH   1  23
HETATM   23  O1  UNL     1      27.828  -0.347  54.733  1.00  0.00    -0.353 OA
HETATM   24  C1  UNL     1      29.164  -0.352  54.329  1.00  0.00     0.210 C 
ENDBRANCH   1  23
TORSDOF 5
ENDMDL
MODEL 8
REMARK VINA RESULT:      -7.2      4.555      7.021
REMARK  5 active torsions:
REMARK  status: ('A' for Active; 'I' for Inactive)
REMARK    1  A    between atoms: O1_2  and  C2_3 
REMARK    2  A    between atoms: C6_9  and  N3_10 
REMARK    3  A    between atoms: N3_10  and  C7_11 
REMARK    4  A    between atoms: C7_11  and  C8_12 
REMARK    5  A    between atoms: C17_21  and  O2_22 
ROOT
HETATM    1  C2  UNL     1      19.389   0.451  52.146  1.00  0.00     0.103 A 
HETATM    2  C3  UNL     1      19.735  -0.429  53.149  1.00  0.00     0.072 A 
HETATM    3  C4  UNL     1      21.017  -0.511  53.623  1.00  0.00     0.075 A 
HETATM    4  N1  UNL     1      21.317  -1.388  54.610  1.00  0.00    -0.241 NA
HETATM    5  C5  UNL     1      22.594  -1.472  55.083  1.00  0.00     0.235 A 
HETATM    6  N2  UNL     1      23.548  -0.685  54.571  1.00  0.00    -0.224 NA
HETATM    7  C6  UNL     1      23.337   0.207  53.596  1.00  0.00     0.137 A 
HETATM    8  C15 UNL     1      22.040   0.270  53.137  1.00  0.00     0.041 A 
HETATM    9  C16 UNL     1      21.673   1.141  52.136  1.00  0.00     0.057 A 
HETATM   10  C17 UNL     1      20.392   1.249  51.636  1.00  0.00     0.100 A 
ENDROOT
BRANCH   7  11
HETATM   11  N3  UNL     1      24.372   1.029  53.081  1.00  0.00    -0.370 N 
HETATM   12  H6  UNL     1      24.552   1.971  53.484  1.00  0.00     0.161 HD
BRANCH  11  13
HETATM   13  C7  UNL     1      25.267   0.711  52.003  1.00  0.00     0.160 C 
BRANCH  13  14
HETATM   14  C8  UNL     1      26.625   0.483  52.527  1.00  0.00    -0.040 A 
HETATM   15  C9  UNL     1      27.250   1.685  52.883  1.00  0.00     0.009 A 
HETATM   16  C10 UNL     1      28.528   1.710  53.410  1.00  0.00     0.001 A 
HETATM   17  C11 UNL     1      29.257   0.557  53.614  1.00  0.00     0.007 A 
HETATM   18  C12 UNL     1      28.626  -0.616  53.259  1.00  0.00    -0.061 A 
HETATM   19  C13 UNL     1      29.313  -1.925  53.434  1.00  0.00     0.048 C 
HETATM   20  C14 UNL     1      27.353  -0.666  52.732  1.00  0.00     0.015 A 
ENDBRANCH  13  14
ENDBRANCH  11  13
ENDBRANCH   7  11
BRANCH  10  21
HETATM   21  O2  UNL     1      20.043   2.140  50.621  1.00  0.00    -0.358 OA
HETATM   22  H17 UNL     1      19.606   1.825  49.755  1.00  0.00     0.217 HD
ENDBRANCH  10  21
BRANCH   1  23
HETATM   23  O1  UNL     1      18.102   0.556  51.647  1.00  0.00    -0.353 OA
HETATM   24  C1  UNL     1      17.175  -0.488  51.635  1.00  0.00     0.210 C 
ENDBRANCH   1  23
TORSDOF 5
ENDMDL
MODEL 9
REMARK VINA RESULT:      -7.2      2.657      3.810
REMARK  5 active torsions:
REMARK  status: ('A' for Active; 'I' for Inactive)
REMARK    1  A    between atoms: O1_2  and  C2_3 
REMARK    2  A    between atoms: C6_9  and  N3_10 
REMARK    3  A    between atoms: N3_10  and  C7_11 
REMARK    4  A    between atoms: C7_11  and  C8_12 
REMARK    5  A    between atoms: C17_21  and  O2_22 
ROOT
HETATM    1  C2  UNL     1      23.099   0.279  53.060  1.00  0.00     0.103 A 
HETATM    2  C3  UNL     1      22.253   1.313  52.720  1.00  0.00     0.072 A 
HETATM    3  C4  UNL     1      22.715   2.447  52.106  1.00  0.00     0.075 A 
HETATM    4  N1  UNL     1      21.853   3.441  51.788  1.00  0.00    -0.241 NA
HETATM    5  C5  UNL     1      22.310   4.572  51.177  1.00  0.00     0.235 A 
HETATM    6  N2  UNL     1      23.612   4.696  50.892  1.00  0.00    -0.224 NA
HETATM    7  C6  UNL     1      24.530   3.763  51.172  1.00  0.00     0.137 A 
HETATM    8  C15 UNL     1      24.040   2.633  51.788  1.00  0.00     0.041 A 
HETATM    9  C16 UNL     1      24.866   1.588  52.137  1.00  0.00     0.057 A 
HETATM   10  C17 UNL     1      24.435   0.434  52.755  1.00  0.00     0.100 A 
ENDROOT
BRANCH   7  11
HETATM   11  N3  UNL     1      25.902   3.927  50.850  1.00  0.00    -0.370 N 
HETATM   12  H6  UNL     1      26.580   4.254  51.569  1.00  0.00     0.161 HD
BRANCH  11  13
HETATM   13  C7  UNL     1      26.522   3.687  49.577  1.00  0.00     0.160 C 
BRANCH  13  14
HETATM   14  C8  UNL     1      26.878   4.968  48.942  1.00  0.00    -0.040 A 
HETATM   15  C9  UNL     1      28.228   5.004  48.573  1.00  0.00     0.009 A 
HETATM   16  C10 UNL     1      28.781   6.107  47.949  1.00  0.00     0.001 A 
HETATM   17  C11 UNL     1      28.036   7.231  47.655  1.00  0.00     0.007 A 
HETATM   18  C12 UNL     1      26.709   7.177  48.026  1.00  0.00    -0.061 A 
HETATM   19  C13 UNL     1      25.806   8.330  47.760  1.00  0.00     0.048 C 
HETATM   20  C14 UNL     1      26.136   6.089  48.648  1.00  0.00     0.015 A 
ENDBRANCH  13  14
ENDBRANCH  11  13
ENDBRANCH   7  11
BRANCH  10  21
HETATM   21  O2  UNL     1      25.291  -0.613  53.098  1.00  0.00    -0.358 OA
HETATM   22  H17 UNL     1      25.463  -0.872  54.069  1.00  0.00     0.217 HD
ENDBRANCH  10  21
BRANCH   1  23
HETATM   23  O1  UNL     1      22.661  -0.879  53.680  1.00  0.00    -0.353 OA
HETATM   24  C1  UNL     1      21.759  -0.907  54.746  1.00  0.00     0.210 C 
ENDBRANCH   1  23
TORSDOF 5
ENDMDL
