MODEL 1
REMARK VINA RESULT:      -8.0      0.000      0.000
REMARK  7 active torsions:
REMARK  status: ('A' for Active; 'I' for Inactive)
REMARK    1  A    between atoms: C5_5  and  C6_6 
REMARK    2  A    between atoms: C9_9  and  C10_10 
REMARK    3  A    between atoms: C10_10  and  C11_11 
REMARK    4  A    between atoms: N3_20  and  C16_21 
REMARK    5  A    between atoms: C17_22  and  C18_23 
REMARK    6  A    between atoms: C18_23  and  C19_24 
REMARK    7  A    between atoms: C23_28  and  O3_29 
ROOT
HETATM    1  C11 UNL     1      29.844  -0.076  53.614  1.00  0.00     0.126 C 
HETATM    2  C12 UNL     1      29.426  -1.468  53.448  1.00  0.00     0.059 C 
HETATM    3  N1  UNL     1      29.086  -2.572  53.333  1.00  0.00    -0.197 NA
ENDROOT
BRANCH   1   4
HETATM    4  C10 UNL     1      28.652   0.764  53.926  1.00  0.00     0.051 C 
BRANCH   4   5
HETATM    5  C9  UNL     1      27.663   0.879  52.784  1.00  0.00     0.155 C 
HETATM    6  C7  UNL     1      26.312   0.469  53.174  1.00  0.00    -0.029 C 
HETATM    7  C6  UNL     1      25.210   0.899  52.569  1.00  0.00     0.036 C 
HETATM    8  C8  UNL     1      26.094  -0.483  54.313  1.00  0.00     0.048 C 
HETATM    9  N2  UNL     1      25.530   1.786  51.494  1.00  0.00    -0.368 N 
HETATM   10  C13 UNL     1      26.777   2.503  51.371  1.00  0.00     0.291 C 
HETATM   11  H16 UNL     1      24.922   2.012  50.699  1.00  0.00     0.161 HD
HETATM   12  O1  UNL     1      27.668   2.221  52.373  1.00  0.00    -0.362 OA
BRANCH   7  13
HETATM   13  C5  UNL     1      23.838   0.573  52.863  1.00  0.00     0.068 C 
HETATM   14  C4  UNL     1      22.750   1.017  52.277  1.00  0.00     0.100 C 
HETATM   15  C3  UNL     1      21.389   0.641  52.630  1.00  0.00     0.066 C 
HETATM   16  O2  UNL     1      22.695   1.920  51.219  1.00  0.00    -0.324 OA
HETATM   17  C2  UNL     1      20.873  -0.163  53.530  1.00  0.00     0.002 C 
HETATM   18  N3  UNL     1      20.563   1.387  51.709  1.00  0.00    -0.328 N 
HETATM   19  C1  UNL     1      21.529  -1.004  54.544  1.00  0.00     0.038 C 
HETATM   20  C14 UNL     1      21.417   1.826  50.606  1.00  0.00     0.230 C 
HETATM   21  C15 UNL     1      21.343   0.768  49.539  1.00  0.00     0.064 C 
BRANCH  18  22
HETATM   22  C16 UNL     1      19.154   1.664  51.830  1.00  0.00     0.090 C 
HETATM   23  C17 UNL     1      18.180   0.871  51.414  1.00  0.00    -0.008 C 
BRANCH  23  24
HETATM   24  C18 UNL     1      16.705   0.726  51.322  1.00  0.00     0.043 C 
BRANCH  24  25
HETATM   25  C19 UNL     1      16.428  -0.774  51.180  1.00  0.00     0.068 A 
HETATM   26  C20 UNL     1      15.705  -1.303  52.340  1.00  0.00    -0.015 A 
HETATM   27  C21 UNL     1      14.516  -1.790  51.949  1.00  0.00    -0.001 A 
HETATM   28  C22 UNL     1      14.394  -1.603  50.487  1.00  0.00     0.033 A 
HETATM   29  C23 UNL     1      15.502  -1.016  50.047  1.00  0.00     0.053 A 
BRANCH  29  30
HETATM   30  O3  UNL     1      15.937  -0.606  48.797  1.00  0.00    -0.360 OA
HETATM   31  C24 UNL     1      15.335   0.408  48.046  1.00  0.00     0.209 C 
ENDBRANCH  29  30
ENDBRANCH  24  25
ENDBRANCH  23  24
ENDBRANCH  18  22
ENDBRANCH   7  13
ENDBRANCH   4   5
ENDBRANCH   1   4
TORSDOF 7
ENDMDL
MODEL 2
REMARK VINA RESULT:      -7.6      4.557      6.714
REMARK  7 active torsions:
REMARK  status: ('A' for Active; 'I' for Inactive)
REMARK    1  A    between atoms: C5_5  and  C6_6 
REMARK    2  A    between atoms: C9_9  and  C10_10 
REMARK    3  A    between atoms: C10_10  and  C11_11 
REMARK    4  A    between atoms: N3_20  and  C16_21 
REMARK    5  A    between atoms: C17_22  and  C18_23 
REMARK    6  A    between atoms: C18_23  and  C19_24 
REMARK    7  A    between atoms: C23_28  and  O3_29 
ROOT
HETATM    1  C11 UNL     1      29.835   9.050  48.629  1.00  0.00     0.126 C 
HETATM    2  C12 UNL     1      30.991   8.397  49.244  1.00  0.00     0.059 C 
HETATM    3  N1  UNL     1      31.898   7.864  49.734  1.00  0.00    -0.197 NA
ENDROOT
BRANCH   1   4
HETATM    4  C10 UNL     1      29.311   8.192  47.527  1.00  0.00     0.051 C 
BRANCH   4   5
HETATM    5  C9  UNL     1      27.826   7.905  47.623  1.00  0.00     0.155 C 
HETATM    6  C7  UNL     1      27.548   6.617  48.262  1.00  0.00    -0.029 C 
HETATM    7  C6  UNL     1      26.410   6.337  48.888  1.00  0.00     0.036 C 
HETATM    8  C8  UNL     1      28.565   5.514  48.247  1.00  0.00     0.048 C 
HETATM    9  N2  UNL     1      25.509   7.446  48.832  1.00  0.00    -0.368 N 
HETATM   10  C13 UNL     1      25.910   8.811  48.587  1.00  0.00     0.291 C 
HETATM   11  H16 UNL     1      24.492   7.402  48.956  1.00  0.00     0.161 HD
HETATM   12  O1  UNL     1      27.255   8.952  48.364  1.00  0.00    -0.362 OA
BRANCH   7  13
HETATM   13  C5  UNL     1      26.026   5.118  49.552  1.00  0.00     0.068 C 
HETATM   14  C4  UNL     1      24.829   4.587  49.657  1.00  0.00     0.100 C 
HETATM   15  C3  UNL     1      24.515   3.345  50.347  1.00  0.00     0.066 C 
HETATM   16  O2  UNL     1      23.650   5.107  49.131  1.00  0.00    -0.324 OA
HETATM   17  C2  UNL     1      25.234   2.463  51.004  1.00  0.00     0.002 C 
HETATM   18  N3  UNL     1      23.088   3.196  50.182  1.00  0.00    -0.328 N 
HETATM   19  C1  UNL     1      26.679   2.428  51.279  1.00  0.00     0.038 C 
HETATM   20  C14 UNL     1      22.677   4.073  49.085  1.00  0.00     0.230 C 
HETATM   21  C15 UNL     1      22.732   3.258  47.822  1.00  0.00     0.064 C 
BRANCH  18  22
HETATM   22  C16 UNL     1      22.206   2.348  50.942  1.00  0.00     0.090 C 
HETATM   23  C17 UNL     1      21.876   1.106  50.625  1.00  0.00    -0.008 C 
BRANCH  23  24
HETATM   24  C18 UNL     1      21.078  -0.071  51.050  1.00  0.00     0.043 C 
BRANCH  24  25
HETATM   25  C19 UNL     1      19.941   0.472  51.921  1.00  0.00     0.068 A 
HETATM   26  C20 UNL     1      18.633   0.271  51.292  1.00  0.00    -0.015 A 
HETATM   27  C21 UNL     1      17.873  -0.516  52.070  1.00  0.00    -0.001 A 
HETATM   28  C22 UNL     1      18.655  -0.879  53.272  1.00  0.00     0.033 A 
HETATM   29  C23 UNL     1      19.849  -0.305  53.181  1.00  0.00     0.053 A 
BRANCH  29  30
HETATM   30  O3  UNL     1      20.970  -0.295  53.995  1.00  0.00    -0.360 OA
HETATM   31  C24 UNL     1      21.458  -1.411  54.682  1.00  0.00     0.209 C 
ENDBRANCH  29  30
ENDBRANCH  24  25
ENDBRANCH  23  24
ENDBRANCH  18  22
ENDBRANCH   7  13
ENDBRANCH   4   5
ENDBRANCH   1   4
TORSDOF 7
ENDMDL
MODEL 3
REMARK VINA RESULT:      -7.6      2.504      2.965
REMARK  7 active torsions:
REMARK  status: ('A' for Active; 'I' for Inactive)
REMARK    1  A    between atoms: C5_5  and  C6_6 
REMARK    2  A    between atoms: C9_9  and  C10_10 
REMARK    3  A    between atoms: C10_10  and  C11_11 
REMARK    4  A    between atoms: N3_20  and  C16_21 
REMARK    5  A    between atoms: C17_22  and  C18_23 
REMARK    6  A    between atoms: C18_23  and  C19_24 
REMARK    7  A    between atoms: C23_28  and  O3_29 
ROOT
HETATM    1  C11 UNL     1      29.740  -0.588  53.665  1.00  0.00     0.126 C 
HETATM    2  C12 UNL     1      29.166  -1.878  53.282  1.00  0.00     0.059 C 
HETATM    3  N1  UNL     1      28.700  -2.902  52.994  1.00  0.00    -0.197 NA
ENDROOT
BRANCH   1   4
HETATM    4  C10 UNL     1      28.643   0.354  54.029  1.00  0.00     0.051 C 
BRANCH   4   5
HETATM    5  C9  UNL     1      27.661   0.619  52.906  1.00  0.00     0.155 C 
HETATM    6  C7  UNL     1      26.272   0.402  53.317  1.00  0.00    -0.029 C 
HETATM    7  C6  UNL     1      25.233   0.991  52.736  1.00  0.00     0.036 C 
HETATM    8  C8  UNL     1      25.940  -0.520  54.452  1.00  0.00     0.048 C 
HETATM    9  N2  UNL     1      25.658   1.834  51.662  1.00  0.00    -0.368 N 
HETATM   10  C13 UNL     1      26.992   2.367  51.522  1.00  0.00     0.291 C 
HETATM   11  H16 UNL     1      25.075   2.153  50.880  1.00  0.00     0.161 HD
HETATM   12  O1  UNL     1      27.850   1.952  52.506  1.00  0.00    -0.362 OA
BRANCH   7  13
HETATM   13  C5  UNL     1      23.834   0.861  53.052  1.00  0.00     0.068 C 
HETATM   14  C4  UNL     1      22.807   1.432  52.464  1.00  0.00     0.100 C 
HETATM   15  C3  UNL     1      21.413   1.252  52.841  1.00  0.00     0.066 C 
HETATM   16  O2  UNL     1      22.860   2.307  51.382  1.00  0.00    -0.324 OA
HETATM   17  C2  UNL     1      20.805   0.548  53.768  1.00  0.00     0.002 C 
HETATM   18  N3  UNL     1      20.682   2.079  51.908  1.00  0.00    -0.328 N 
HETATM   19  C1  UNL     1      21.356  -0.347  54.798  1.00  0.00     0.038 C 
HETATM   20  C14 UNL     1      21.573   2.369  50.785  1.00  0.00     0.230 C 
HETATM   21  C15 UNL     1      21.343   1.304  49.749  1.00  0.00     0.064 C 
BRANCH  18  22
HETATM   22  C16 UNL     1      19.325   2.545  52.035  1.00  0.00     0.090 C 
HETATM   23  C17 UNL     1      18.551   2.930  51.033  1.00  0.00    -0.008 C 
BRANCH  23  24
HETATM   24  C18 UNL     1      17.202   3.445  50.686  1.00  0.00     0.043 C 
BRANCH  24  25
HETATM   25  C19 UNL     1      17.350   4.165  49.342  1.00  0.00     0.068 A 
HETATM   26  C20 UNL     1      18.620   3.837  48.689  1.00  0.00    -0.015 A 
HETATM   27  C21 UNL     1      18.381   3.236  47.512  1.00  0.00    -0.001 A 
HETATM   28  C22 UNL     1      16.917   3.138  47.327  1.00  0.00     0.033 A 
HETATM   29  C23 UNL     1      16.326   3.677  48.387  1.00  0.00     0.053 A 
BRANCH  29  30
HETATM   30  O3  UNL     1      15.003   3.860  48.755  1.00  0.00    -0.360 OA
HETATM   31  C24 UNL     1      14.370   5.105  48.834  1.00  0.00     0.209 C 
ENDBRANCH  29  30
ENDBRANCH  24  25
ENDBRANCH  23  24
ENDBRANCH  18  22
ENDBRANCH   7  13
ENDBRANCH   4   5
ENDBRANCH   1   4
TORSDOF 7
ENDMDL
MODEL 4
REMARK VINA RESULT:      -7.3      6.033     11.132
REMARK  7 active torsions:
REMARK  status: ('A' for Active; 'I' for Inactive)
REMARK    1  A    between atoms: C5_5  and  C6_6 
REMARK    2  A    between atoms: C9_9  and  C10_10 
REMARK    3  A    between atoms: C10_10  and  C11_11 
REMARK    4  A    between atoms: N3_20  and  C16_21 
REMARK    5  A    between atoms: C17_22  and  C18_23 
REMARK    6  A    between atoms: C18_23  and  C19_24 
REMARK    7  A    between atoms: C23_28  and  O3_29 
ROOT
HETATM    1  C11 UNL     1      21.537   0.060  53.845  1.00  0.00     0.126 C 
HETATM    2  C12 UNL     1      21.939  -1.074  54.678  1.00  0.00     0.059 C 
HETATM    3  N1  UNL     1      22.264  -1.983  55.324  1.00  0.00    -0.197 NA
ENDROOT
BRANCH   1   4
HETATM    4  C10 UNL     1      22.667   0.441  52.951  1.00  0.00     0.051 C 
BRANCH   4   5
HETATM    5  C9  UNL     1      22.277   1.390  51.836  1.00  0.00     0.155 C 
HETATM    6  C7  UNL     1      23.371   2.289  51.461  1.00  0.00    -0.029 C 
HETATM    7  C6  UNL     1      23.480   2.856  50.264  1.00  0.00     0.036 C 
HETATM    8  C8  UNL     1      24.461   2.624  52.436  1.00  0.00     0.048 C 
HETATM    9  N2  UNL     1      22.387   2.483  49.421  1.00  0.00    -0.368 N 
HETATM   10  C13 UNL     1      21.563   1.315  49.621  1.00  0.00     0.291 C 
HETATM   11  H16 UNL     1      22.066   2.994  48.591  1.00  0.00     0.161 HD
HETATM   12  O1  UNL     1      21.898   0.598  50.740  1.00  0.00    -0.362 OA
BRANCH   7  13
HETATM   13  C5  UNL     1      24.503   3.746  49.782  1.00  0.00     0.068 C 
HETATM   14  C4  UNL     1      24.386   5.001  49.411  1.00  0.00     0.100 C 
HETATM   15  C3  UNL     1      25.471   5.843  48.931  1.00  0.00     0.066 C 
HETATM   16  O2  UNL     1      23.214   5.752  49.409  1.00  0.00    -0.324 OA
HETATM   17  C2  UNL     1      26.756   5.649  48.740  1.00  0.00     0.002 C 
HETATM   18  N3  UNL     1      24.842   7.114  48.656  1.00  0.00    -0.328 N 
HETATM   19  C1  UNL     1      27.581   4.450  48.958  1.00  0.00     0.038 C 
HETATM   20  C14 UNL     1      23.557   7.130  49.354  1.00  0.00     0.230 C 
HETATM   21  C15 UNL     1      23.795   7.740  50.708  1.00  0.00     0.064 C 
BRANCH  18  22
HETATM   22  C16 UNL     1      25.361   8.187  47.847  1.00  0.00     0.090 C 
HETATM   23  C17 UNL     1      26.361   8.986  48.185  1.00  0.00    -0.008 C 
BRANCH  23  24
HETATM   24  C18 UNL     1      27.187  10.134  47.733  1.00  0.00     0.043 C 
BRANCH  24  25
HETATM   25  C19 UNL     1      28.394  10.192  48.675  1.00  0.00     0.068 A 
HETATM   26  C20 UNL     1      29.531   9.433  48.146  1.00  0.00    -0.015 A 
HETATM   27  C21 UNL     1      30.571  10.258  47.946  1.00  0.00    -0.001 A 
HETATM   28  C22 UNL     1      30.166  11.625  48.338  1.00  0.00     0.033 A 
HETATM   29  C23 UNL     1      28.907  11.581  48.760  1.00  0.00     0.053 A 
BRANCH  29  30
HETATM   30  O3  UNL     1      28.024  12.536  49.238  1.00  0.00    -0.360 OA
HETATM   31  C24 UNL     1      27.727  13.736  48.583  1.00  0.00     0.209 C 
ENDBRANCH  29  30
ENDBRANCH  24  25
ENDBRANCH  23  24
ENDBRANCH  18  22
ENDBRANCH   7  13
ENDBRANCH   4   5
ENDBRANCH   1   4
TORSDOF 7
ENDMDL
MODEL 5
REMARK VINA RESULT:      -7.2      4.564      6.163
REMARK  7 active torsions:
REMARK  status: ('A' for Active; 'I' for Inactive)
REMARK    1  A    between atoms: C5_5  and  C6_6 
REMARK    2  A    between atoms: C9_9  and  C10_10 
REMARK    3  A    between atoms: C10_10  and  C11_11 
REMARK    4  A    between atoms: N3_20  and  C16_21 
REMARK    5  A    between atoms: C17_22  and  C18_23 
REMARK    6  A    between atoms: C18_23  and  C19_24 
REMARK    7  A    between atoms: C23_28  and  O3_29 
ROOT
HETATM    1  C11 UNL     1      29.357  -0.530  53.591  1.00  0.00     0.126 C 
HETATM    2  C12 UNL     1      29.090  -1.963  53.471  1.00  0.00     0.059 C 
HETATM    3  N1  UNL     1      28.885  -3.104  53.394  1.00  0.00    -0.197 NA
ENDROOT
BRANCH   1   4
HETATM    4  C10 UNL     1      28.669   0.002  54.802  1.00  0.00     0.051 C 
BRANCH   4   5
HETATM    5  C9  UNL     1      27.236   0.430  54.558  1.00  0.00     0.155 C 
HETATM    6  C7  UNL     1      27.122   1.397  53.464  1.00  0.00    -0.029 C 
HETATM    7  C6  UNL     1      26.018   1.566  52.744  1.00  0.00     0.036 C 
HETATM    8  C8  UNL     1      28.281   2.269  53.083  1.00  0.00     0.048 C 
HETATM    9  N2  UNL     1      24.975   0.699  53.197  1.00  0.00    -0.368 N 
HETATM   10  C13 UNL     1      25.189  -0.507  53.961  1.00  0.00     0.291 C 
HETATM   11  H16 UNL     1      23.970   0.830  53.035  1.00  0.00     0.161 HD
HETATM   12  O1  UNL     1      26.508  -0.733  54.261  1.00  0.00    -0.362 OA
BRANCH   7  13
HETATM   13  C5  UNL     1      25.788   2.474  51.651  1.00  0.00     0.068 C 
HETATM   14  C4  UNL     1      24.643   2.874  51.147  1.00  0.00     0.100 C 
HETATM   15  C3  UNL     1      24.488   3.799  50.035  1.00  0.00     0.066 C 
HETATM   16  O2  UNL     1      23.376   2.493  51.581  1.00  0.00    -0.324 OA
HETATM   17  C2  UNL     1      25.333   4.453  49.271  1.00  0.00     0.002 C 
HETATM   18  N3  UNL     1      23.058   3.916  49.865  1.00  0.00    -0.328 N 
HETATM   19  C1  UNL     1      26.805   4.475  49.282  1.00  0.00     0.038 C 
HETATM   20  C14 UNL     1      22.427   3.429  51.091  1.00  0.00     0.230 C 
HETATM   21  C15 UNL     1      22.239   4.617  51.995  1.00  0.00     0.064 C 
BRANCH  18  22
HETATM   22  C16 UNL     1      22.356   4.416  48.711  1.00  0.00     0.090 C 
HETATM   23  C17 UNL     1      22.280   3.809  47.537  1.00  0.00    -0.008 C 
BRANCH  23  24
HETATM   24  C18 UNL     1      21.724   3.913  46.164  1.00  0.00     0.043 C 
BRANCH  24  25
HETATM   25  C19 UNL     1      21.372   5.389  45.953  1.00  0.00     0.068 A 
HETATM   26  C20 UNL     1      22.253   6.019  44.965  1.00  0.00    -0.015 A 
HETATM   27  C21 UNL     1      21.527   6.451  43.922  1.00  0.00    -0.001 A 
HETATM   28  C22 UNL     1      20.107   6.123  44.174  1.00  0.00     0.033 A 
HETATM   29  C23 UNL     1      20.023   5.509  45.349  1.00  0.00     0.053 A 
BRANCH  29  30
HETATM   30  O3  UNL     1      18.971   4.985  46.083  1.00  0.00    -0.360 OA
HETATM   31  C24 UNL     1      17.623   5.105  45.727  1.00  0.00     0.209 C 
ENDBRANCH  29  30
ENDBRANCH  24  25
ENDBRANCH  23  24
ENDBRANCH  18  22
ENDBRANCH   7  13
ENDBRANCH   4   5
ENDBRANCH   1   4
TORSDOF 7
ENDMDL
MODEL 6
REMARK VINA RESULT:      -7.2      3.182      4.988
REMARK  7 active torsions:
REMARK  status: ('A' for Active; 'I' for Inactive)
REMARK    1  A    between atoms: C5_5  and  C6_6 
REMARK    2  A    between atoms: C9_9  and  C10_10 
REMARK    3  A    between atoms: C10_10  and  C11_11 
REMARK    4  A    between atoms: N3_20  and  C16_21 
REMARK    5  A    between atoms: C17_22  and  C18_23 
REMARK    6  A    between atoms: C18_23  and  C19_24 
REMARK    7  A    between atoms: C23_28  and  O3_29 
ROOT
HETATM    1  C11 UNL     1      28.120   7.043  48.227  1.00  0.00     0.126 C 
HETATM    2  C12 UNL     1      27.171   7.708  47.333  1.00  0.00     0.059 C 
HETATM    3  N1  UNL     1      26.418   8.221  46.613  1.00  0.00    -0.197 NA
ENDROOT
BRANCH   1   4
HETATM    4  C10 UNL     1      27.596   5.695  48.590  1.00  0.00     0.051 C 
BRANCH   4   5
HETATM    5  C9  UNL     1      26.184   5.711  49.138  1.00  0.00     0.155 C 
HETATM    6  C7  UNL     1      25.821   4.444  49.778  1.00  0.00    -0.029 C 
HETATM    7  C6  UNL     1      24.889   4.336  50.719  1.00  0.00     0.036 C 
HETATM    8  C8  UNL     1      26.503   3.165  49.395  1.00  0.00     0.048 C 
HETATM    9  N2  UNL     1      24.294   5.607  50.997  1.00  0.00    -0.368 N 
HETATM   10  C13 UNL     1      24.906   6.879  50.696  1.00  0.00     0.291 C 
HETATM   11  H16 UNL     1      23.379   5.759  51.435  1.00  0.00     0.161 HD
HETATM   12  O1  UNL     1      26.117   6.763  50.065  1.00  0.00    -0.362 OA
BRANCH   7  13
HETATM   13  C5  UNL     1      24.452   3.157  51.419  1.00  0.00     0.068 C 
HETATM   14  C4  UNL     1      23.247   2.633  51.465  1.00  0.00     0.100 C 
HETATM   15  C3  UNL     1      22.878   1.432  52.197  1.00  0.00     0.066 C 
HETATM   16  O2  UNL     1      22.112   3.125  50.826  1.00  0.00    -0.324 OA
HETATM   17  C2  UNL     1      23.542   0.586  52.952  1.00  0.00     0.002 C 
HETATM   18  N3  UNL     1      21.466   1.275  51.936  1.00  0.00    -0.328 N 
HETATM   19  C1  UNL     1      24.963   0.564  53.333  1.00  0.00     0.038 C 
HETATM   20  C14 UNL     1      21.141   2.091  50.766  1.00  0.00     0.230 C 
HETATM   21  C15 UNL     1      21.283   1.208  49.556  1.00  0.00     0.064 C 
BRANCH  18  22
HETATM   22  C16 UNL     1      20.526   0.471  52.675  1.00  0.00     0.090 C 
HETATM   23  C17 UNL     1      19.386  -0.005  52.201  1.00  0.00    -0.008 C 
BRANCH  23  24
HETATM   24  C18 UNL     1      18.187  -0.813  52.540  1.00  0.00     0.043 C 
BRANCH  24  25
HETATM   25  C19 UNL     1      16.990  -0.089  51.915  1.00  0.00     0.068 A 
HETATM   26  C20 UNL     1      17.393   0.736  50.772  1.00  0.00    -0.015 A 
HETATM   27  C21 UNL     1      16.779   0.300  49.661  1.00  0.00    -0.001 A 
HETATM   28  C22 UNL     1      15.926  -0.853  50.021  1.00  0.00     0.033 A 
HETATM   29  C23 UNL     1      16.051  -1.074  51.325  1.00  0.00     0.053 A 
BRANCH  29  30
HETATM   30  O3  UNL     1      15.502  -2.000  52.196  1.00  0.00    -0.360 OA
HETATM   31  C24 UNL     1      14.132  -2.144  52.436  1.00  0.00     0.209 C 
ENDBRANCH  29  30
ENDBRANCH  24  25
ENDBRANCH  23  24
ENDBRANCH  18  22
ENDBRANCH   7  13
ENDBRANCH   4   5
ENDBRANCH   1   4
TORSDOF 7
ENDMDL
MODEL 7
REMARK VINA RESULT:      -7.1      5.782      8.779
REMARK  7 active torsions:
REMARK  status: ('A' for Active; 'I' for Inactive)
REMARK    1  A    between atoms: C5_5  and  C6_6 
REMARK    2  A    between atoms: C9_9  and  C10_10 
REMARK    3  A    between atoms: C10_10  and  C11_11 
REMARK    4  A    between atoms: N3_20  and  C16_21 
REMARK    5  A    between atoms: C17_22  and  C18_23 
REMARK    6  A    between atoms: C18_23  and  C19_24 
REMARK    7  A    between atoms: C23_28  and  O3_29 
ROOT
HETATM    1  C11 UNL     1      28.617  12.203  48.621  1.00  0.00     0.126 C 
HETATM    2  C12 UNL     1      27.762  13.338  48.274  1.00  0.00     0.059 C 
HETATM    3  N1  UNL     1      27.086  14.236  47.981  1.00  0.00    -0.197 NA
ENDROOT
BRANCH   1   4
HETATM    4  C10 UNL     1      28.187  11.005  47.845  1.00  0.00     0.051 C 
BRANCH   4   5
HETATM    5  C9  UNL     1      28.423   9.690  48.560  1.00  0.00     0.155 C 
HETATM    6  C7  UNL     1      27.175   9.074  49.018  1.00  0.00    -0.029 C 
HETATM    7  C6  UNL     1      27.033   7.769  49.226  1.00  0.00     0.036 C 
HETATM    8  C8  UNL     1      25.956   9.906  49.282  1.00  0.00     0.048 C 
HETATM    9  N2  UNL     1      28.254   7.073  48.960  1.00  0.00    -0.368 N 
HETATM   10  C13 UNL     1      29.323   7.585  48.136  1.00  0.00     0.291 C 
HETATM   11  H16 UNL     1      28.508   6.146  49.317  1.00  0.00     0.161 HD
HETATM   12  O1  UNL     1      29.082   8.845  47.653  1.00  0.00    -0.362 OA
BRANCH   7  13
HETATM   13  C5  UNL     1      25.866   7.052  49.668  1.00  0.00     0.068 C 
HETATM   14  C4  UNL     1      25.619   5.764  49.588  1.00  0.00     0.100 C 
HETATM   15  C3  UNL     1      24.410   5.106  50.059  1.00  0.00     0.066 C 
HETATM   16  O2  UNL     1      26.461   4.797  49.044  1.00  0.00    -0.324 OA
HETATM   17  C2  UNL     1      23.313   5.530  50.645  1.00  0.00     0.002 C 
HETATM   18  N3  UNL     1      24.617   3.711  49.747  1.00  0.00    -0.328 N 
HETATM   19  C1  UNL     1      22.913   6.888  51.047  1.00  0.00     0.038 C 
HETATM   20  C14 UNL     1      26.048   3.520  49.511  1.00  0.00     0.230 C 
HETATM   21  C15 UNL     1      26.668   3.137  50.827  1.00  0.00     0.064 C 
BRANCH  18  22
HETATM   22  C16 UNL     1      23.618   2.676  49.676  1.00  0.00     0.090 C 
HETATM   23  C17 UNL     1      23.099   2.039  50.713  1.00  0.00    -0.008 C 
BRANCH  23  24
HETATM   24  C18 UNL     1      22.128   0.991  51.117  1.00  0.00     0.043 C 
BRANCH  24  25
HETATM   25  C19 UNL     1      21.791   1.261  52.587  1.00  0.00     0.068 A 
HETATM   26  C20 UNL     1      20.412   0.877  52.905  1.00  0.00    -0.015 A 
HETATM   27  C21 UNL     1      20.415  -0.086  53.840  1.00  0.00    -0.001 A 
HETATM   28  C22 UNL     1      21.819  -0.391  54.192  1.00  0.00     0.033 A 
HETATM   29  C23 UNL     1      22.610   0.390  53.465  1.00  0.00     0.053 A 
BRANCH  29  30
HETATM   30  O3  UNL     1      23.984   0.541  53.372  1.00  0.00    -0.360 OA
HETATM   31  C24 UNL     1      24.892  -0.521  53.309  1.00  0.00     0.209 C 
ENDBRANCH  29  30
ENDBRANCH  24  25
ENDBRANCH  23  24
ENDBRANCH  18  22
ENDBRANCH   7  13
ENDBRANCH   4   5
ENDBRANCH   1   4
TORSDOF 7
ENDMDL
MODEL 8
REMARK VINA RESULT:      -7.0      5.588      8.615
REMARK  7 active torsions:
REMARK  status: ('A' for Active; 'I' for Inactive)
REMARK    1  A    between atoms: C5_5  and  C6_6 
REMARK    2  A    between atoms: C9_9  and  C10_10 
REMARK    3  A    between atoms: C10_10  and  C11_11 
REMARK    4  A    between atoms: N3_20  and  C16_21 
REMARK    5  A    between atoms: C17_22  and  C18_23 
REMARK    6  A    between atoms: C18_23  and  C19_24 
REMARK    7  A    between atoms: C23_28  and  O3_29 
ROOT
HETATM    1  C11 UNL     1      27.950  10.092  46.365  1.00  0.00     0.126 C 
HETATM    2  C12 UNL     1      28.293  11.280  45.583  1.00  0.00     0.059 C 
HETATM    3  N1  UNL     1      28.550  12.221  44.953  1.00  0.00    -0.197 NA
ENDROOT
BRANCH   1   4
HETATM    4  C10 UNL     1      26.561  10.230  46.890  1.00  0.00     0.051 C 
BRANCH   4   5
HETATM    5  C9  UNL     1      26.401   9.790  48.331  1.00  0.00     0.155 C 
HETATM    6  C7  UNL     1      25.950   8.400  48.442  1.00  0.00    -0.029 C 
HETATM    7  C6  UNL     1      26.180   7.635  49.504  1.00  0.00     0.036 C 
HETATM    8  C8  UNL     1      25.187   7.747  47.328  1.00  0.00     0.048 C 
HETATM    9  N2  UNL     1      26.899   8.357  50.507  1.00  0.00    -0.368 N 
HETATM   10  C13 UNL     1      27.687   9.540  50.255  1.00  0.00     0.291 C 
HETATM   11  H16 UNL     1      26.938   8.123  51.505  1.00  0.00     0.161 HD
HETATM   12  O1  UNL     1      27.652   9.949  48.948  1.00  0.00    -0.362 OA
BRANCH   7  13
HETATM   13  C5  UNL     1      25.794   6.266  49.725  1.00  0.00     0.068 C 
HETATM   14  C4  UNL     1      24.654   5.803  50.185  1.00  0.00     0.100 C 
HETATM   15  C3  UNL     1      24.334   4.397  50.383  1.00  0.00     0.066 C 
HETATM   16  O2  UNL     1      23.550   6.561  50.563  1.00  0.00    -0.324 OA
HETATM   17  C2  UNL     1      24.994   3.278  50.189  1.00  0.00     0.002 C 
HETATM   18  N3  UNL     1      22.985   4.408  50.898  1.00  0.00    -0.328 N 
HETATM   19  C1  UNL     1      26.355   3.052  49.676  1.00  0.00     0.038 C 
HETATM   20  C14 UNL     1      22.408   5.718  50.596  1.00  0.00     0.230 C 
HETATM   21  C15 UNL     1      21.712   5.602  49.268  1.00  0.00     0.064 C 
BRANCH  18  22
HETATM   22  C16 UNL     1      22.305   3.339  51.585  1.00  0.00     0.090 C 
HETATM   23  C17 UNL     1      22.543   2.048  51.418  1.00  0.00    -0.008 C 
BRANCH  23  24
HETATM   24  C18 UNL     1      22.144   0.686  51.856  1.00  0.00     0.043 C 
BRANCH  24  25
HETATM   25  C19 UNL     1      22.305   0.660  53.379  1.00  0.00     0.068 A 
HETATM   26  C20 UNL     1      21.099   0.155  54.042  1.00  0.00    -0.015 A 
HETATM   27  C21 UNL     1      21.391  -0.964  54.723  1.00  0.00    -0.001 A 
HETATM   28  C22 UNL     1      22.829  -1.259  54.540  1.00  0.00     0.033 A 
HETATM   29  C23 UNL     1      23.353  -0.317  53.763  1.00  0.00     0.053 A 
BRANCH  29  30
HETATM   30  O3  UNL     1      24.624  -0.083  53.267  1.00  0.00    -0.360 OA
HETATM   31  C24 UNL     1      25.740  -0.879  53.547  1.00  0.00     0.209 C 
ENDBRANCH  29  30
ENDBRANCH  24  25
ENDBRANCH  23  24
ENDBRANCH  18  22
ENDBRANCH   7  13
ENDBRANCH   4   5
ENDBRANCH   1   4
TORSDOF 7
ENDMDL
MODEL 9
REMARK VINA RESULT:      -7.0      5.754      8.840
REMARK  7 active torsions:
REMARK  status: ('A' for Active; 'I' for Inactive)
REMARK    1  A    between atoms: C5_5  and  C6_6 
REMARK    2  A    between atoms: C9_9  and  C10_10 
REMARK    3  A    between atoms: C10_10  and  C11_11 
REMARK    4  A    between atoms: N3_20  and  C16_21 
REMARK    5  A    between atoms: C17_22  and  C18_23 
REMARK    6  A    between atoms: C18_23  and  C19_24 
REMARK    7  A    between atoms: C23_28  and  O3_29 
ROOT
HETATM    1  C11 UNL     1      29.990  10.594  47.776  1.00  0.00     0.126 C 
HETATM    2  C12 UNL     1      31.355  11.028  47.476  1.00  0.00     0.059 C 
HETATM    3  N1  UNL     1      32.444  11.356  47.242  1.00  0.00    -0.197 NA
ENDROOT
BRANCH   1   4
HETATM    4  C10 UNL     1      29.677   9.370  46.984  1.00  0.00     0.051 C 
BRANCH   4   5
HETATM    5  C9  UNL     1      28.203   9.021  46.948  1.00  0.00     0.155 C 
HETATM    6  C7  UNL     1      27.920   7.732  47.585  1.00  0.00    -0.029 C 
HETATM    7  C6  UNL     1      26.741   7.414  48.109  1.00  0.00     0.036 C 
HETATM    8  C8  UNL     1      28.978   6.675  47.687  1.00  0.00     0.048 C 
HETATM    9  N2  UNL     1      25.804   8.483  47.946  1.00  0.00    -0.368 N 
HETATM   10  C13 UNL     1      26.169   9.859  47.711  1.00  0.00     0.291 C 
HETATM   11  H16 UNL     1      24.783   8.397  47.977  1.00  0.00     0.161 HD
HETATM   12  O1  UNL     1      27.522  10.054  47.611  1.00  0.00    -0.362 OA
BRANCH   7  13
HETATM   13  C5  UNL     1      26.347   6.192  48.760  1.00  0.00     0.068 C 
HETATM   14  C4  UNL     1      25.344   5.992  49.584  1.00  0.00     0.100 C 
HETATM   15  C3  UNL     1      25.005   4.721  50.206  1.00  0.00     0.066 C 
HETATM   16  O2  UNL     1      24.425   6.947  50.009  1.00  0.00    -0.324 OA
HETATM   17  C2  UNL     1      25.524   3.515  50.153  1.00  0.00     0.002 C 
HETATM   18  N3  UNL     1      23.842   5.016  51.010  1.00  0.00    -0.328 N 
HETATM   19  C1  UNL     1      26.686   3.011  49.404  1.00  0.00     0.038 C 
HETATM   20  C14 UNL     1      23.284   6.281  50.531  1.00  0.00     0.230 C 
HETATM   21  C15 UNL     1      22.258   5.945  49.485  1.00  0.00     0.064 C 
BRANCH  18  22
HETATM   22  C16 UNL     1      23.306   4.228  52.091  1.00  0.00     0.090 C 
HETATM   23  C17 UNL     1      23.182   2.911  52.090  1.00  0.00    -0.008 C 
BRANCH  23  24
HETATM   24  C18 UNL     1      22.730   1.746  52.893  1.00  0.00     0.043 C 
BRANCH  24  25
HETATM   25  C19 UNL     1      23.721   0.614  52.603  1.00  0.00     0.068 A 
HETATM   26  C20 UNL     1      25.105   1.032  52.847  1.00  0.00    -0.015 A 
HETATM   27  C21 UNL     1      25.643   0.271  53.813  1.00  0.00    -0.001 A 
HETATM   28  C22 UNL     1      24.624  -0.703  54.262  1.00  0.00     0.033 A 
HETATM   29  C23 UNL     1      23.516  -0.500  53.559  1.00  0.00     0.053 A 
BRANCH  29  30
HETATM   30  O3  UNL     1      22.266  -1.098  53.549  1.00  0.00    -0.360 OA
HETATM   31  C24 UNL     1      21.487  -1.320  54.689  1.00  0.00     0.209 C 
ENDBRANCH  29  30
ENDBRANCH  24  25
ENDBRANCH  23  24
ENDBRANCH  18  22
ENDBRANCH   7  13
ENDBRANCH   4   5
ENDBRANCH   1   4
TORSDOF 7
ENDMDL
