MODEL 1
REMARK VINA RESULT:     -10.3      0.000      0.000
REMARK  3 active torsions:
REMARK  status: ('A' for Active; 'I' for Inactive)
REMARK    1  A    between atoms: C8_9  and  N2_10 
REMARK    2  A    between atoms: N2_10  and  C9_11 
REMARK    3  A    between atoms: C13_15  and  C14_16 
ROOT
HETATM    1  C1  UNL     1      23.859  -1.330  55.391  1.00  0.00    -0.022 C 
HETATM    2  C2  UNL     1      22.524  -1.604  55.339  1.00  0.00    -0.026 C 
HETATM    3  C3  UNL     1      22.033  -1.331  53.972  1.00  0.00     0.053 C 
HETATM    4  C4  UNL     1      20.972  -0.267  54.037  1.00  0.00    -0.025 C 
HETATM    5  C5  UNL     1      21.138   0.936  53.449  1.00  0.00    -0.011 C 
HETATM    6  C6  UNL     1      22.325   1.397  52.688  1.00  0.00     0.146 C 
HETATM    7  N1  UNL     1      22.077   1.748  51.321  1.00  0.00    -0.392 N 
HETATM    8  C7  UNL     1      23.345   2.149  50.753  1.00  0.00     0.134 C 
HETATM    9  C8  UNL     1      24.621   2.462  51.049  1.00  0.00     0.143 C 
HETATM   10  N3  UNL     1      24.837   2.381  52.419  1.00  0.00    -0.231 NA
HETATM   11  C21 UNL     1      25.884   2.286  53.105  1.00  0.00     0.172 C 
HETATM   12  N4  UNL     1      27.094   2.180  53.804  1.00  0.00    -0.273 NA
HETATM   13  C22 UNL     1      27.515   1.017  54.169  1.00  0.00     0.396 C 
HETATM   14  O1  UNL     1      27.009  -0.271  54.017  1.00  0.00    -0.364 OA
HETATM   15  C23 UNL     1      25.659  -0.488  53.709  1.00  0.00     0.110 C 
HETATM   16  C24 UNL     1      25.151  -0.912  54.881  1.00  0.00     0.109 C 
HETATM   17  H9  UNL     1      21.334   1.817  50.613  1.00  0.00     0.159 HD
ENDROOT
BRANCH   9  18
HETATM   18  N2  UNL     1      25.811   2.857  50.329  1.00  0.00    -0.340 N 
HETATM   19  H11 UNL     1      26.563   2.128  50.330  1.00  0.00     0.167 HD
BRANCH  18  20
HETATM   20  C9  UNL     1      25.950   4.114  49.680  1.00  0.00     0.034 A 
HETATM   21  C10 UNL     1      24.885   5.003  49.538  1.00  0.00     0.029 A 
HETATM   22  C11 UNL     1      25.009   6.227  48.906  1.00  0.00     0.003 A 
HETATM   23  C12 UNL     1      26.233   6.587  48.396  1.00  0.00     0.012 A 
HETATM   24  C13 UNL     1      27.325   5.745  48.509  1.00  0.00    -0.024 A 
HETATM   25  C20 UNL     1      27.145   4.538  49.146  1.00  0.00     0.041 A 
BRANCH  24  26
HETATM   26  C14 UNL     1      28.576   6.213  47.935  1.00  0.00    -0.026 A 
HETATM   27  C15 UNL     1      29.706   5.456  48.151  1.00  0.00     0.012 A 
HETATM   28  C16 UNL     1      30.946   5.795  47.660  1.00  0.00     0.001 A 
HETATM   29  C17 UNL     1      31.108   6.934  46.916  1.00  0.00     0.000 A 
HETATM   30  C18 UNL     1      29.975   7.689  46.702  1.00  0.00     0.001 A 
HETATM   31  C19 UNL     1      28.724   7.364  47.187  1.00  0.00     0.012 A 
ENDBRANCH  24  26
ENDBRANCH  18  20
ENDBRANCH   9  18
TORSDOF 3
ENDMDL
MODEL 2
REMARK VINA RESULT:     -10.1      4.058      8.146
REMARK  3 active torsions:
REMARK  status: ('A' for Active; 'I' for Inactive)
REMARK    1  A    between atoms: C8_9  and  N2_10 
REMARK    2  A    between atoms: N2_10  and  C9_11 
REMARK    3  A    between atoms: C13_15  and  C14_16 
ROOT
HETATM    1  C1  UNL     1      20.312   7.656  49.747  1.00  0.00    -0.022 C 
HETATM    2  C2  UNL     1      21.240   8.602  49.423  1.00  0.00    -0.026 C 
HETATM    3  C3  UNL     1      22.507   7.929  49.068  1.00  0.00     0.053 C 
HETATM    4  C4  UNL     1      23.584   8.382  50.015  1.00  0.00    -0.025 C 
HETATM    5  C5  UNL     1      24.193   7.522  50.858  1.00  0.00    -0.011 C 
HETATM    6  C6  UNL     1      23.920   6.071  50.999  1.00  0.00     0.146 C 
HETATM    7  N1  UNL     1      25.033   5.210  50.724  1.00  0.00    -0.392 N 
HETATM    8  C7  UNL     1      24.567   3.852  50.894  1.00  0.00     0.134 C 
HETATM    9  C8  UNL     1      23.549   3.100  51.355  1.00  0.00     0.143 C 
HETATM   10  N3  UNL     1      22.543   3.906  51.874  1.00  0.00    -0.231 NA
HETATM   11  C21 UNL     1      21.331   3.691  52.122  1.00  0.00     0.172 C 
HETATM   12  N4  UNL     1      19.988   3.377  52.373  1.00  0.00    -0.273 NA
HETATM   13  C22 UNL     1      19.093   3.677  51.494  1.00  0.00     0.396 C 
HETATM   14  O1  UNL     1      19.152   4.289  50.245  1.00  0.00    -0.364 OA
HETATM   15  C23 UNL     1      20.261   5.055  49.864  1.00  0.00     0.110 C 
HETATM   16  C24 UNL     1      19.799   6.316  49.959  1.00  0.00     0.109 C 
HETATM   17  H9  UNL     1      26.026   5.213  50.455  1.00  0.00     0.159 HD
ENDROOT
BRANCH   9  18
HETATM   18  N2  UNL     1      23.228   1.693  51.453  1.00  0.00    -0.340 N 
HETATM   19  H11 UNL     1      22.505   1.379  50.765  1.00  0.00     0.167 HD
BRANCH  18  20
HETATM   20  C9  UNL     1      23.837   0.818  52.393  1.00  0.00     0.034 A 
HETATM   21  C10 UNL     1      23.101   0.116  53.347  1.00  0.00     0.029 A 
HETATM   22  C11 UNL     1      23.685  -0.736  54.267  1.00  0.00     0.003 A 
HETATM   23  C12 UNL     1      25.049  -0.900  54.244  1.00  0.00     0.012 A 
HETATM   24  C13 UNL     1      25.830  -0.229  53.320  1.00  0.00    -0.024 A 
HETATM   25  C20 UNL     1      25.196   0.607  52.428  1.00  0.00     0.041 A 
BRANCH  24  26
HETATM   26  C14 UNL     1      27.262  -0.466  53.377  1.00  0.00    -0.026 A 
HETATM   27  C15 UNL     1      28.076   0.591  53.720  1.00  0.00     0.012 A 
HETATM   28  C16 UNL     1      29.446   0.490  53.807  1.00  0.00     0.001 A 
HETATM   29  C17 UNL     1      30.071  -0.701  53.547  1.00  0.00     0.000 A 
HETATM   30  C18 UNL     1      29.253  -1.756  53.204  1.00  0.00     0.001 A 
HETATM   31  C19 UNL     1      27.878  -1.673  53.112  1.00  0.00     0.012 A 
ENDBRANCH  24  26
ENDBRANCH  18  20
ENDBRANCH   9  18
TORSDOF 3
ENDMDL
MODEL 3
REMARK VINA RESULT:      -9.9      3.877      7.534
REMARK  3 active torsions:
REMARK  status: ('A' for Active; 'I' for Inactive)
REMARK    1  A    between atoms: C8_9  and  N2_10 
REMARK    2  A    between atoms: N2_10  and  C9_11 
REMARK    3  A    between atoms: C13_15  and  C14_16 
ROOT
HETATM    1  C1  UNL     1      19.652   2.968  47.720  1.00  0.00    -0.022 C 
HETATM    2  C2  UNL     1      20.125   3.495  46.555  1.00  0.00    -0.026 C 
HETATM    3  C3  UNL     1      21.599   3.569  46.626  1.00  0.00     0.053 C 
HETATM    4  C4  UNL     1      22.025   5.004  46.486  1.00  0.00    -0.025 C 
HETATM    5  C5  UNL     1      22.657   5.656  47.484  1.00  0.00    -0.011 C 
HETATM    6  C6  UNL     1      23.015   5.110  48.816  1.00  0.00     0.146 C 
HETATM    7  N1  UNL     1      24.415   5.106  49.120  1.00  0.00    -0.392 N 
HETATM    8  C7  UNL     1      24.559   4.526  50.436  1.00  0.00     0.134 C 
HETATM    9  C8  UNL     1      23.884   4.137  51.535  1.00  0.00     0.143 C 
HETATM   10  N3  UNL     1      22.523   4.367  51.377  1.00  0.00    -0.231 NA
HETATM   11  C21 UNL     1      21.513   3.910  51.969  1.00  0.00     0.172 C 
HETATM   12  N4  UNL     1      20.436   3.358  52.675  1.00  0.00    -0.273 NA
HETATM   13  C22 UNL     1      19.816   2.338  52.187  1.00  0.00     0.396 C 
HETATM   14  O1  UNL     1      19.982   1.588  51.025  1.00  0.00    -0.364 OA
HETATM   15  C23 UNL     1      20.704   2.090  49.935  1.00  0.00     0.110 C 
HETATM   16  C24 UNL     1      19.735   2.406  49.055  1.00  0.00     0.109 C 
HETATM   17  H9  UNL     1      25.338   5.364  48.744  1.00  0.00     0.159 HD
ENDROOT
BRANCH   9  18
HETATM   18  N2  UNL     1      24.194   3.550  52.820  1.00  0.00    -0.340 N 
HETATM   19  H11 UNL     1      24.208   4.243  53.605  1.00  0.00     0.167 HD
BRANCH  18  20
HETATM   20  C9  UNL     1      24.456   2.165  53.002  1.00  0.00     0.034 A 
HETATM   21  C10 UNL     1      23.437   1.223  53.135  1.00  0.00     0.029 A 
HETATM   22  C11 UNL     1      23.682  -0.126  53.315  1.00  0.00     0.003 A 
HETATM   23  C12 UNL     1      24.985  -0.561  53.365  1.00  0.00     0.012 A 
HETATM   24  C13 UNL     1      26.036   0.329  53.240  1.00  0.00    -0.024 A 
HETATM   25  C20 UNL     1      25.735   1.661  53.063  1.00  0.00     0.041 A 
BRANCH  24  26
HETATM   26  C14 UNL     1      27.377  -0.227  53.309  1.00  0.00    -0.026 A 
HETATM   27  C15 UNL     1      28.407   0.620  53.653  1.00  0.00     0.012 A 
HETATM   28  C16 UNL     1      29.718   0.211  53.751  1.00  0.00     0.001 A 
HETATM   29  C17 UNL     1      30.058  -1.092  53.503  1.00  0.00     0.000 A 
HETATM   30  C18 UNL     1      29.024  -1.937  53.159  1.00  0.00     0.001 A 
HETATM   31  C19 UNL     1      27.705  -1.544  53.055  1.00  0.00     0.012 A 
ENDBRANCH  24  26
ENDBRANCH  18  20
ENDBRANCH   9  18
TORSDOF 3
ENDMDL
MODEL 4
REMARK VINA RESULT:      -9.9      2.889      8.493
REMARK  3 active torsions:
REMARK  status: ('A' for Active; 'I' for Inactive)
REMARK    1  A    between atoms: C8_9  and  N2_10 
REMARK    2  A    between atoms: N2_10  and  C9_11 
REMARK    3  A    between atoms: C13_15  and  C14_16 
ROOT
HETATM    1  C1  UNL     1      24.099   9.024  48.138  1.00  0.00    -0.022 C 
HETATM    2  C2  UNL     1      25.250   9.314  47.467  1.00  0.00    -0.026 C 
HETATM    3  C3  UNL     1      25.893   8.051  47.051  1.00  0.00     0.053 C 
HETATM    4  C4  UNL     1      27.256   7.966  47.681  1.00  0.00    -0.025 C 
HETATM    5  C5  UNL     1      27.566   7.000  48.571  1.00  0.00    -0.011 C 
HETATM    6  C6  UNL     1      26.672   5.922  49.061  1.00  0.00     0.146 C 
HETATM    7  N1  UNL     1      27.117   4.587  48.789  1.00  0.00    -0.392 N 
HETATM    8  C7  UNL     1      26.114   3.692  49.322  1.00  0.00     0.134 C 
HETATM    9  C8  UNL     1      25.016   3.626  50.099  1.00  0.00     0.143 C 
HETATM   10  N3  UNL     1      24.697   4.882  50.600  1.00  0.00    -0.231 NA
HETATM   11  C21 UNL     1      23.641   5.354  51.091  1.00  0.00     0.172 C 
HETATM   12  N4  UNL     1      22.430   5.809  51.629  1.00  0.00    -0.273 NA
HETATM   13  C22 UNL     1      21.601   6.445  50.873  1.00  0.00     0.396 C 
HETATM   14  O1  UNL     1      21.626   6.815  49.531  1.00  0.00    -0.364 OA
HETATM   15  C23 UNL     1      22.828   6.853  48.812  1.00  0.00     0.110 C 
HETATM   16  C24 UNL     1      23.075   8.173  48.715  1.00  0.00     0.109 C 
HETATM   17  H9  UNL     1      27.880   4.048  48.360  1.00  0.00     0.159 HD
ENDROOT
BRANCH   9  18
HETATM   18  N2  UNL     1      24.092   2.607  50.547  1.00  0.00    -0.340 N 
HETATM   19  H11 UNL     1      23.173   2.626  50.047  1.00  0.00     0.167 HD
BRANCH  18  20
HETATM   20  C9  UNL     1      24.401   1.670  51.569  1.00  0.00     0.034 A 
HETATM   21  C10 UNL     1      23.424   1.116  52.396  1.00  0.00     0.029 A 
HETATM   22  C11 UNL     1      23.716   0.204  53.395  1.00  0.00     0.003 A 
HETATM   23  C12 UNL     1      25.023  -0.174  53.583  1.00  0.00     0.012 A 
HETATM   24  C13 UNL     1      26.034   0.342  52.793  1.00  0.00    -0.024 A 
HETATM   25  C20 UNL     1      25.687   1.247  51.814  1.00  0.00     0.041 A 
BRANCH  24  26
HETATM   26  C14 UNL     1      27.384  -0.117  53.071  1.00  0.00    -0.026 A 
HETATM   27  C15 UNL     1      27.649  -1.461  52.929  1.00  0.00     0.012 A 
HETATM   28  C16 UNL     1      28.887  -2.015  53.163  1.00  0.00     0.001 A 
HETATM   29  C17 UNL     1      29.934  -1.227  53.559  1.00  0.00     0.000 A 
HETATM   30  C18 UNL     1      29.666   0.118  53.701  1.00  0.00     0.001 A 
HETATM   31  C19 UNL     1      28.431   0.690  53.471  1.00  0.00     0.012 A 
ENDBRANCH  24  26
ENDBRANCH  18  20
ENDBRANCH   9  18
TORSDOF 3
ENDMDL
MODEL 5
REMARK VINA RESULT:      -9.7      3.674      8.442
REMARK  3 active torsions:
REMARK  status: ('A' for Active; 'I' for Inactive)
REMARK    1  A    between atoms: C8_9  and  N2_10 
REMARK    2  A    between atoms: N2_10  and  C9_11 
REMARK    3  A    between atoms: C13_15  and  C14_16 
ROOT
HETATM    1  C1  UNL     1      22.880   6.188  47.033  1.00  0.00    -0.022 C 
HETATM    2  C2  UNL     1      23.765   7.163  47.388  1.00  0.00    -0.026 C 
HETATM    3  C3  UNL     1      24.515   6.719  48.581  1.00  0.00     0.053 C 
HETATM    4  C4  UNL     1      24.265   7.687  49.705  1.00  0.00    -0.025 C 
HETATM    5  C5  UNL     1      23.639   7.309  50.839  1.00  0.00    -0.011 C 
HETATM    6  C6  UNL     1      23.111   5.960  51.156  1.00  0.00     0.146 C 
HETATM    7  N1  UNL     1      23.685   5.334  52.310  1.00  0.00    -0.392 N 
HETATM    8  C7  UNL     1      23.062   4.035  52.439  1.00  0.00     0.134 C 
HETATM    9  C8  UNL     1      22.054   3.261  51.991  1.00  0.00     0.143 C 
HETATM   10  N3  UNL     1      21.305   3.941  51.038  1.00  0.00    -0.231 NA
HETATM   11  C21 UNL     1      20.500   3.547  50.158  1.00  0.00     0.172 C 
HETATM   12  N4  UNL     1      19.614   3.034  49.201  1.00  0.00    -0.273 NA
HETATM   13  C22 UNL     1      20.034   2.821  48.000  1.00  0.00     0.396 C 
HETATM   14  O1  UNL     1      21.267   2.992  47.377  1.00  0.00    -0.364 OA
HETATM   15  C23 UNL     1      22.249   3.826  47.928  1.00  0.00     0.110 C 
HETATM   16  C24 UNL     1      22.203   4.909  47.131  1.00  0.00     0.109 C 
HETATM   17  H9  UNL     1      24.368   5.475  53.066  1.00  0.00     0.159 HD
ENDROOT
BRANCH   9  18
HETATM   18  N2  UNL     1      21.550   1.928  52.235  1.00  0.00    -0.340 N 
HETATM   19  H11 UNL     1      20.639   1.731  51.760  1.00  0.00     0.167 HD
BRANCH  18  20
HETATM   20  C9  UNL     1      22.227   0.975  53.043  1.00  0.00     0.034 A 
HETATM   21  C10 UNL     1      21.558   0.156  53.952  1.00  0.00     0.029 A 
HETATM   22  C11 UNL     1      22.209  -0.773  54.744  1.00  0.00     0.003 A 
HETATM   23  C12 UNL     1      23.573  -0.898  54.633  1.00  0.00     0.012 A 
HETATM   24  C13 UNL     1      24.288  -0.112  53.748  1.00  0.00    -0.024 A 
HETATM   25  C20 UNL     1      23.590   0.797  52.985  1.00  0.00     0.041 A 
BRANCH  24  26
HETATM   26  C14 UNL     1      25.726  -0.315  53.705  1.00  0.00    -0.026 A 
HETATM   27  C15 UNL     1      26.493   0.304  54.667  1.00  0.00     0.012 A 
HETATM   28  C16 UNL     1      27.863   0.188  54.730  1.00  0.00     0.001 A 
HETATM   29  C17 UNL     1      28.536  -0.572  53.811  1.00  0.00     0.000 A 
HETATM   30  C18 UNL     1      27.766  -1.192  52.850  1.00  0.00     0.001 A 
HETATM   31  C19 UNL     1      26.391  -1.085  52.771  1.00  0.00     0.012 A 
ENDBRANCH  24  26
ENDBRANCH  18  20
ENDBRANCH   9  18
TORSDOF 3
ENDMDL
MODEL 6
REMARK VINA RESULT:      -9.6      2.914      7.887
REMARK  3 active torsions:
REMARK  status: ('A' for Active; 'I' for Inactive)
REMARK    1  A    between atoms: C8_9  and  N2_10 
REMARK    2  A    between atoms: N2_10  and  C9_11 
REMARK    3  A    between atoms: C13_15  and  C14_16 
ROOT
HETATM    1  C1  UNL     1      23.851   7.794  47.197  1.00  0.00    -0.022 C 
HETATM    2  C2  UNL     1      22.595   8.306  47.060  1.00  0.00    -0.026 C 
HETATM    3  C3  UNL     1      21.900   8.226  48.361  1.00  0.00     0.053 C 
HETATM    4  C4  UNL     1      20.674   7.368  48.208  1.00  0.00    -0.025 C 
HETATM    5  C5  UNL     1      20.539   6.200  48.871  1.00  0.00    -0.011 C 
HETATM    6  C6  UNL     1      21.517   5.589  49.803  1.00  0.00     0.146 C 
HETATM    7  N1  UNL     1      21.045   5.387  51.140  1.00  0.00    -0.392 N 
HETATM    8  C7  UNL     1      22.137   4.807  51.890  1.00  0.00     0.134 C 
HETATM    9  C8  UNL     1      23.358   4.248  51.780  1.00  0.00     0.143 C 
HETATM   10  N3  UNL     1      23.749   4.190  50.448  1.00  0.00    -0.231 NA
HETATM   11  C21 UNL     1      24.871   4.046  49.902  1.00  0.00     0.172 C 
HETATM   12  N4  UNL     1      26.154   3.881  49.365  1.00  0.00    -0.273 NA
HETATM   13  C22 UNL     1      26.827   4.921  49.003  1.00  0.00     0.396 C 
HETATM   14  O1  UNL     1      26.556   6.287  49.025  1.00  0.00    -0.364 OA
HETATM   15  C23 UNL     1      25.245   6.764  49.141  1.00  0.00     0.110 C 
HETATM   16  C24 UNL     1      24.970   7.187  47.893  1.00  0.00     0.109 C 
HETATM   17  H9  UNL     1      20.222   5.504  51.747  1.00  0.00     0.159 HD
ENDROOT
BRANCH   9  18
HETATM   18  N2  UNL     1      24.357   3.698  52.669  1.00  0.00    -0.340 N 
HETATM   19  H11 UNL     1      24.937   4.425  53.149  1.00  0.00     0.167 HD
BRANCH  18  20
HETATM   20  C9  UNL     1      24.536   2.303  52.873  1.00  0.00     0.034 A 
HETATM   21  C10 UNL     1      23.463   1.424  53.015  1.00  0.00     0.029 A 
HETATM   22  C11 UNL     1      23.628   0.066  53.217  1.00  0.00     0.003 A 
HETATM   23  C12 UNL     1      24.902  -0.444  53.279  1.00  0.00     0.012 A 
HETATM   24  C13 UNL     1      26.005   0.381  53.145  1.00  0.00    -0.024 A 
HETATM   25  C20 UNL     1      25.783   1.725  52.947  1.00  0.00     0.041 A 
BRANCH  24  26
HETATM   26  C14 UNL     1      27.310  -0.251  53.229  1.00  0.00    -0.026 A 
HETATM   27  C15 UNL     1      28.385   0.535  53.581  1.00  0.00     0.012 A 
HETATM   28  C16 UNL     1      29.669   0.051  53.693  1.00  0.00     0.001 A 
HETATM   29  C17 UNL     1      29.934  -1.270  53.450  1.00  0.00     0.000 A 
HETATM   30  C18 UNL     1      28.857  -2.054  53.098  1.00  0.00     0.001 A 
HETATM   31  C19 UNL     1      27.563  -1.586  52.981  1.00  0.00     0.012 A 
ENDBRANCH  24  26
ENDBRANCH  18  20
ENDBRANCH   9  18
TORSDOF 3
ENDMDL
MODEL 7
REMARK VINA RESULT:      -9.6      2.767      9.163
REMARK  3 active torsions:
REMARK  status: ('A' for Active; 'I' for Inactive)
REMARK    1  A    between atoms: C8_9  and  N2_10 
REMARK    2  A    between atoms: N2_10  and  C9_11 
REMARK    3  A    between atoms: C13_15  and  C14_16 
ROOT
HETATM    1  C1  UNL     1      25.989   8.482  46.079  1.00  0.00    -0.022 C 
HETATM    2  C2  UNL     1      24.746   8.838  45.646  1.00  0.00    -0.026 C 
HETATM    3  C3  UNL     1      23.766   8.554  46.715  1.00  0.00     0.053 C 
HETATM    4  C4  UNL     1      22.758   7.563  46.204  1.00  0.00    -0.025 C 
HETATM    5  C5  UNL     1      22.635   6.334  46.746  1.00  0.00    -0.011 C 
HETATM    6  C6  UNL     1      23.427   5.774  47.868  1.00  0.00     0.146 C 
HETATM    7  N1  UNL     1      22.669   5.395  49.024  1.00  0.00    -0.392 N 
HETATM    8  C7  UNL     1      23.611   4.897  50.001  1.00  0.00     0.134 C 
HETATM    9  C8  UNL     1      24.889   4.512  50.185  1.00  0.00     0.143 C 
HETATM   10  N3  UNL     1      25.606   4.623  48.999  1.00  0.00    -0.231 NA
HETATM   11  C21 UNL     1      26.838   4.673  48.758  1.00  0.00     0.172 C 
HETATM   12  N4  UNL     1      28.225   4.723  48.566  1.00  0.00    -0.273 NA
HETATM   13  C22 UNL     1      28.806   5.868  48.446  1.00  0.00     0.396 C 
HETATM   14  O1  UNL     1      28.341   7.180  48.468  1.00  0.00    -0.364 OA
HETATM   15  C23 UNL     1      26.987   7.473  48.263  1.00  0.00     0.110 C 
HETATM   16  C24 UNL     1      26.974   7.966  47.010  1.00  0.00     0.109 C 
HETATM   17  H9  UNL     1      21.713   5.352  49.400  1.00  0.00     0.159 HD
ENDROOT
BRANCH   9  18
HETATM   18  N2  UNL     1      25.704   4.019  51.273  1.00  0.00    -0.340 N 
HETATM   19  H11 UNL     1      26.305   4.755  51.713  1.00  0.00     0.167 HD
BRANCH  18  20
HETATM   20  C9  UNL     1      25.690   2.666  51.707  1.00  0.00     0.034 A 
HETATM   21  C10 UNL     1      26.773   1.808  51.515  1.00  0.00     0.029 A 
HETATM   22  C11 UNL     1      26.768   0.489  51.931  1.00  0.00     0.003 A 
HETATM   23  C12 UNL     1      25.649  -0.001  52.561  1.00  0.00     0.012 A 
HETATM   24  C13 UNL     1      24.546   0.804  52.778  1.00  0.00    -0.024 A 
HETATM   25  C20 UNL     1      24.604   2.109  52.343  1.00  0.00     0.041 A 
BRANCH  24  26
HETATM   26  C14 UNL     1      23.411   0.193  53.450  1.00  0.00    -0.026 A 
HETATM   27  C15 UNL     1      22.156   0.692  53.177  1.00  0.00     0.012 A 
HETATM   28  C16 UNL     1      21.007   0.198  53.750  1.00  0.00     0.001 A 
HETATM   29  C17 UNL     1      21.069  -0.840  54.641  1.00  0.00     0.000 A 
HETATM   30  C18 UNL     1      22.325  -1.338  54.912  1.00  0.00     0.001 A 
HETATM   31  C19 UNL     1      23.488  -0.854  54.347  1.00  0.00     0.012 A 
ENDBRANCH  24  26
ENDBRANCH  18  20
ENDBRANCH   9  18
TORSDOF 3
ENDMDL
MODEL 8
REMARK VINA RESULT:      -9.4      2.867      9.795
REMARK  3 active torsions:
REMARK  status: ('A' for Active; 'I' for Inactive)
REMARK    1  A    between atoms: C8_9  and  N2_10 
REMARK    2  A    between atoms: N2_10  and  C9_11 
REMARK    3  A    between atoms: C13_15  and  C14_16 
ROOT
HETATM    1  C1  UNL     1      25.666   9.561  46.766  1.00  0.00    -0.022 C 
HETATM    2  C2  UNL     1      26.873   9.617  46.134  1.00  0.00    -0.026 C 
HETATM    3  C3  UNL     1      27.406   8.245  45.996  1.00  0.00     0.053 C 
HETATM    4  C4  UNL     1      28.720   8.156  46.722  1.00  0.00    -0.025 C 
HETATM    5  C5  UNL     1      28.885   7.347  47.790  1.00  0.00    -0.011 C 
HETATM    6  C6  UNL     1      27.864   6.464  48.403  1.00  0.00     0.146 C 
HETATM    7  N1  UNL     1      28.184   5.067  48.406  1.00  0.00    -0.392 N 
HETATM    8  C7  UNL     1      27.070   4.381  49.021  1.00  0.00     0.134 C 
HETATM    9  C8  UNL     1      25.933   4.559  49.721  1.00  0.00     0.143 C 
HETATM   10  N3  UNL     1      25.718   5.910  49.965  1.00  0.00    -0.231 NA
HETATM   11  C21 UNL     1      24.692   6.557  50.292  1.00  0.00     0.172 C 
HETATM   12  N4  UNL     1      23.508   7.211  50.656  1.00  0.00    -0.273 NA
HETATM   13  C22 UNL     1      22.786   7.769  49.744  1.00  0.00     0.396 C 
HETATM   14  O1  UNL     1      22.917   7.880  48.362  1.00  0.00    -0.364 OA
HETATM   15  C23 UNL     1      24.150   7.676  47.731  1.00  0.00     0.110 C 
HETATM   16  C24 UNL     1      24.535   8.927  47.416  1.00  0.00     0.109 C 
HETATM   17  H9  UNL     1      28.910   4.391  48.133  1.00  0.00     0.159 HD
ENDROOT
BRANCH   9  18
HETATM   18  N2  UNL     1      24.890   3.728  50.281  1.00  0.00    -0.340 N 
HETATM   19  H11 UNL     1      23.923   4.045  50.033  1.00  0.00     0.167 HD
BRANCH  18  20
HETATM   20  C9  UNL     1      25.150   2.590  51.091  1.00  0.00     0.034 A 
HETATM   21  C10 UNL     1      26.434   2.078  51.271  1.00  0.00     0.029 A 
HETATM   22  C11 UNL     1      26.697   0.969  52.055  1.00  0.00     0.003 A 
HETATM   23  C12 UNL     1      25.649   0.342  52.685  1.00  0.00     0.012 A 
HETATM   24  C13 UNL     1      24.354   0.805  52.542  1.00  0.00    -0.024 A 
HETATM   25  C20 UNL     1      24.150   1.912  51.749  1.00  0.00     0.041 A 
BRANCH  24  26
HETATM   26  C14 UNL     1      23.314   0.072  53.244  1.00  0.00    -0.026 A 
HETATM   27  C15 UNL     1      22.009   0.269  52.851  1.00  0.00     0.012 A 
HETATM   28  C16 UNL     1      20.939  -0.366  53.439  1.00  0.00     0.001 A 
HETATM   29  C17 UNL     1      21.138  -1.245  54.470  1.00  0.00     0.000 A 
HETATM   30  C18 UNL     1      22.445  -1.441  54.861  1.00  0.00     0.001 A 
HETATM   31  C19 UNL     1      23.530  -0.812  54.283  1.00  0.00     0.012 A 
ENDBRANCH  24  26
ENDBRANCH  18  20
ENDBRANCH   9  18
TORSDOF 3
ENDMDL
MODEL 9
REMARK VINA RESULT:      -9.2      3.266      8.113
REMARK  3 active torsions:
REMARK  status: ('A' for Active; 'I' for Inactive)
REMARK    1  A    between atoms: C8_9  and  N2_10 
REMARK    2  A    between atoms: N2_10  and  C9_11 
REMARK    3  A    between atoms: C13_15  and  C14_16 
ROOT
HETATM    1  C1  UNL     1      23.073   7.292  46.241  1.00  0.00    -0.022 C 
HETATM    2  C2  UNL     1      22.149   6.871  45.331  1.00  0.00    -0.026 C 
HETATM    3  C3  UNL     1      21.229   5.919  45.987  1.00  0.00     0.053 C 
HETATM    4  C4  UNL     1      21.313   4.593  45.283  1.00  0.00    -0.025 C 
HETATM    5  C5  UNL     1      21.764   3.486  45.908  1.00  0.00    -0.011 C 
HETATM    6  C6  UNL     1      22.235   3.387  47.311  1.00  0.00     0.146 C 
HETATM    7  N1  UNL     1      21.495   2.485  48.143  1.00  0.00    -0.392 N 
HETATM    8  C7  UNL     1      22.088   2.543  49.461  1.00  0.00     0.134 C 
HETATM    9  C8  UNL     1      23.149   2.994  50.158  1.00  0.00     0.143 C 
HETATM   10  N3  UNL     1      24.032   3.665  49.322  1.00  0.00    -0.231 NA
HETATM   11  C21 UNL     1      24.958   4.483  49.551  1.00  0.00     0.172 C 
HETATM   12  N4  UNL     1      25.974   5.389  49.884  1.00  0.00    -0.273 NA
HETATM   13  C22 UNL     1      25.736   6.655  49.829  1.00  0.00     0.396 C 
HETATM   14  O1  UNL     1      24.608   7.399  49.491  1.00  0.00    -0.364 OA
HETATM   15  C23 UNL     1      23.559   6.832  48.757  1.00  0.00     0.110 C 
HETATM   16  C24 UNL     1      23.725   7.369  47.534  1.00  0.00     0.109 C 
HETATM   17  H9  UNL     1      20.708   1.822  48.139  1.00  0.00     0.159 HD
ENDROOT
BRANCH   9  18
HETATM   18  N2  UNL     1      23.607   2.966  51.530  1.00  0.00    -0.340 N 
HETATM   19  H11 UNL     1      23.671   3.913  51.970  1.00  0.00     0.167 HD
BRANCH  18  20
HETATM   20  C9  UNL     1      23.939   1.766  52.216  1.00  0.00     0.034 A 
HETATM   21  C10 UNL     1      22.969   0.903  52.724  1.00  0.00     0.029 A 
HETATM   22  C11 UNL     1      23.282  -0.265  53.396  1.00  0.00     0.003 A 
HETATM   23  C12 UNL     1      24.605  -0.592  53.571  1.00  0.00     0.012 A 
HETATM   24  C13 UNL     1      25.610   0.226  53.089  1.00  0.00    -0.024 A 
HETATM   25  C20 UNL     1      25.241   1.377  52.429  1.00  0.00     0.041 A 
BRANCH  24  26
HETATM   26  C14 UNL     1      26.977  -0.204  53.326  1.00  0.00    -0.026 A 
HETATM   27  C15 UNL     1      27.371  -1.415  52.803  1.00  0.00     0.012 A 
HETATM   28  C16 UNL     1      28.638  -1.929  52.961  1.00  0.00     0.001 A 
HETATM   29  C17 UNL     1      29.584  -1.233  53.666  1.00  0.00     0.000 A 
HETATM   30  C18 UNL     1      29.187  -0.021  54.188  1.00  0.00     0.001 A 
HETATM   31  C19 UNL     1      27.921   0.509  54.040  1.00  0.00     0.012 A 
ENDBRANCH  24  26
ENDBRANCH  18  20
ENDBRANCH   9  18
TORSDOF 3
ENDMDL
