MODEL 1
REMARK VINA RESULT:      -9.5      0.000      0.000
REMARK  2 active torsions:
REMARK  status: ('A' for Active; 'I' for Inactive)
REMARK    1  A    between atoms: N1_4  and  C4_5 
REMARK    2  A    between atoms: C7_9  and  C8_10 
ROOT
HETATM    1  C1  UNL     1      27.684   5.500  48.422  1.00  0.00     0.070 C 
HETATM    2  C2  UNL     1      26.632   5.158  49.383  1.00  0.00     0.025 C 
HETATM    3  C3  UNL     1      26.435   3.908  49.765  1.00  0.00     0.140 C 
HETATM    4  N1  UNL     1      25.506   3.384  50.644  1.00  0.00    -0.147 N 
HETATM    5  C13 UNL     1      24.358   4.195  50.715  1.00  0.00     0.231 C 
HETATM    6  N5  UNL     1      23.336   3.889  49.924  1.00  0.00    -0.258 NA
HETATM    7  C14 UNL     1      22.268   4.908  50.196  1.00  0.00     0.100 C 
HETATM    8  C15 UNL     1      22.084   6.257  50.430  1.00  0.00     0.061 C 
HETATM    9  C16 UNL     1      22.912   7.467  50.536  1.00  0.00    -0.010 C 
HETATM   10  C17 UNL     1      24.116   8.108  50.500  1.00  0.00     0.071 C 
HETATM   11  C18 UNL     1      25.437   7.563  50.238  1.00  0.00     0.245 C 
HETATM   12  O1  UNL     1      26.606   8.004  50.296  1.00  0.00    -0.268 OA
HETATM   13  N6  UNL     1      26.006   6.343  49.804  1.00  0.00    -0.326 N 
HETATM   14  H16 UNL     1      25.128   5.956  49.442  1.00  0.00     0.169 HD
ENDROOT
BRANCH   4  15
HETATM   15  C4  UNL     1      25.402   2.265  51.460  1.00  0.00     0.734 A 
HETATM   16  N2  UNL     1      24.168   2.167  51.977  1.00  0.00    -0.074 NA
HETATM   17  C5  UNL     1      23.824   1.143  52.792  1.00  0.00     0.139 A 
HETATM   18  C6  UNL     1      24.793   0.200  53.074  1.00  0.00     0.053 A 
HETATM   19  C7  UNL     1      26.054   0.312  52.539  1.00  0.00     0.089 A 
HETATM   20  N4  UNL     1      26.326   1.364  51.732  1.00  0.00    -0.061 NA
BRANCH  19  21
HETATM   21  C8  UNL     1      27.127  -0.640  52.789  1.00  0.00     0.011 A 
HETATM   22  C9  UNL     1      28.357  -0.243  53.277  1.00  0.00     0.017 A 
HETATM   23  C10 UNL     1      29.396  -1.153  53.520  1.00  0.00     0.020 A 
HETATM   24  C11 UNL     1      29.180  -2.486  53.262  1.00  0.00     0.116 A 
HETATM   25  N3  UNL     1      27.968  -2.830  52.788  1.00  0.00    -0.272 NA
HETATM   26  C12 UNL     1      26.965  -1.992  52.548  1.00  0.00     0.130 A 
ENDBRANCH  19  21
ENDBRANCH   4  15
TORSDOF 2
ENDMDL
MODEL 2
REMARK VINA RESULT:      -9.4      1.738      3.308
REMARK  2 active torsions:
REMARK  status: ('A' for Active; 'I' for Inactive)
REMARK    1  A    between atoms: N1_4  and  C4_5 
REMARK    2  A    between atoms: C7_9  and  C8_10 
ROOT
HETATM    1  C1  UNL     1      27.541   5.287  48.523  1.00  0.00     0.070 C 
HETATM    2  C2  UNL     1      26.536   4.885  49.510  1.00  0.00     0.025 C 
HETATM    3  C3  UNL     1      26.421   3.626  49.896  1.00  0.00     0.140 C 
HETATM    4  N1  UNL     1      25.547   3.049  50.798  1.00  0.00    -0.147 N 
HETATM    5  C13 UNL     1      24.357   3.793  50.899  1.00  0.00     0.231 C 
HETATM    6  N5  UNL     1      23.334   3.428  50.135  1.00  0.00    -0.258 NA
HETATM    7  C14 UNL     1      22.216   4.383  50.435  1.00  0.00     0.100 C 
HETATM    8  C15 UNL     1      21.960   5.719  50.675  1.00  0.00     0.061 C 
HETATM    9  C16 UNL     1      22.719   6.975  50.761  1.00  0.00    -0.010 C 
HETATM   10  C17 UNL     1      23.882   7.685  50.694  1.00  0.00     0.071 C 
HETATM   11  C18 UNL     1      25.225   7.217  50.397  1.00  0.00     0.245 C 
HETATM   12  O1  UNL     1      26.369   7.726  50.426  1.00  0.00    -0.268 OA
HETATM   13  N6  UNL     1      25.853   6.032  49.948  1.00  0.00    -0.326 N 
HETATM   14  H16 UNL     1      24.990   5.595  49.608  1.00  0.00     0.169 HD
ENDROOT
BRANCH   4  15
HETATM   15  C4  UNL     1      25.530   1.927  51.616  1.00  0.00     0.734 A 
HETATM   16  N2  UNL     1      26.774   1.472  51.824  1.00  0.00    -0.074 NA
HETATM   17  C5  UNL     1      27.009   0.393  52.607  1.00  0.00     0.139 A 
HETATM   18  C6  UNL     1      25.917  -0.224  53.186  1.00  0.00     0.053 A 
HETATM   19  C7  UNL     1      24.646   0.252  52.964  1.00  0.00     0.089 A 
HETATM   20  N4  UNL     1      24.489   1.336  52.168  1.00  0.00    -0.061 NA
BRANCH  19  21
HETATM   21  C8  UNL     1      23.448  -0.343  53.537  1.00  0.00     0.011 A 
HETATM   22  C9  UNL     1      22.209  -0.213  52.938  1.00  0.00     0.017 A 
HETATM   23  C10 UNL     1      21.049  -0.781  53.483  1.00  0.00     0.020 A 
HETATM   24  C11 UNL     1      21.151  -1.492  54.655  1.00  0.00     0.116 A 
HETATM   25  N3  UNL     1      22.375  -1.596  55.205  1.00  0.00    -0.272 NA
HETATM   26  C12 UNL     1      23.491  -1.068  54.713  1.00  0.00     0.130 A 
ENDBRANCH  19  21
ENDBRANCH   4  15
TORSDOF 2
ENDMDL
MODEL 3
REMARK VINA RESULT:      -8.6      1.450      1.985
REMARK  2 active torsions:
REMARK  status: ('A' for Active; 'I' for Inactive)
REMARK    1  A    between atoms: N1_4  and  C4_5 
REMARK    2  A    between atoms: C7_9  and  C8_10 
ROOT
HETATM    1  C1  UNL     1      25.827   5.585  49.210  1.00  0.00     0.070 C 
HETATM    2  C2  UNL     1      24.838   4.764  49.912  1.00  0.00     0.025 C 
HETATM    3  C3  UNL     1      25.132   3.542  50.324  1.00  0.00     0.140 C 
HETATM    4  N1  UNL     1      24.350   2.617  50.990  1.00  0.00    -0.147 N 
HETATM    5  C13 UNL     1      22.983   2.822  50.725  1.00  0.00     0.231 C 
HETATM    6  N5  UNL     1      22.435   2.126  49.736  1.00  0.00    -0.258 NA
HETATM    7  C14 UNL     1      20.994   2.543  49.670  1.00  0.00     0.100 C 
HETATM    8  C15 UNL     1      20.177   3.653  49.756  1.00  0.00     0.061 C 
HETATM    9  C16 UNL     1      20.323   5.099  49.971  1.00  0.00    -0.010 C 
HETATM   10  C17 UNL     1      21.082   6.214  50.178  1.00  0.00     0.071 C 
HETATM   11  C18 UNL     1      22.526   6.333  50.280  1.00  0.00     0.245 C 
HETATM   12  O1  UNL     1      23.322   7.250  50.586  1.00  0.00    -0.268 OA
HETATM   13  N6  UNL     1      23.667   5.520  50.084  1.00  0.00    -0.326 N 
HETATM   14  H16 UNL     1      23.174   4.797  49.551  1.00  0.00     0.169 HD
ENDROOT
BRANCH   4  15
HETATM   15  C4  UNL     1      24.558   1.536  51.835  1.00  0.00     0.734 A 
HETATM   16  N2  UNL     1      23.430   1.218  52.487  1.00  0.00    -0.074 NA
HETATM   17  C5  UNL     1      23.385   0.181  53.355  1.00  0.00     0.139 A 
HETATM   18  C6  UNL     1      24.547  -0.539  53.548  1.00  0.00     0.053 A 
HETATM   19  C7  UNL     1      25.698  -0.203  52.876  1.00  0.00     0.089 A 
HETATM   20  N4  UNL     1      25.667   0.848  52.022  1.00  0.00    -0.061 NA
BRANCH  19  21
HETATM   21  C8  UNL     1      26.960  -0.913  53.025  1.00  0.00     0.011 A 
HETATM   22  C9  UNL     1      28.075  -0.312  53.578  1.00  0.00     0.017 A 
HETATM   23  C10 UNL     1      29.295  -0.987  53.726  1.00  0.00     0.020 A 
HETATM   24  C11 UNL     1      29.381  -2.293  53.304  1.00  0.00     0.116 A 
HETATM   25  N3  UNL     1      28.273  -2.840  52.773  1.00  0.00    -0.272 NA
HETATM   26  C12 UNL     1      27.104  -2.226  52.620  1.00  0.00     0.130 A 
ENDBRANCH  19  21
ENDBRANCH   4  15
TORSDOF 2
ENDMDL
MODEL 4
REMARK VINA RESULT:      -8.5      2.691      3.761
REMARK  2 active torsions:
REMARK  status: ('A' for Active; 'I' for Inactive)
REMARK    1  A    between atoms: N1_4  and  C4_5 
REMARK    2  A    between atoms: C7_9  and  C8_10 
ROOT
HETATM    1  C1  UNL     1      19.749   2.697  48.457  1.00  0.00     0.070 C 
HETATM    2  C2  UNL     1      20.981   2.807  49.241  1.00  0.00     0.025 C 
HETATM    3  C3  UNL     1      21.181   2.056  50.311  1.00  0.00     0.140 C 
HETATM    4  N1  UNL     1      22.257   2.013  51.177  1.00  0.00    -0.147 N 
HETATM    5  C13 UNL     1      22.941   3.243  51.201  1.00  0.00     0.231 C 
HETATM    6  N5  UNL     1      22.604   4.117  52.142  1.00  0.00    -0.258 NA
HETATM    7  C14 UNL     1      23.472   5.324  51.931  1.00  0.00     0.100 C 
HETATM    8  C15 UNL     1      23.997   6.127  50.937  1.00  0.00     0.061 C 
HETATM    9  C16 UNL     1      23.964   6.206  49.470  1.00  0.00    -0.010 C 
HETATM   10  C17 UNL     1      23.547   5.760  48.249  1.00  0.00     0.071 C 
HETATM   11  C18 UNL     1      22.668   4.647  47.932  1.00  0.00     0.245 C 
HETATM   12  O1  UNL     1      22.313   4.068  46.881  1.00  0.00    -0.268 OA
HETATM   13  N6  UNL     1      21.827   3.739  48.618  1.00  0.00    -0.326 N 
HETATM   14  H16 UNL     1      21.799   4.281  49.489  1.00  0.00     0.169 HD
ENDROOT
BRANCH   4  15
HETATM   15  C4  UNL     1      22.829   1.083  52.035  1.00  0.00     0.734 A 
HETATM   16  N2  UNL     1      21.901   0.238  52.506  1.00  0.00    -0.074 NA
HETATM   17  C5  UNL     1      22.227  -0.769  53.350  1.00  0.00     0.139 A 
HETATM   18  C6  UNL     1      23.555  -0.894  53.711  1.00  0.00     0.053 A 
HETATM   19  C7  UNL     1      24.497  -0.019  53.222  1.00  0.00     0.089 A 
HETATM   20  N4  UNL     1      24.095   0.964  52.382  1.00  0.00    -0.061 NA
BRANCH  19  21
HETATM   21  C8  UNL     1      25.912  -0.086  53.555  1.00  0.00     0.011 A 
HETATM   22  C9  UNL     1      26.792  -0.885  52.850  1.00  0.00     0.017 A 
HETATM   23  C10 UNL     1      28.156  -0.956  53.164  1.00  0.00     0.020 A 
HETATM   24  C11 UNL     1      28.633  -0.202  54.211  1.00  0.00     0.116 A 
HETATM   25  N3  UNL     1      27.743   0.563  54.870  1.00  0.00    -0.272 NA
HETATM   26  C12 UNL     1      26.445   0.650  54.597  1.00  0.00     0.130 A 
ENDBRANCH  19  21
ENDBRANCH   4  15
TORSDOF 2
ENDMDL
MODEL 5
REMARK VINA RESULT:      -8.4      6.259     10.243
REMARK  2 active torsions:
REMARK  status: ('A' for Active; 'I' for Inactive)
REMARK    1  A    between atoms: N1_4  and  C4_5 
REMARK    2  A    between atoms: C7_9  and  C8_10 
ROOT
HETATM    1  C1  UNL     1      34.662   8.082  43.519  1.00  0.00     0.070 C 
HETATM    2  C2  UNL     1      33.971   7.383  44.606  1.00  0.00     0.025 C 
HETATM    3  C3  UNL     1      33.138   8.021  45.410  1.00  0.00     0.140 C 
HETATM    4  N1  UNL     1      32.404   7.552  46.482  1.00  0.00    -0.147 N 
HETATM    5  C13 UNL     1      33.016   6.426  47.065  1.00  0.00     0.231 C 
HETATM    6  N5  UNL     1      33.827   6.629  48.096  1.00  0.00    -0.258 NA
HETATM    7  C14 UNL     1      34.340   5.279  48.506  1.00  0.00     0.100 C 
HETATM    8  C15 UNL     1      34.795   4.083  47.986  1.00  0.00     0.061 C 
HETATM    9  C16 UNL     1      35.024   3.488  46.661  1.00  0.00    -0.010 C 
HETATM   10  C17 UNL     1      35.019   3.548  45.298  1.00  0.00     0.071 C 
HETATM   11  C18 UNL     1      34.644   4.652  44.431  1.00  0.00     0.245 C 
HETATM   12  O1  UNL     1      34.477   4.795  43.199  1.00  0.00    -0.268 OA
HETATM   13  N6  UNL     1      34.313   6.022  44.552  1.00  0.00    -0.326 N 
HETATM   14  H16 UNL     1      34.684   6.122  45.503  1.00  0.00     0.169 HD
ENDROOT
BRANCH   4  15
HETATM   15  C4  UNL     1      31.234   7.906  47.142  1.00  0.00     0.734 A 
HETATM   16  N2  UNL     1      31.200   9.227  47.371  1.00  0.00    -0.074 NA
HETATM   17  C5  UNL     1      30.144   9.809  47.987  1.00  0.00     0.139 A 
HETATM   18  C6  UNL     1      29.101   8.990  48.374  1.00  0.00     0.053 A 
HETATM   19  C7  UNL     1      29.149   7.637  48.135  1.00  0.00     0.089 A 
HETATM   20  N4  UNL     1      30.239   7.126  47.513  1.00  0.00    -0.061 NA
BRANCH  19  21
HETATM   21  C8  UNL     1      28.092   6.710  48.511  1.00  0.00     0.011 A 
HETATM   22  C9  UNL     1      28.268   5.340  48.462  1.00  0.00     0.017 A 
HETATM   23  C10 UNL     1      27.256   4.440  48.822  1.00  0.00     0.020 A 
HETATM   24  C11 UNL     1      26.045   4.942  49.239  1.00  0.00     0.116 A 
HETATM   25  N3  UNL     1      25.915   6.280  49.274  1.00  0.00    -0.272 NA
HETATM   26  C12 UNL     1      26.856   7.158  48.938  1.00  0.00     0.130 A 
ENDBRANCH  19  21
ENDBRANCH   4  15
TORSDOF 2
ENDMDL
MODEL 6
REMARK VINA RESULT:      -8.4      2.230      3.416
REMARK  2 active torsions:
REMARK  status: ('A' for Active; 'I' for Inactive)
REMARK    1  A    between atoms: N1_4  and  C4_5 
REMARK    2  A    between atoms: C7_9  and  C8_10 
ROOT
HETATM    1  C1  UNL     1      30.236   6.056  47.445  1.00  0.00     0.070 C 
HETATM    2  C2  UNL     1      29.002   6.200  48.221  1.00  0.00     0.025 C 
HETATM    3  C3  UNL     1      28.201   5.168  48.432  1.00  0.00     0.140 C 
HETATM    4  N1  UNL     1      27.006   5.098  49.122  1.00  0.00    -0.147 N 
HETATM    5  C13 UNL     1      26.354   6.345  49.138  1.00  0.00     0.231 C 
HETATM    6  N5  UNL     1      25.449   6.581  48.195  1.00  0.00    -0.258 NA
HETATM    7  C14 UNL     1      24.927   7.966  48.443  1.00  0.00     0.100 C 
HETATM    8  C15 UNL     1      25.336   9.236  48.802  1.00  0.00     0.061 C 
HETATM    9  C16 UNL     1      26.591   9.919  49.147  1.00  0.00    -0.010 C 
HETATM   10  C17 UNL     1      27.942   9.931  49.336  1.00  0.00     0.071 C 
HETATM   11  C18 UNL     1      28.898   8.847  49.182  1.00  0.00     0.245 C 
HETATM   12  O1  UNL     1      30.114   8.693  49.437  1.00  0.00    -0.268 OA
HETATM   13  N6  UNL     1      28.918   7.521  48.690  1.00  0.00    -0.326 N 
HETATM   14  H16 UNL     1      28.033   7.601  48.178  1.00  0.00     0.169 HD
ENDROOT
BRANCH   4  15
HETATM   15  C4  UNL     1      26.277   4.122  49.788  1.00  0.00     0.734 A 
HETATM   16  N2  UNL     1      25.021   4.067  49.321  1.00  0.00    -0.074 NA
HETATM   17  C5  UNL     1      24.126   3.176  49.807  1.00  0.00     0.139 A 
HETATM   18  C6  UNL     1      24.554   2.323  50.806  1.00  0.00     0.053 A 
HETATM   19  C7  UNL     1      25.844   2.390  51.277  1.00  0.00     0.089 A 
HETATM   20  N4  UNL     1      26.683   3.308  50.742  1.00  0.00    -0.061 NA
BRANCH  19  21
HETATM   21  C8  UNL     1      26.369   1.527  52.325  1.00  0.00     0.011 A 
HETATM   22  C9  UNL     1      26.702   0.207  52.086  1.00  0.00     0.017 A 
HETATM   23  C10 UNL     1      27.207  -0.632  53.089  1.00  0.00     0.020 A 
HETATM   24  C11 UNL     1      27.376  -0.120  54.354  1.00  0.00     0.116 A 
HETATM   25  N3  UNL     1      27.041   1.169  54.543  1.00  0.00    -0.272 NA
HETATM   26  C12 UNL     1      26.559   1.988  53.614  1.00  0.00     0.130 A 
ENDBRANCH  19  21
ENDBRANCH   4  15
TORSDOF 2
ENDMDL
MODEL 7
REMARK VINA RESULT:      -8.3      2.810      7.485
REMARK  2 active torsions:
REMARK  status: ('A' for Active; 'I' for Inactive)
REMARK    1  A    between atoms: N1_4  and  C4_5 
REMARK    2  A    between atoms: C7_9  and  C8_10 
ROOT
HETATM    1  C1  UNL     1      21.361   0.712  50.149  1.00  0.00     0.070 C 
HETATM    2  C2  UNL     1      22.498   1.390  50.777  1.00  0.00     0.025 C 
HETATM    3  C3  UNL     1      23.045   2.461  50.228  1.00  0.00     0.140 C 
HETATM    4  N1  UNL     1      24.111   3.232  50.652  1.00  0.00    -0.147 N 
HETATM    5  C13 UNL     1      24.993   2.482  51.453  1.00  0.00     0.231 C 
HETATM    6  N5  UNL     1      26.032   1.909  50.857  1.00  0.00    -0.258 NA
HETATM    7  C14 UNL     1      26.788   1.179  51.929  1.00  0.00     0.100 C 
HETATM    8  C15 UNL     1      26.601   0.390  53.048  1.00  0.00     0.061 C 
HETATM    9  C16 UNL     1      25.476  -0.172  53.809  1.00  0.00    -0.010 C 
HETATM   10  C17 UNL     1      24.142  -0.369  54.016  1.00  0.00     0.071 C 
HETATM   11  C18 UNL     1      23.014   0.103  53.231  1.00  0.00     0.245 C 
HETATM   12  O1  UNL     1      21.771   0.102  53.374  1.00  0.00    -0.268 OA
HETATM   13  N6  UNL     1      22.788   0.748  51.992  1.00  0.00    -0.326 N 
HETATM   14  H16 UNL     1      23.726   0.563  51.621  1.00  0.00     0.169 HD
ENDROOT
BRANCH   4  15
HETATM   15  C4  UNL     1      24.546   4.539  50.486  1.00  0.00     0.734 A 
HETATM   16  N2  UNL     1      23.850   5.375  51.271  1.00  0.00    -0.074 NA
HETATM   17  C5  UNL     1      24.110   6.703  51.293  1.00  0.00     0.139 A 
HETATM   18  C6  UNL     1      25.120   7.169  50.474  1.00  0.00     0.053 A 
HETATM   19  C7  UNL     1      25.825   6.302  49.672  1.00  0.00     0.089 A 
HETATM   20  N4  UNL     1      25.509   4.986  49.704  1.00  0.00    -0.061 NA
BRANCH  19  21
HETATM   21  C8  UNL     1      26.902   6.716  48.784  1.00  0.00     0.011 A 
HETATM   22  C9  UNL     1      27.983   5.898  48.516  1.00  0.00     0.017 A 
HETATM   23  C10 UNL     1      29.025   6.287  47.663  1.00  0.00     0.020 A 
HETATM   24  C11 UNL     1      28.965   7.528  47.074  1.00  0.00     0.116 A 
HETATM   25  N3  UNL     1      27.896   8.292  47.360  1.00  0.00    -0.272 NA
HETATM   26  C12 UNL     1      26.894   7.951  48.164  1.00  0.00     0.130 A 
ENDBRANCH  19  21
ENDBRANCH   4  15
TORSDOF 2
ENDMDL
MODEL 8
REMARK VINA RESULT:      -8.3      3.230      7.473
REMARK  2 active torsions:
REMARK  status: ('A' for Active; 'I' for Inactive)
REMARK    1  A    between atoms: N1_4  and  C4_5 
REMARK    2  A    between atoms: C7_9  and  C8_10 
ROOT
HETATM    1  C1  UNL     1      19.699   0.263  50.917  1.00  0.00     0.070 C 
HETATM    2  C2  UNL     1      20.877   0.869  51.540  1.00  0.00     0.025 C 
HETATM    3  C3  UNL     1      21.523   1.866  50.959  1.00  0.00     0.140 C 
HETATM    4  N1  UNL     1      22.642   2.561  51.375  1.00  0.00    -0.147 N 
HETATM    5  C13 UNL     1      23.444   1.775  52.224  1.00  0.00     0.231 C 
HETATM    6  N5  UNL     1      24.441   1.093  51.674  1.00  0.00    -0.258 NA
HETATM    7  C14 UNL     1      25.113   0.347  52.790  1.00  0.00     0.100 C 
HETATM    8  C15 UNL     1      24.840  -0.374  53.936  1.00  0.00     0.061 C 
HETATM    9  C16 UNL     1      23.659  -0.808  54.695  1.00  0.00    -0.010 C 
HETATM   10  C17 UNL     1      22.309  -0.883  54.882  1.00  0.00     0.071 C 
HETATM   11  C18 UNL     1      21.239  -0.352  54.055  1.00  0.00     0.245 C 
HETATM   12  O1  UNL     1      19.998  -0.243  54.172  1.00  0.00    -0.268 OA
HETATM   13  N6  UNL     1      21.091   0.257  52.786  1.00  0.00    -0.326 N 
HETATM   14  H16 UNL     1      22.016  -0.022  52.443  1.00  0.00     0.169 HD
ENDROOT
BRANCH   4  15
HETATM   15  C4  UNL     1      23.189   3.820  51.164  1.00  0.00     0.734 A 
HETATM   16  N2  UNL     1      22.449   4.766  51.762  1.00  0.00    -0.074 NA
HETATM   17  C5  UNL     1      22.797   6.072  51.709  1.00  0.00     0.139 A 
HETATM   18  C6  UNL     1      23.946   6.398  51.014  1.00  0.00     0.053 A 
HETATM   19  C7  UNL     1      24.695   5.420  50.405  1.00  0.00     0.089 A 
HETATM   20  N4  UNL     1      24.284   4.133  50.501  1.00  0.00    -0.061 NA
BRANCH  19  21
HETATM   21  C8  UNL     1      25.915   5.684  49.657  1.00  0.00     0.011 A 
HETATM   22  C9  UNL     1      26.743   4.665  49.225  1.00  0.00     0.017 A 
HETATM   23  C10 UNL     1      27.920   4.909  48.504  1.00  0.00     0.020 A 
HETATM   24  C11 UNL     1      28.261   6.210  48.219  1.00  0.00     0.116 A 
HETATM   25  N3  UNL     1      27.428   7.172  48.656  1.00  0.00    -0.272 NA
HETATM   26  C12 UNL     1      26.307   6.972  49.341  1.00  0.00     0.130 A 
ENDBRANCH  19  21
ENDBRANCH   4  15
TORSDOF 2
ENDMDL
MODEL 9
REMARK VINA RESULT:      -7.8      2.232      2.951
REMARK  2 active torsions:
REMARK  status: ('A' for Active; 'I' for Inactive)
REMARK    1  A    between atoms: N1_4  and  C4_5 
REMARK    2  A    between atoms: C7_9  and  C8_10 
ROOT
HETATM    1  C1  UNL     1      27.212   4.873  48.958  1.00  0.00     0.070 C 
HETATM    2  C2  UNL     1      25.828   4.788  49.432  1.00  0.00     0.025 C 
HETATM    3  C3  UNL     1      25.243   3.619  49.630  1.00  0.00     0.140 C 
HETATM    4  N1  UNL     1      23.963   3.328  50.063  1.00  0.00    -0.147 N 
HETATM    5  C13 UNL     1      23.072   4.372  49.752  1.00  0.00     0.231 C 
HETATM    6  N5  UNL     1      22.386   4.280  48.619  1.00  0.00    -0.258 NA
HETATM    7  C14 UNL     1      21.533   5.513  48.537  1.00  0.00     0.100 C 
HETATM    8  C15 UNL     1      21.562   6.874  48.772  1.00  0.00     0.061 C 
HETATM    9  C16 UNL     1      22.521   7.876  49.258  1.00  0.00    -0.010 C 
HETATM   10  C17 UNL     1      23.754   8.238  49.716  1.00  0.00     0.071 C 
HETATM   11  C18 UNL     1      24.930   7.413  49.931  1.00  0.00     0.245 C 
HETATM   12  O1  UNL     1      26.055   7.589  50.450  1.00  0.00    -0.268 OA
HETATM   13  N6  UNL     1      25.352   6.089  49.664  1.00  0.00    -0.326 N 
HETATM   14  H16 UNL     1      24.617   5.896  48.975  1.00  0.00     0.169 HD
ENDROOT
BRANCH   4  15
HETATM   15  C4  UNL     1      23.326   2.276  50.707  1.00  0.00     0.734 A 
HETATM   16  N2  UNL     1      22.179   1.964  50.087  1.00  0.00    -0.074 NA
HETATM   17  C5  UNL     1      21.392   0.954  50.525  1.00  0.00     0.139 A 
HETATM   18  C6  UNL     1      21.814   0.254  51.638  1.00  0.00     0.053 A 
HETATM   19  C7  UNL     1      22.992   0.584  52.267  1.00  0.00     0.089 A 
HETATM   20  N4  UNL     1      23.727   1.608  51.770  1.00  0.00    -0.061 NA
BRANCH  19  21
HETATM   21  C8  UNL     1      23.502  -0.105  53.443  1.00  0.00     0.011 A 
HETATM   22  C9  UNL     1      22.667  -0.775  54.317  1.00  0.00     0.017 A 
HETATM   23  C10 UNL     1      23.150  -1.440  55.452  1.00  0.00     0.020 A 
HETATM   24  C11 UNL     1      24.502  -1.424  55.702  1.00  0.00     0.116 A 
HETATM   25  N3  UNL     1      25.279  -0.762  54.826  1.00  0.00    -0.272 NA
HETATM   26  C12 UNL     1      24.852  -0.121  53.742  1.00  0.00     0.130 A 
ENDBRANCH  19  21
ENDBRANCH   4  15
TORSDOF 2
ENDMDL
