MODEL 1
REMARK VINA RESULT:      -7.7      0.000      0.000
REMARK  6 active torsions:
REMARK  status: ('A' for Active; 'I' for Inactive)
REMARK    1  A    between atoms: O1_2  and  C2_3 
REMARK    2  A    between atoms: C6_8  and  C7_9 
REMARK    3  A    between atoms: C7_9  and  O2_10 
REMARK    4  A    between atoms: O2_10  and  O3_11 
REMARK    5  A    between atoms: O3_11  and  O4_12 
REMARK    6  A    between atoms: C8_13  and  N2_14 
ROOT
HETATM    1  C2  UNL     1      21.108   0.088  52.816  1.00  0.00     0.076 A 
HETATM    2  C3  UNL     1      21.305   1.081  51.881  1.00  0.00     0.069 A 
HETATM    3  C4  UNL     1      22.573   1.525  51.576  1.00  0.00     0.071 A 
HETATM    4  N1  UNL     1      22.740   2.504  50.649  1.00  0.00    -0.260 NA
HETATM    5  C5  UNL     1      23.990   2.917  50.371  1.00  0.00     0.129 A 
HETATM    6  C6  UNL     1      25.113   2.400  50.978  1.00  0.00     0.014 A 
HETATM    7  C8  UNL     1      25.006   1.407  51.926  1.00  0.00     0.057 A 
HETATM    8  C14 UNL     1      23.697   0.993  52.198  1.00  0.00     0.021 A 
HETATM    9  C15 UNL     1      23.483  -0.011  53.144  1.00  0.00     0.025 A 
HETATM   10  C16 UNL     1      22.209  -0.470  53.461  1.00  0.00    -0.028 A 
HETATM   11  C17 UNL     1      22.000  -1.549  54.478  1.00  0.00     0.051 C 
ENDROOT
BRANCH   7  12
HETATM   12  N2  UNL     1      26.040   0.764  52.648  1.00  0.00    -0.350 N 
HETATM   13  C9  UNL     1      26.319   1.470  53.870  1.00  0.00     0.091 A 
HETATM   14  C10 UNL     1      27.242   1.087  54.713  1.00  0.00     0.019 A 
HETATM   15  C11 UNL     1      28.054  -0.092  54.465  1.00  0.00     0.022 A 
HETATM   16  C12 UNL     1      27.770  -0.718  53.334  1.00  0.00     0.030 A 
HETATM   17 CL1  UNL     1      28.711  -2.166  52.949  1.00  0.00    -0.087 Cl
HETATM   18  C13 UNL     1      26.761  -0.417  52.288  1.00  0.00     0.179 A 
ENDBRANCH   7  12
BRANCH   6  19
HETATM   19  C7  UNL     1      26.466   2.871  50.653  1.00  0.00     0.255 C 
BRANCH  19  20
HETATM   20  O2  UNL     1      26.558   3.215  49.303  1.00  0.00    -0.206 OA
BRANCH  20  21
HETATM   21  O3  UNL     1      27.490   4.141  49.143  1.00  0.00    -0.069 OA
BRANCH  21  22
HETATM   22  O4  UNL     1      27.059   5.261  49.639  1.00  0.00    -0.220 OA
HETATM   23  H8  UNL     1      26.272   5.648  49.224  1.00  0.00     0.256 HD
ENDBRANCH  21  22
ENDBRANCH  20  21
ENDBRANCH  19  20
ENDBRANCH   6  19
BRANCH   1  24
HETATM   24  O1  UNL     1      19.866  -0.400  53.165  1.00  0.00    -0.355 OA
HETATM   25  C1  UNL     1      18.804  -0.202  52.243  1.00  0.00     0.210 C 
ENDBRANCH   1  24
TORSDOF 6
ENDMDL
MODEL 2
REMARK VINA RESULT:      -7.7      2.024      5.405
REMARK  6 active torsions:
REMARK  status: ('A' for Active; 'I' for Inactive)
REMARK    1  A    between atoms: O1_2  and  C2_3 
REMARK    2  A    between atoms: C6_8  and  C7_9 
REMARK    3  A    between atoms: C7_9  and  O2_10 
REMARK    4  A    between atoms: O2_10  and  O3_11 
REMARK    5  A    between atoms: O3_11  and  O4_12 
REMARK    6  A    between atoms: C8_13  and  N2_14 
ROOT
HETATM    1  C2  UNL     1      24.290   3.900  49.568  1.00  0.00     0.076 A 
HETATM    2  C3  UNL     1      23.146   3.376  50.130  1.00  0.00     0.069 A 
HETATM    3  C4  UNL     1      23.216   2.414  51.113  1.00  0.00     0.071 A 
HETATM    4  N1  UNL     1      22.073   1.915  51.651  1.00  0.00    -0.260 NA
HETATM    5  C5  UNL     1      22.174   0.977  52.611  1.00  0.00     0.129 A 
HETATM    6  C6  UNL     1      23.375   0.493  53.078  1.00  0.00     0.014 A 
HETATM    7  C8  UNL     1      24.567   0.961  52.570  1.00  0.00     0.057 A 
HETATM    8  C14 UNL     1      24.438   1.936  51.575  1.00  0.00     0.021 A 
HETATM    9  C15 UNL     1      25.589   2.475  50.997  1.00  0.00     0.025 A 
HETATM   10  C16 UNL     1      25.533   3.447  50.003  1.00  0.00    -0.028 A 
HETATM   11  C17 UNL     1      26.780   4.013  49.396  1.00  0.00     0.051 C 
ENDROOT
BRANCH   7  12
HETATM   12  N2  UNL     1      25.884   0.583  52.925  1.00  0.00    -0.350 N 
HETATM   13  C9  UNL     1      26.158  -0.762  52.494  1.00  0.00     0.091 A 
HETATM   14  C10 UNL     1      27.303  -1.354  52.711  1.00  0.00     0.019 A 
HETATM   15  C11 UNL     1      28.385  -0.682  53.409  1.00  0.00     0.022 A 
HETATM   16  C12 UNL     1      28.100   0.553  53.789  1.00  0.00     0.030 A 
HETATM   17 CL1  UNL     1      29.360   1.450  54.649  1.00  0.00    -0.087 Cl
HETATM   18  C13 UNL     1      26.866   1.360  53.615  1.00  0.00     0.179 A 
ENDBRANCH   7  12
BRANCH   6  19
HETATM   19  C7  UNL     1      23.453  -0.531  54.128  1.00  0.00     0.255 C 
BRANCH  19  20
HETATM   20  O2  UNL     1      22.190  -0.781  54.668  1.00  0.00    -0.206 OA
BRANCH  20  21
HETATM   21  O3  UNL     1      22.204  -1.934  55.318  1.00  0.00    -0.069 OA
BRANCH  21  22
HETATM   22  O4  UNL     1      23.272  -1.987  56.055  1.00  0.00    -0.220 OA
HETATM   23  H8  UNL     1      23.782  -2.812  56.027  1.00  0.00     0.256 HD
ENDBRANCH  21  22
ENDBRANCH  20  21
ENDBRANCH  19  20
ENDBRANCH   6  19
BRANCH   1  24
HETATM   24  O1  UNL     1      24.287   4.865  48.581  1.00  0.00    -0.355 OA
HETATM   25  C1  UNL     1      23.632   6.090  48.870  1.00  0.00     0.210 C 
ENDBRANCH   1  24
TORSDOF 6
ENDMDL
MODEL 3
REMARK VINA RESULT:      -7.6      3.414      7.230
REMARK  6 active torsions:
REMARK  status: ('A' for Active; 'I' for Inactive)
REMARK    1  A    between atoms: O1_2  and  C2_3 
REMARK    2  A    between atoms: C6_8  and  C7_9 
REMARK    3  A    between atoms: C7_9  and  O2_10 
REMARK    4  A    between atoms: O2_10  and  O3_11 
REMARK    5  A    between atoms: O3_11  and  O4_12 
REMARK    6  A    between atoms: C8_13  and  N2_14 
ROOT
HETATM    1  C2  UNL     1      26.428   0.052  53.351  1.00  0.00     0.076 A 
HETATM    2  C3  UNL     1      25.601  -0.626  54.221  1.00  0.00     0.069 A 
HETATM    3  C4  UNL     1      24.231  -0.509  54.132  1.00  0.00     0.071 A 
HETATM    4  N1  UNL     1      23.439  -1.188  55.001  1.00  0.00    -0.260 NA
HETATM    5  C5  UNL     1      22.104  -1.056  54.890  1.00  0.00     0.129 A 
HETATM    6  C6  UNL     1      21.496  -0.266  53.940  1.00  0.00     0.014 A 
HETATM    7  C8  UNL     1      22.247   0.448  53.032  1.00  0.00     0.057 A 
HETATM    8  C14 UNL     1      23.632   0.293  53.167  1.00  0.00     0.021 A 
HETATM    9  C15 UNL     1      24.481   0.974  52.293  1.00  0.00     0.025 A 
HETATM   10  C16 UNL     1      25.866   0.865  52.370  1.00  0.00    -0.028 A 
HETATM   11  C17 UNL     1      26.759   1.604  51.422  1.00  0.00     0.051 C 
ENDROOT
BRANCH   7  12
HETATM   12  N2  UNL     1      21.800   1.303  51.997  1.00  0.00    -0.350 N 
HETATM   13  C9  UNL     1      21.568   0.556  50.790  1.00  0.00     0.091 A 
HETATM   14  C10 UNL     1      21.161   1.116  49.680  1.00  0.00     0.019 A 
HETATM   15  C11 UNL     1      20.913   2.545  49.598  1.00  0.00     0.022 A 
HETATM   16  C12 UNL     1      21.134   3.200  50.726  1.00  0.00     0.030 A 
HETATM   17 CL1  UNL     1      20.858   4.947  50.718  1.00  0.00    -0.087 Cl
HETATM   18  C13 UNL     1      21.585   2.715  52.054  1.00  0.00     0.179 A 
ENDBRANCH   7  12
BRANCH   6  19
HETATM   19  C7  UNL     1      20.036  -0.142  53.842  1.00  0.00     0.255 C 
BRANCH  19  20
HETATM   20  O2  UNL     1      19.458  -1.367  53.505  1.00  0.00    -0.206 OA
BRANCH  20  21
HETATM   21  O3  UNL     1      18.230  -1.171  53.053  1.00  0.00    -0.069 OA
BRANCH  21  22
HETATM   22  O4  UNL     1      17.396  -1.271  54.045  1.00  0.00    -0.220 OA
HETATM   23  H8  UNL     1      17.776  -1.471  54.916  1.00  0.00     0.256 HD
ENDBRANCH  21  22
ENDBRANCH  20  21
ENDBRANCH  19  20
ENDBRANCH   6  19
BRANCH   1  24
HETATM   24  O1  UNL     1      27.805  -0.023  53.387  1.00  0.00    -0.355 OA
HETATM   25  C1  UNL     1      28.440   0.245  54.627  1.00  0.00     0.210 C 
ENDBRANCH   1  24
TORSDOF 6
ENDMDL
MODEL 4
REMARK VINA RESULT:      -7.4      3.493      6.265
REMARK  6 active torsions:
REMARK  status: ('A' for Active; 'I' for Inactive)
REMARK    1  A    between atoms: O1_2  and  C2_3 
REMARK    2  A    between atoms: C6_8  and  C7_9 
REMARK    3  A    between atoms: C7_9  and  O2_10 
REMARK    4  A    between atoms: O2_10  and  O3_11 
REMARK    5  A    between atoms: O3_11  and  O4_12 
REMARK    6  A    between atoms: C8_13  and  N2_14 
ROOT
HETATM    1  C2  UNL     1      27.240   0.404  54.114  1.00  0.00     0.076 A 
HETATM    2  C3  UNL     1      26.092  -0.357  54.129  1.00  0.00     0.069 A 
HETATM    3  C4  UNL     1      24.927   0.105  53.557  1.00  0.00     0.071 A 
HETATM    4  N1  UNL     1      23.810  -0.666  53.584  1.00  0.00    -0.260 NA
HETATM    5  C5  UNL     1      22.688  -0.188  53.016  1.00  0.00     0.129 A 
HETATM    6  C6  UNL     1      22.610   1.045  52.406  1.00  0.00     0.014 A 
HETATM    7  C8  UNL     1      23.710   1.871  52.348  1.00  0.00     0.057 A 
HETATM    8  C14 UNL     1      24.865   1.353  52.945  1.00  0.00     0.021 A 
HETATM    9  C15 UNL     1      26.036   2.114  52.937  1.00  0.00     0.025 A 
HETATM   10  C16 UNL     1      27.219   1.659  53.511  1.00  0.00    -0.028 A 
HETATM   11  C17 UNL     1      28.464   2.491  53.491  1.00  0.00     0.051 C 
ENDROOT
BRANCH   7  12
HETATM   12  N2  UNL     1      23.816   3.159  51.770  1.00  0.00    -0.350 N 
HETATM   13  C9  UNL     1      23.441   4.172  52.720  1.00  0.00     0.091 A 
HETATM   14  C10 UNL     1      23.441   5.447  52.429  1.00  0.00     0.019 A 
HETATM   15  C11 UNL     1      23.824   5.925  51.112  1.00  0.00     0.022 A 
HETATM   16  C12 UNL     1      24.163   4.968  50.265  1.00  0.00     0.030 A 
HETATM   17 CL1  UNL     1      24.644   5.459  48.635  1.00  0.00    -0.087 Cl
HETATM   18  C13 UNL     1      24.222   3.495  50.441  1.00  0.00     0.179 A 
ENDBRANCH   7  12
BRANCH   6  19
HETATM   19  C7  UNL     1      21.371   1.539  51.793  1.00  0.00     0.255 C 
BRANCH  19  20
HETATM   20  O2  UNL     1      20.358   1.652  52.748  1.00  0.00    -0.206 OA
BRANCH  20  21
HETATM   21  O3  UNL     1      20.204   2.923  53.085  1.00  0.00    -0.069 OA
BRANCH  21  22
HETATM   22  O4  UNL     1      19.684   3.563  52.082  1.00  0.00    -0.220 OA
HETATM   23  H8  UNL     1      19.882   3.220  51.195  1.00  0.00     0.256 HD
ENDBRANCH  21  22
ENDBRANCH  20  21
ENDBRANCH  19  20
ENDBRANCH   6  19
BRANCH   1  24
HETATM   24  O1  UNL     1      28.437  -0.002  54.669  1.00  0.00    -0.355 OA
HETATM   25  C1  UNL     1      29.241  -0.888  53.906  1.00  0.00     0.210 C 
ENDBRANCH   1  24
TORSDOF 6
ENDMDL
MODEL 5
REMARK VINA RESULT:      -7.3      3.333      4.907
REMARK  6 active torsions:
REMARK  status: ('A' for Active; 'I' for Inactive)
REMARK    1  A    between atoms: O1_2  and  C2_3 
REMARK    2  A    between atoms: C6_8  and  C7_9 
REMARK    3  A    between atoms: C7_9  and  O2_10 
REMARK    4  A    between atoms: O2_10  and  O3_11 
REMARK    5  A    between atoms: O3_11  and  O4_12 
REMARK    6  A    between atoms: C8_13  and  N2_14 
ROOT
HETATM    1  C2  UNL     1      19.751  -0.464  53.227  1.00  0.00     0.076 A 
HETATM    2  C3  UNL     1      20.818  -1.050  53.875  1.00  0.00     0.069 A 
HETATM    3  C4  UNL     1      22.087  -0.525  53.766  1.00  0.00     0.071 A 
HETATM    4  N1  UNL     1      23.121  -1.121  54.416  1.00  0.00    -0.260 NA
HETATM    5  C5  UNL     1      24.348  -0.585  54.292  1.00  0.00     0.129 A 
HETATM    6  C6  UNL     1      24.616   0.537  53.540  1.00  0.00     0.014 A 
HETATM    7  C8  UNL     1      23.609   1.183  52.858  1.00  0.00     0.057 A 
HETATM    8  C14 UNL     1      22.341   0.609  53.002  1.00  0.00     0.021 A 
HETATM    9  C15 UNL     1      21.252   1.192  52.351  1.00  0.00     0.025 A 
HETATM   10  C16 UNL     1      19.964   0.673  52.452  1.00  0.00    -0.028 A 
HETATM   11  C17 UNL     1      18.809   1.314  51.746  1.00  0.00     0.051 C 
ENDROOT
BRANCH   7  12
HETATM   12  N2  UNL     1      23.696   2.337  52.043  1.00  0.00    -0.350 N 
HETATM   13  C9  UNL     1      23.751   1.971  50.653  1.00  0.00     0.091 A 
HETATM   14  C10 UNL     1      23.847   2.854  49.693  1.00  0.00     0.019 A 
HETATM   15  C11 UNL     1      23.904   4.277  49.975  1.00  0.00     0.022 A 
HETATM   16  C12 UNL     1      23.850   4.579  51.262  1.00  0.00     0.030 A 
HETATM   17 CL1  UNL     1      23.915   6.292  51.699  1.00  0.00    -0.087 Cl
HETATM   18  C13 UNL     1      23.735   3.705  52.456  1.00  0.00     0.179 A 
ENDBRANCH   7  12
BRANCH   6  19
HETATM   19  C7  UNL     1      25.968   1.099  53.424  1.00  0.00     0.255 C 
BRANCH  19  20
HETATM   20  O2  UNL     1      26.496   1.377  54.686  1.00  0.00    -0.206 OA
BRANCH  20  21
HETATM   21  O3  UNL     1      27.761   0.990  54.735  1.00  0.00    -0.069 OA
BRANCH  21  22
HETATM   22  O4  UNL     1      27.803  -0.262  55.077  1.00  0.00    -0.220 OA
HETATM   23  H8  UNL     1      28.684  -0.660  55.169  1.00  0.00     0.256 HD
ENDBRANCH  21  22
ENDBRANCH  20  21
ENDBRANCH  19  20
ENDBRANCH   6  19
BRANCH   1  24
HETATM   24  O1  UNL     1      18.458  -0.940  53.296  1.00  0.00    -0.355 OA
HETATM   25  C1  UNL     1      18.275  -2.266  53.766  1.00  0.00     0.210 C 
ENDBRANCH   1  24
TORSDOF 6
ENDMDL
MODEL 6
REMARK VINA RESULT:      -7.2      3.081      4.505
REMARK  6 active torsions:
REMARK  status: ('A' for Active; 'I' for Inactive)
REMARK    1  A    between atoms: O1_2  and  C2_3 
REMARK    2  A    between atoms: C6_8  and  C7_9 
REMARK    3  A    between atoms: C7_9  and  O2_10 
REMARK    4  A    between atoms: O2_10  and  O3_11 
REMARK    5  A    between atoms: O3_11  and  O4_12 
REMARK    6  A    between atoms: C8_13  and  N2_14 
ROOT
HETATM    1  C2  UNL     1      21.383  -0.171  52.579  1.00  0.00     0.076 A 
HETATM    2  C3  UNL     1      22.402  -0.602  53.402  1.00  0.00     0.069 A 
HETATM    3  C4  UNL     1      23.637   0.008  53.377  1.00  0.00     0.071 A 
HETATM    4  N1  UNL     1      24.624  -0.435  54.199  1.00  0.00    -0.260 NA
HETATM    5  C5  UNL     1      25.820   0.180  54.153  1.00  0.00     0.129 A 
HETATM    6  C6  UNL     1      26.099   1.236  53.316  1.00  0.00     0.014 A 
HETATM    7  C8  UNL     1      25.139   1.728  52.459  1.00  0.00     0.057 A 
HETATM    8  C14 UNL     1      23.904   1.074  52.525  1.00  0.00     0.021 A 
HETATM    9  C15 UNL     1      22.864   1.499  51.697  1.00  0.00     0.025 A 
HETATM   10  C16 UNL     1      21.611   0.894  51.711  1.00  0.00    -0.028 A 
HETATM   11  C17 UNL     1      20.507   1.366  50.815  1.00  0.00     0.051 C 
ENDROOT
BRANCH   7  12
HETATM   12  N2  UNL     1      25.246   2.796  51.537  1.00  0.00    -0.350 N 
HETATM   13  C9  UNL     1      26.181   2.470  50.493  1.00  0.00     0.091 A 
HETATM   14  C10 UNL     1      26.469   3.295  49.520  1.00  0.00     0.019 A 
HETATM   15  C11 UNL     1      25.855   4.609  49.431  1.00  0.00     0.022 A 
HETATM   16  C12 UNL     1      25.000   4.874  50.405  1.00  0.00     0.030 A 
HETATM   17 CL1  UNL     1      24.204   6.454  50.379  1.00  0.00    -0.087 Cl
HETATM   18  C13 UNL     1      24.565   4.053  51.563  1.00  0.00     0.179 A 
ENDBRANCH   7  12
BRANCH   6  19
HETATM   19  C7  UNL     1      27.415   1.888  53.289  1.00  0.00     0.255 C 
BRANCH  19  20
HETATM   20  O2  UNL     1      28.068   1.734  54.514  1.00  0.00    -0.206 OA
BRANCH  20  21
HETATM   21  O3  UNL     1      29.183   2.446  54.517  1.00  0.00    -0.069 OA
BRANCH  21  22
HETATM   22  O4  UNL     1      29.431   2.843  53.306  1.00  0.00    -0.220 OA
HETATM   23  H8  UNL     1      30.094   3.544  53.203  1.00  0.00     0.256 HD
ENDBRANCH  21  22
ENDBRANCH  20  21
ENDBRANCH  19  20
ENDBRANCH   6  19
BRANCH   1  24
HETATM   24  O1  UNL     1      20.125  -0.737  52.556  1.00  0.00    -0.355 OA
HETATM   25  C1  UNL     1      19.508  -1.005  53.806  1.00  0.00     0.210 C 
ENDBRANCH   1  24
TORSDOF 6
ENDMDL
MODEL 7
REMARK VINA RESULT:      -7.0      3.571      6.357
REMARK  6 active torsions:
REMARK  status: ('A' for Active; 'I' for Inactive)
REMARK    1  A    between atoms: O1_2  and  C2_3 
REMARK    2  A    between atoms: C6_8  and  C7_9 
REMARK    3  A    between atoms: C7_9  and  O2_10 
REMARK    4  A    between atoms: O2_10  and  O3_11 
REMARK    5  A    between atoms: O3_11  and  O4_12 
REMARK    6  A    between atoms: C8_13  and  N2_14 
ROOT
HETATM    1  C2  UNL     1      26.320  -0.173  53.665  1.00  0.00     0.076 A 
HETATM    2  C3  UNL     1      25.117  -0.703  54.078  1.00  0.00     0.069 A 
HETATM    3  C4  UNL     1      23.922  -0.176  53.640  1.00  0.00     0.071 A 
HETATM    4  N1  UNL     1      22.750  -0.718  54.062  1.00  0.00    -0.260 NA
HETATM    5  C5  UNL     1      21.600  -0.182  53.616  1.00  0.00     0.129 A 
HETATM    6  C6  UNL     1      21.544   0.890  52.753  1.00  0.00     0.014 A 
HETATM    7  C8  UNL     1      22.700   1.482  52.291  1.00  0.00     0.057 A 
HETATM    8  C14 UNL     1      23.884   0.907  52.768  1.00  0.00     0.021 A 
HETATM    9  C15 UNL     1      25.109   1.435  52.357  1.00  0.00     0.025 A 
HETATM   10  C16 UNL     1      26.323   0.912  52.791  1.00  0.00    -0.028 A 
HETATM   11  C17 UNL     1      27.628   1.492  52.338  1.00  0.00     0.051 C 
ENDROOT
BRANCH   7  12
HETATM   12  N2  UNL     1      22.835   2.581  51.410  1.00  0.00    -0.350 N 
HETATM   13  C9  UNL     1      22.869   2.131  50.044  1.00  0.00     0.091 A 
HETATM   14  C10 UNL     1      23.000   2.951  49.033  1.00  0.00     0.019 A 
HETATM   15  C11 UNL     1      23.121   4.385  49.231  1.00  0.00     0.022 A 
HETATM   16  C12 UNL     1      23.084   4.763  50.498  1.00  0.00     0.030 A 
HETATM   17 CL1  UNL     1      23.225   6.495  50.833  1.00  0.00    -0.087 Cl
HETATM   18  C13 UNL     1      22.935   3.967  51.742  1.00  0.00     0.179 A 
ENDBRANCH   7  12
BRANCH   6  19
HETATM   19  C7  UNL     1      20.272   1.452  52.282  1.00  0.00     0.255 C 
BRANCH  19  20
HETATM   20  O2  UNL     1      19.954   2.614  52.989  1.00  0.00    -0.206 OA
BRANCH  20  21
HETATM   21  O3  UNL     1      19.354   3.475  52.184  1.00  0.00    -0.069 OA
BRANCH  21  22
HETATM   22  O4  UNL     1      19.500   3.074  50.957  1.00  0.00    -0.220 OA
HETATM   23  H8  UNL     1      20.410   2.985  50.632  1.00  0.00     0.256 HD
ENDBRANCH  21  22
ENDBRANCH  20  21
ENDBRANCH  19  20
ENDBRANCH   6  19
BRANCH   1  24
HETATM   24  O1  UNL     1      27.549  -0.655  54.066  1.00  0.00    -0.355 OA
HETATM   25  C1  UNL     1      28.246   0.082  55.059  1.00  0.00     0.210 C 
ENDBRANCH   1  24
TORSDOF 6
ENDMDL
MODEL 8
REMARK VINA RESULT:      -6.8      8.743     11.619
REMARK  6 active torsions:
REMARK  status: ('A' for Active; 'I' for Inactive)
REMARK    1  A    between atoms: O1_2  and  C2_3 
REMARK    2  A    between atoms: C6_8  and  C7_9 
REMARK    3  A    between atoms: C7_9  and  O2_10 
REMARK    4  A    between atoms: O2_10  and  O3_11 
REMARK    5  A    between atoms: O3_11  and  O4_12 
REMARK    6  A    between atoms: C8_13  and  N2_14 
ROOT
HETATM    1  C2  UNL     1      33.209   5.430  47.891  1.00  0.00     0.076 A 
HETATM    2  C3  UNL     1      31.951   4.886  48.032  1.00  0.00     0.069 A 
HETATM    3  C4  UNL     1      30.836   5.691  48.112  1.00  0.00     0.071 A 
HETATM    4  N1  UNL     1      29.607   5.130  48.249  1.00  0.00    -0.260 NA
HETATM    5  C5  UNL     1      28.537   5.942  48.325  1.00  0.00     0.129 A 
HETATM    6  C6  UNL     1      28.619   7.316  48.271  1.00  0.00     0.014 A 
HETATM    7  C8  UNL     1      29.839   7.942  48.134  1.00  0.00     0.057 A 
HETATM    8  C14 UNL     1      30.937   7.077  48.057  1.00  0.00     0.021 A 
HETATM    9  C15 UNL     1      32.217   7.615  47.915  1.00  0.00     0.025 A 
HETATM   10  C16 UNL     1      33.352   6.814  47.832  1.00  0.00    -0.028 A 
HETATM   11  C17 UNL     1      34.717   7.410  47.679  1.00  0.00     0.051 C 
ENDROOT
BRANCH   7  12
HETATM   12  N2  UNL     1      30.114   9.328  48.063  1.00  0.00    -0.350 N 
HETATM   13  C9  UNL     1      30.491   9.836  49.355  1.00  0.00     0.091 A 
HETATM   14  C10 UNL     1      30.785  11.093  49.562  1.00  0.00     0.019 A 
HETATM   15  C11 UNL     1      30.748  12.068  48.486  1.00  0.00     0.022 A 
HETATM   16  C12 UNL     1      30.400  11.567  47.312  1.00  0.00     0.030 A 
HETATM   17 CL1  UNL     1      30.328  12.684  45.942  1.00  0.00    -0.087 Cl
HETATM   18  C13 UNL     1      30.047  10.180  46.917  1.00  0.00     0.179 A 
ENDBRANCH   7  12
BRANCH   6  19
HETATM   19  C7  UNL     1      27.433   8.176  48.355  1.00  0.00     0.255 C 
BRANCH  19  20
HETATM   20  O2  UNL     1      27.010   8.307  49.679  1.00  0.00    -0.206 OA
BRANCH  20  21
HETATM   21  O3  UNL     1      27.025   9.583  50.028  1.00  0.00    -0.069 OA
BRANCH  21  22
HETATM   22  O4  UNL     1      27.590   9.693  51.192  1.00  0.00    -0.220 OA
HETATM   23  H8  UNL     1      28.493   9.348  51.274  1.00  0.00     0.256 HD
ENDBRANCH  21  22
ENDBRANCH  20  21
ENDBRANCH  19  20
ENDBRANCH   6  19
BRANCH   1  24
HETATM   24  O1  UNL     1      34.363   4.678  47.804  1.00  0.00    -0.355 OA
HETATM   25  C1  UNL     1      34.218   3.282  47.599  1.00  0.00     0.210 C 
ENDBRANCH   1  24
TORSDOF 6
ENDMDL
MODEL 9
REMARK VINA RESULT:      -6.2      3.941      6.248
REMARK  6 active torsions:
REMARK  status: ('A' for Active; 'I' for Inactive)
REMARK    1  A    between atoms: O1_2  and  C2_3 
REMARK    2  A    between atoms: C6_8  and  C7_9 
REMARK    3  A    between atoms: C7_9  and  O2_10 
REMARK    4  A    between atoms: O2_10  and  O3_11 
REMARK    5  A    between atoms: O3_11  and  O4_12 
REMARK    6  A    between atoms: C8_13  and  N2_14 
ROOT
HETATM    1  C2  UNL     1      24.205   0.037  53.378  1.00  0.00     0.076 A 
HETATM    2  C3  UNL     1      22.841   0.123  53.551  1.00  0.00     0.069 A 
HETATM    3  C4  UNL     1      22.114   1.136  52.965  1.00  0.00     0.071 A 
HETATM    4  N1  UNL     1      20.770   1.197  53.150  1.00  0.00    -0.260 NA
HETATM    5  C5  UNL     1      20.088   2.198  52.564  1.00  0.00     0.129 A 
HETATM    6  C6  UNL     1      20.679   3.166  51.784  1.00  0.00     0.014 A 
HETATM    7  C8  UNL     1      22.038   3.157  51.561  1.00  0.00     0.057 A 
HETATM    8  C14 UNL     1      22.727   2.107  52.179  1.00  0.00     0.021 A 
HETATM    9  C15 UNL     1      24.109   2.008  52.013  1.00  0.00     0.025 A 
HETATM   10  C16 UNL     1      24.855   0.990  52.598  1.00  0.00    -0.028 A 
HETATM   11  C17 UNL     1      26.338   0.902  52.406  1.00  0.00     0.051 C 
ENDROOT
BRANCH   7  12
HETATM   12  N2  UNL     1      22.811   4.062  50.796  1.00  0.00    -0.350 N 
HETATM   13  C9  UNL     1      22.779   3.702  49.403  1.00  0.00     0.091 A 
HETATM   14  C10 UNL     1      23.425   4.374  48.485  1.00  0.00     0.019 A 
HETATM   15  C11 UNL     1      24.224   5.539  48.818  1.00  0.00     0.022 A 
HETATM   16  C12 UNL     1      24.230   5.843  50.106  1.00  0.00     0.030 A 
HETATM   17 CL1  UNL     1      25.179   7.250  50.605  1.00  0.00    -0.087 Cl
HETATM   18  C13 UNL     1      23.553   5.193  51.257  1.00  0.00     0.179 A 
ENDBRANCH   7  12
BRANCH   6  19
HETATM   19  C7  UNL     1      19.907   4.246  51.156  1.00  0.00     0.255 C 
BRANCH  19  20
HETATM   20  O2  UNL     1      18.632   3.800  50.803  1.00  0.00    -0.206 OA
BRANCH  20  21
HETATM   21  O3  UNL     1      17.930   4.807  50.308  1.00  0.00    -0.069 OA
BRANCH  21  22
HETATM   22  O4  UNL     1      16.765   4.829  50.883  1.00  0.00    -0.220 OA
HETATM   23  H8  UNL     1      16.183   5.573  50.662  1.00  0.00     0.256 HD
ENDBRANCH  21  22
ENDBRANCH  20  21
ENDBRANCH  19  20
ENDBRANCH   6  19
BRANCH   1  24
HETATM   24  O1  UNL     1      24.988  -0.952  53.937  1.00  0.00    -0.355 OA
HETATM   25  C1  UNL     1      24.920  -1.120  55.345  1.00  0.00     0.210 C 
ENDBRANCH   1  24
TORSDOF 6
ENDMDL
