MODEL 1
REMARK VINA RESULT:      -7.8      0.000      0.000
REMARK  2 active torsions:
REMARK  status: ('A' for Active; 'I' for Inactive)
REMARK    1  A    between atoms: C2_2  and  C3_3 
REMARK    2  A    between atoms: C12_17  and  N4_18 
ROOT
HETATM    1  C3  UNL     1      21.595   1.905  51.074  1.00  0.00     0.078 C 
HETATM    2  C4  UNL     1      20.918   0.975  50.111  1.00  0.00     0.044 C 
HETATM    3  C5  UNL     1      19.374   0.912  50.455  1.00  0.00     0.124 C 
HETATM    4  N1  UNL     1      19.353   0.234  51.725  1.00  0.00    -0.359 N 
HETATM    5  C6  UNL     1      19.334  -0.433  52.975  1.00  0.00     0.243 C 
HETATM    6  O1  UNL     1      18.212  -0.546  53.458  1.00  0.00    -0.271 OA
HETATM    7  C7  UNL     1      20.395  -1.029  53.829  1.00  0.00     0.306 C 
HETATM    8  O2  UNL     1      21.642  -0.853  53.188  1.00  0.00    -0.247 OA
HETATM    9  N2  UNL     1      22.832  -0.991  53.827  1.00  0.00    -0.145 NA
HETATM   10  C8  UNL     1      23.888  -0.345  53.617  1.00  0.00     0.158 C 
HETATM   11  C9  UNL     1      24.587   0.689  52.855  1.00  0.00     0.016 C 
HETATM   12  C10 UNL     1      25.971   0.933  53.203  1.00  0.00     0.084 A 
HETATM   13  C11 UNL     1      26.640   1.866  52.459  1.00  0.00     0.151 A 
HETATM   14  N3  UNL     1      27.944   2.107  52.788  1.00  0.00    -0.240 NA
HETATM   15  C12 UNL     1      28.453   1.388  53.833  1.00  0.00     0.138 A 
HETATM   16  C13 UNL     1      27.796   0.451  54.587  1.00  0.00     0.167 A 
HETATM   17  N5  UNL     1      26.512   0.254  54.216  1.00  0.00    -0.255 NA
HETATM   18  C14 UNL     1      23.610   1.020  52.071  1.00  0.00     0.141 C 
HETATM   19  N6  UNL     1      23.023   1.794  51.005  1.00  0.00    -0.407 N 
HETATM   20  H11 UNL     1      18.291   0.413  51.634  1.00  0.00     0.162 HD
HETATM   21  H20 UNL     1      23.193   2.350  50.108  1.00  0.00     0.154 HD
ENDROOT
BRANCH   1  22
HETATM   22  C2  UNL     1      21.111   3.335  50.890  1.00  0.00     0.020 C 
HETATM   23  C1  UNL     1      21.553   4.271  51.957  1.00  0.00     0.007 C 
ENDBRANCH   1  22
BRANCH  15  24
HETATM   24  N4  UNL     1      29.792   1.721  54.089  1.00  0.00    -0.383 N 
HETATM   25  H16 UNL     1      30.128   1.956  53.107  1.00  0.00     0.157 HD
HETATM   26  H17 UNL     1      30.693   1.902  54.543  1.00  0.00     0.157 HD
ENDBRANCH  15  24
TORSDOF 2
ENDMDL
MODEL 2
REMARK VINA RESULT:      -7.4      2.411      7.129
REMARK  2 active torsions:
REMARK  status: ('A' for Active; 'I' for Inactive)
REMARK    1  A    between atoms: C2_2  and  C3_3 
REMARK    2  A    between atoms: C12_17  and  N4_18 
ROOT
HETATM    1  C3  UNL     1      23.426   1.636  52.341  1.00  0.00     0.078 C 
HETATM    2  C4  UNL     1      24.040   2.596  53.318  1.00  0.00     0.044 C 
HETATM    3  C5  UNL     1      25.609   2.387  53.326  1.00  0.00     0.124 C 
HETATM    4  N1  UNL     1      25.759   1.084  53.919  1.00  0.00    -0.359 N 
HETATM    5  C6  UNL     1      25.906  -0.199  54.503  1.00  0.00     0.243 C 
HETATM    6  O1  UNL     1      27.068  -0.585  54.561  1.00  0.00    -0.271 OA
HETATM    7  C7  UNL     1      24.940  -1.180  55.064  1.00  0.00     0.306 C 
HETATM    8  O2  UNL     1      23.636  -0.643  54.956  1.00  0.00    -0.247 OA
HETATM    9  N2  UNL     1      22.511  -1.393  55.077  1.00  0.00    -0.145 NA
HETATM   10  C8  UNL     1      21.425  -1.237  54.468  1.00  0.00     0.158 C 
HETATM   11  C9  UNL     1      20.634  -0.478  53.500  1.00  0.00     0.016 C 
HETATM   12  C10 UNL     1      19.280  -0.932  53.263  1.00  0.00     0.084 A 
HETATM   13  C11 UNL     1      18.524  -0.193  52.394  1.00  0.00     0.151 A 
HETATM   14  N3  UNL     1      17.249  -0.621  52.159  1.00  0.00    -0.240 NA
HETATM   15  C12 UNL     1      16.852  -1.750  52.819  1.00  0.00     0.138 A 
HETATM   16  C13 UNL     1      17.597  -2.500  53.692  1.00  0.00     0.167 A 
HETATM   17  N5  UNL     1      18.848  -2.030  53.885  1.00  0.00    -0.255 NA
HETATM   18  C14 UNL     1      21.530   0.410  53.201  1.00  0.00     0.141 C 
HETATM   19  N6  UNL     1      22.000   1.571  52.486  1.00  0.00    -0.407 N 
HETATM   20  H11 UNL     1      26.804   1.280  53.725  1.00  0.00     0.162 HD
HETATM   21  H20 UNL     1      21.738   2.482  51.993  1.00  0.00     0.154 HD
ENDROOT
BRANCH   1  22
HETATM   22  C2  UNL     1      23.853   1.952  50.916  1.00  0.00     0.020 C 
HETATM   23  C1  UNL     1      22.726   2.079  49.955  1.00  0.00     0.007 C 
ENDBRANCH   1  22
BRANCH  15  24
HETATM   24  N4  UNL     1      15.532  -2.103  52.499  1.00  0.00    -0.383 N 
HETATM   25  H16 UNL     1      15.341  -2.845  53.238  1.00  0.00     0.157 HD
HETATM   26  H17 UNL     1      14.607  -2.165  52.061  1.00  0.00     0.157 HD
ENDBRANCH  15  24
TORSDOF 2
ENDMDL
MODEL 3
REMARK VINA RESULT:      -7.1      2.781      7.232
REMARK  2 active torsions:
REMARK  status: ('A' for Active; 'I' for Inactive)
REMARK    1  A    between atoms: C2_2  and  C3_3 
REMARK    2  A    between atoms: C12_17  and  N4_18 
ROOT
HETATM    1  C3  UNL     1      25.305   1.612  52.749  1.00  0.00     0.078 C 
HETATM    2  C4  UNL     1      26.324   1.348  51.680  1.00  0.00     0.044 C 
HETATM    3  C5  UNL     1      27.175   2.662  51.444  1.00  0.00     0.124 C 
HETATM    4  N1  UNL     1      26.220   3.563  50.853  1.00  0.00    -0.359 N 
HETATM    5  C6  UNL     1      25.280   4.450  50.272  1.00  0.00     0.243 C 
HETATM    6  O1  UNL     1      25.728   5.569  50.048  1.00  0.00    -0.271 OA
HETATM    7  C7  UNL     1      23.855   4.306  49.872  1.00  0.00     0.306 C 
HETATM    8  O2  UNL     1      23.435   2.988  50.164  1.00  0.00    -0.247 OA
HETATM    9  N2  UNL     1      22.129   2.620  50.220  1.00  0.00    -0.145 NA
HETATM   10  C8  UNL     1      21.613   1.764  50.980  1.00  0.00     0.158 C 
HETATM   11  C9  UNL     1      21.783   0.775  52.043  1.00  0.00     0.016 C 
HETATM   12  C10 UNL     1      20.593   0.078  52.483  1.00  0.00     0.084 A 
HETATM   13  C11 UNL     1      20.759  -0.883  53.443  1.00  0.00     0.151 A 
HETATM   14  N3  UNL     1      19.639  -1.538  53.869  1.00  0.00    -0.240 NA
HETATM   15  C12 UNL     1      18.457  -1.168  53.290  1.00  0.00     0.138 A 
HETATM   16  C13 UNL     1      18.275  -0.208  52.328  1.00  0.00     0.167 A 
HETATM   17  N5  UNL     1      19.417   0.405  51.946  1.00  0.00    -0.255 NA
HETATM   18  C14 UNL     1      23.064   0.899  52.195  1.00  0.00     0.141 C 
HETATM   19  N6  UNL     1      24.323   0.569  52.817  1.00  0.00    -0.407 N 
HETATM   20  H11 UNL     1      27.062   4.240  50.889  1.00  0.00     0.162 HD
HETATM   21  H20 UNL     1      24.897  -0.172  53.331  1.00  0.00     0.154 HD
ENDROOT
BRANCH   1  22
HETATM   22  C2  UNL     1      25.971   1.873  54.092  1.00  0.00     0.020 C 
HETATM   23  C1  UNL     1      26.649   0.687  54.677  1.00  0.00     0.007 C 
ENDBRANCH   1  22
BRANCH  15  24
HETATM   24  N4  UNL     1      17.374  -1.896  53.807  1.00  0.00    -0.383 N 
HETATM   25  H16 UNL     1      17.583  -2.863  53.415  1.00  0.00     0.157 HD
HETATM   26  H17 UNL     1      16.516  -2.173  54.293  1.00  0.00     0.157 HD
ENDBRANCH  15  24
TORSDOF 2
ENDMDL
MODEL 4
REMARK VINA RESULT:      -7.0      2.251      2.868
REMARK  2 active torsions:
REMARK  status: ('A' for Active; 'I' for Inactive)
REMARK    1  A    between atoms: C2_2  and  C3_3 
REMARK    2  A    between atoms: C12_17  and  N4_18 
ROOT
HETATM    1  C3  UNL     1      22.882   4.893  50.744  1.00  0.00     0.078 C 
HETATM    2  C4  UNL     1      22.073   4.619  49.510  1.00  0.00     0.044 C 
HETATM    3  C5  UNL     1      20.603   5.167  49.728  1.00  0.00     0.124 C 
HETATM    4  N1  UNL     1      20.076   4.287  50.737  1.00  0.00    -0.359 N 
HETATM    5  C6  UNL     1      19.558   3.420  51.732  1.00  0.00     0.243 C 
HETATM    6  O1  UNL     1      18.420   3.704  52.091  1.00  0.00    -0.271 OA
HETATM    7  C7  UNL     1      20.108   2.231  52.434  1.00  0.00     0.306 C 
HETATM    8  O2  UNL     1      21.413   1.983  51.950  1.00  0.00    -0.247 OA
HETATM    9  N2  UNL     1      22.304   1.184  52.591  1.00  0.00    -0.145 NA
HETATM   10  C8  UNL     1      23.550   1.325  52.645  1.00  0.00     0.158 C 
HETATM   11  C9  UNL     1      24.737   2.091  52.266  1.00  0.00     0.016 C 
HETATM   12  C10 UNL     1      26.010   1.605  52.753  1.00  0.00     0.084 A 
HETATM   13  C11 UNL     1      27.126   2.293  52.358  1.00  0.00     0.151 A 
HETATM   14  N3  UNL     1      28.330   1.845  52.822  1.00  0.00    -0.240 NA
HETATM   15  C12 UNL     1      28.301   0.748  53.637  1.00  0.00     0.138 A 
HETATM   16  C13 UNL     1      27.193   0.049  54.040  1.00  0.00     0.167 A 
HETATM   17  N5  UNL     1      26.032   0.537  53.552  1.00  0.00    -0.255 NA
HETATM   18  C14 UNL     1      24.141   2.997  51.556  1.00  0.00     0.141 C 
HETATM   19  N6  UNL     1      24.127   4.180  50.732  1.00  0.00    -0.407 N 
HETATM   20  H11 UNL     1      19.215   4.933  50.639  1.00  0.00     0.162 HD
HETATM   21  H20 UNL     1      24.670   4.800  50.051  1.00  0.00     0.154 HD
ENDROOT
BRANCH   1  22
HETATM   22  C2  UNL     1      23.067   6.387  50.961  1.00  0.00     0.020 C 
HETATM   23  C1  UNL     1      24.487   6.826  51.002  1.00  0.00     0.007 C 
ENDBRANCH   1  22
BRANCH  15  24
HETATM   24  N4  UNL     1      29.588   0.381  54.060  1.00  0.00    -0.383 N 
HETATM   25  H16 UNL     1      30.119   1.286  53.883  1.00  0.00     0.157 HD
HETATM   26  H17 UNL     1      30.397  -0.135  54.420  1.00  0.00     0.157 HD
ENDBRANCH  15  24
TORSDOF 2
ENDMDL
MODEL 5
REMARK VINA RESULT:      -7.0      2.501      7.059
REMARK  2 active torsions:
REMARK  status: ('A' for Active; 'I' for Inactive)
REMARK    1  A    between atoms: C2_2  and  C3_3 
REMARK    2  A    between atoms: C12_17  and  N4_18 
ROOT
HETATM    1  C3  UNL     1      22.929   2.274  50.513  1.00  0.00     0.078 C 
HETATM    2  C4  UNL     1      23.727   3.314  51.244  1.00  0.00     0.044 C 
HETATM    3  C5  UNL     1      25.262   3.106  50.919  1.00  0.00     0.124 C 
HETATM    4  N1  UNL     1      25.565   1.859  51.570  1.00  0.00    -0.359 N 
HETATM    5  C6  UNL     1      25.862   0.630  52.211  1.00  0.00     0.243 C 
HETATM    6  O1  UNL     1      27.015   0.250  52.040  1.00  0.00    -0.271 OA
HETATM    7  C7  UNL     1      25.064  -0.299  53.053  1.00  0.00     0.306 C 
HETATM    8  O2  UNL     1      23.760   0.227  53.195  1.00  0.00    -0.247 OA
HETATM    9  N2  UNL     1      22.704  -0.511  53.626  1.00  0.00    -0.145 NA
HETATM   10  C8  UNL     1      21.507  -0.407  53.265  1.00  0.00     0.158 C 
HETATM   11  C9  UNL     1      20.506   0.267  52.438  1.00  0.00     0.016 C 
HETATM   12  C10 UNL     1      19.142  -0.206  52.548  1.00  0.00     0.084 A 
HETATM   13  C11 UNL     1      18.197   0.457  51.812  1.00  0.00     0.151 A 
HETATM   14  N3  UNL     1      16.910   0.010  51.905  1.00  0.00    -0.240 NA
HETATM   15  C12 UNL     1      16.692  -1.059  52.729  1.00  0.00     0.138 A 
HETATM   16  C13 UNL     1      17.627  -1.732  53.472  1.00  0.00     0.167 A 
HETATM   17  N5  UNL     1      18.881  -1.247  53.341  1.00  0.00    -0.255 NA
HETATM   18  C14 UNL     1      21.296   1.126  51.874  1.00  0.00     0.141 C 
HETATM   19  N6  UNL     1      21.572   2.222  50.978  1.00  0.00    -0.407 N 
HETATM   20  H11 UNL     1      26.537   2.038  51.131  1.00  0.00     0.162 HD
HETATM   21  H20 UNL     1      21.190   3.088  50.482  1.00  0.00     0.154 HD
ENDROOT
BRANCH   1  22
HETATM   22  C2  UNL     1      23.022   2.468  49.007  1.00  0.00     0.020 C 
HETATM   23  C1  UNL     1      22.016   1.697  48.230  1.00  0.00     0.007 C 
ENDBRANCH   1  22
BRANCH  15  24
HETATM   24  N4  UNL     1      15.341  -1.438  52.742  1.00  0.00    -0.383 N 
HETATM   25  H16 UNL     1      15.333  -2.113  53.565  1.00  0.00     0.157 HD
HETATM   26  H17 UNL     1      14.343  -1.537  52.528  1.00  0.00     0.157 HD
ENDBRANCH  15  24
TORSDOF 2
ENDMDL
MODEL 6
REMARK VINA RESULT:      -7.0      2.790      4.114
REMARK  2 active torsions:
REMARK  status: ('A' for Active; 'I' for Inactive)
REMARK    1  A    between atoms: C2_2  and  C3_3 
REMARK    2  A    between atoms: C12_17  and  N4_18 
ROOT
HETATM    1  C3  UNL     1      20.777   1.773  51.646  1.00  0.00     0.078 C 
HETATM    2  C4  UNL     1      19.933   2.732  52.433  1.00  0.00     0.044 C 
HETATM    3  C5  UNL     1      19.083   3.612  51.428  1.00  0.00     0.124 C 
HETATM    4  N1  UNL     1      20.082   4.419  50.780  1.00  0.00    -0.359 N 
HETATM    5  C6  UNL     1      21.067   5.214  50.141  1.00  0.00     0.243 C 
HETATM    6  O1  UNL     1      20.619   5.951  49.270  1.00  0.00    -0.271 OA
HETATM    7  C7  UNL     1      22.538   5.343  50.309  1.00  0.00     0.306 C 
HETATM    8  O2  UNL     1      22.956   4.462  51.333  1.00  0.00    -0.247 OA
HETATM    9  N2  UNL     1      24.251   4.100  51.519  1.00  0.00    -0.145 NA
HETATM   10  C8  UNL     1      24.679   2.990  51.919  1.00  0.00     0.158 C 
HETATM   11  C9  UNL     1      24.390   1.631  52.374  1.00  0.00     0.016 C 
HETATM   12  C10 UNL     1      25.527   0.797  52.704  1.00  0.00     0.084 A 
HETATM   13  C11 UNL     1      25.255  -0.459  53.177  1.00  0.00     0.151 A 
HETATM   14  N3  UNL     1      26.323  -1.254  53.481  1.00  0.00    -0.240 NA
HETATM   15  C12 UNL     1      27.563  -0.713  53.284  1.00  0.00     0.138 A 
HETATM   16  C13 UNL     1      27.850   0.542  52.813  1.00  0.00     0.167 A 
HETATM   17  N5  UNL     1      26.757   1.281  52.528  1.00  0.00    -0.255 NA
HETATM   18  C14 UNL     1      23.098   1.698  52.316  1.00  0.00     0.141 C 
HETATM   19  N6  UNL     1      21.774   1.146  52.466  1.00  0.00    -0.407 N 
HETATM   20  H11 UNL     1      19.222   4.779  50.233  1.00  0.00     0.162 HD
HETATM   21  H20 UNL     1      21.155   0.432  52.967  1.00  0.00     0.154 HD
ENDROOT
BRANCH   1  22
HETATM   22  C2  UNL     1      19.915   0.764  50.902  1.00  0.00     0.020 C 
HETATM   23  C1  UNL     1      19.036  -0.052  51.780  1.00  0.00     0.007 C 
ENDBRANCH   1  22
BRANCH  15  24
HETATM   24  N4  UNL     1      28.583  -1.617  53.621  1.00  0.00    -0.383 N 
HETATM   25  H16 UNL     1      28.048  -2.536  53.599  1.00  0.00     0.157 HD
HETATM   26  H17 UNL     1      29.483  -2.037  53.876  1.00  0.00     0.157 HD
ENDBRANCH  15  24
TORSDOF 2
ENDMDL
MODEL 7
REMARK VINA RESULT:      -7.0      3.775      6.719
REMARK  2 active torsions:
REMARK  status: ('A' for Active; 'I' for Inactive)
REMARK    1  A    between atoms: C2_2  and  C3_3 
REMARK    2  A    between atoms: C12_17  and  N4_18 
ROOT
HETATM    1  C3  UNL     1      23.316   5.661  50.803  1.00  0.00     0.078 C 
HETATM    2  C4  UNL     1      24.303   6.620  51.401  1.00  0.00     0.044 C 
HETATM    3  C5  UNL     1      25.159   7.269  50.237  1.00  0.00     0.124 C 
HETATM    4  N1  UNL     1      25.940   6.161  49.755  1.00  0.00    -0.359 N 
HETATM    5  C6  UNL     1      26.710   5.069  49.279  1.00  0.00     0.243 C 
HETATM    6  O1  UNL     1      27.424   5.347  48.323  1.00  0.00    -0.271 OA
HETATM    7  C7  UNL     1      26.834   3.649  49.702  1.00  0.00     0.306 C 
HETATM    8  O2  UNL     1      25.981   3.431  50.808  1.00  0.00    -0.247 OA
HETATM    9  N2  UNL     1      25.615   2.194  51.232  1.00  0.00    -0.145 NA
HETATM   10  C8  UNL     1      24.515   1.855  51.731  1.00  0.00     0.158 C 
HETATM   11  C9  UNL     1      23.172   2.237  52.165  1.00  0.00     0.016 C 
HETATM   12  C10 UNL     1      22.340   1.187  52.715  1.00  0.00     0.084 A 
HETATM   13  C11 UNL     1      21.101   1.552  53.166  1.00  0.00     0.151 A 
HETATM   14  N3  UNL     1      20.308   0.565  53.678  1.00  0.00    -0.240 NA
HETATM   15  C12 UNL     1      20.835  -0.697  53.689  1.00  0.00     0.138 A 
HETATM   16  C13 UNL     1      22.073  -1.078  53.242  1.00  0.00     0.167 A 
HETATM   17  N5  UNL     1      22.811  -0.061  52.747  1.00  0.00    -0.255 NA
HETATM   18  C14 UNL     1      23.246   3.497  51.876  1.00  0.00     0.141 C 
HETATM   19  N6  UNL     1      22.707   4.833  51.804  1.00  0.00    -0.407 N 
HETATM   20  H11 UNL     1      26.290   6.906  49.054  1.00  0.00     0.162 HD
HETATM   21  H20 UNL     1      22.012   5.539  52.207  1.00  0.00     0.154 HD
ENDROOT
BRANCH   1  22
HETATM   22  C2  UNL     1      22.292   6.389  49.946  1.00  0.00     0.020 C 
HETATM   23  C1  UNL     1      21.457   7.368  50.692  1.00  0.00     0.007 C 
ENDBRANCH   1  22
BRANCH  15  24
HETATM   24  N4  UNL     1      19.935  -1.631  54.226  1.00  0.00    -0.383 N 
HETATM   25  H16 UNL     1      19.988  -1.384  55.260  1.00  0.00     0.157 HD
HETATM   26  H17 UNL     1      19.255  -2.389  54.344  1.00  0.00     0.157 HD
ENDBRANCH  15  24
TORSDOF 2
ENDMDL
MODEL 8
REMARK VINA RESULT:      -6.9      2.371      3.648
REMARK  2 active torsions:
REMARK  status: ('A' for Active; 'I' for Inactive)
REMARK    1  A    between atoms: C2_2  and  C3_3 
REMARK    2  A    between atoms: C12_17  and  N4_18 
ROOT
HETATM    1  C3  UNL     1      20.678   1.099  52.467  1.00  0.00     0.078 C 
HETATM    2  C4  UNL     1      19.902   2.374  52.619  1.00  0.00     0.044 C 
HETATM    3  C5  UNL     1      18.826   2.462  51.462  1.00  0.00     0.124 C 
HETATM    4  N1  UNL     1      19.632   2.639  50.283  1.00  0.00    -0.359 N 
HETATM    5  C6  UNL     1      20.426   2.812  49.121  1.00  0.00     0.243 C 
HETATM    6  O1  UNL     1      19.779   2.856  48.081  1.00  0.00    -0.271 OA
HETATM    7  C7  UNL     1      21.889   2.955  48.900  1.00  0.00     0.306 C 
HETATM    8  O2  UNL     1      22.544   2.897  50.152  1.00  0.00    -0.247 OA
HETATM    9  N2  UNL     1      23.877   2.678  50.284  1.00  0.00    -0.145 NA
HETATM   10  C8  UNL     1      24.457   2.049  51.202  1.00  0.00     0.158 C 
HETATM   11  C9  UNL     1      24.361   1.292  52.450  1.00  0.00     0.016 C 
HETATM   12  C10 UNL     1      25.601   0.803  53.014  1.00  0.00     0.084 A 
HETATM   13  C11 UNL     1      25.518   0.137  54.207  1.00  0.00     0.151 A 
HETATM   14  N3  UNL     1      26.683  -0.334  54.741  1.00  0.00    -0.240 NA
HETATM   15  C12 UNL     1      27.823  -0.091  54.027  1.00  0.00     0.138 A 
HETATM   16  C13 UNL     1      27.923   0.574  52.833  1.00  0.00     0.167 A 
HETATM   17  N5  UNL     1      26.740   1.017  52.354  1.00  0.00    -0.255 NA
HETATM   18  C14 UNL     1      23.076   1.363  52.599  1.00  0.00     0.141 C 
HETATM   19  N6  UNL     1      21.846   1.085  53.299  1.00  0.00    -0.407 N 
HETATM   20  H11 UNL     1      18.665   2.611  49.799  1.00  0.00     0.162 HD
HETATM   21  H20 UNL     1      21.382   0.873  54.239  1.00  0.00     0.154 HD
ENDROOT
BRANCH   1  22
HETATM   22  C2  UNL     1      19.788  -0.115  52.689  1.00  0.00     0.020 C 
HETATM   23  C1  UNL     1      20.242  -1.011  53.786  1.00  0.00     0.007 C 
ENDBRANCH   1  22
BRANCH  15  24
HETATM   24  N4  UNL     1      28.957  -0.625  54.661  1.00  0.00    -0.383 N 
HETATM   25  H16 UNL     1      29.088   0.075  55.452  1.00  0.00     0.157 HD
HETATM   26  H17 UNL     1      29.760  -1.208  54.915  1.00  0.00     0.157 HD
ENDBRANCH  15  24
TORSDOF 2
ENDMDL
MODEL 9
REMARK VINA RESULT:      -6.9      3.597      5.398
REMARK  2 active torsions:
REMARK  status: ('A' for Active; 'I' for Inactive)
REMARK    1  A    between atoms: C2_2  and  C3_3 
REMARK    2  A    between atoms: C12_17  and  N4_18 
ROOT
HETATM    1  C3  UNL     1      22.362   1.405  52.196  1.00  0.00     0.078 C 
HETATM    2  C4  UNL     1      22.198  -0.050  51.866  1.00  0.00     0.044 C 
HETATM    3  C5  UNL     1      22.250  -0.890  53.207  1.00  0.00     0.124 C 
HETATM    4  N1  UNL     1      23.618  -0.742  53.628  1.00  0.00    -0.359 N 
HETATM    5  C6  UNL     1      24.966  -0.595  54.044  1.00  0.00     0.243 C 
HETATM    6  O1  UNL     1      25.216  -1.141  55.112  1.00  0.00    -0.271 OA
HETATM    7  C7  UNL     1      26.147   0.084  53.449  1.00  0.00     0.306 C 
HETATM    8  O2  UNL     1      25.760   0.674  52.224  1.00  0.00    -0.247 OA
HETATM    9  N2  UNL     1      26.496   1.624  51.591  1.00  0.00    -0.145 NA
HETATM   10  C8  UNL     1      26.069   2.590  50.914  1.00  0.00     0.158 C 
HETATM   11  C9  UNL     1      24.928   3.325  50.369  1.00  0.00     0.016 C 
HETATM   12  C10 UNL     1      25.225   4.501  49.579  1.00  0.00     0.084 A 
HETATM   13  C11 UNL     1      24.160   5.161  49.028  1.00  0.00     0.151 A 
HETATM   14  N3  UNL     1      24.433   6.276  48.289  1.00  0.00    -0.240 NA
HETATM   15  C12 UNL     1      25.750   6.623  48.171  1.00  0.00     0.138 A 
HETATM   16  C13 UNL     1      26.827   5.973  48.716  1.00  0.00     0.167 A 
HETATM   17  N5  UNL     1      26.496   4.879  49.436  1.00  0.00    -0.255 NA
HETATM   18  C14 UNL     1      23.990   2.562  50.835  1.00  0.00     0.141 C 
HETATM   19  N6  UNL     1      22.608   2.191  51.022  1.00  0.00    -0.407 N 
HETATM   20  H11 UNL     1      23.268  -1.332  54.464  1.00  0.00     0.162 HD
HETATM   21  H20 UNL     1      21.613   2.232  50.634  1.00  0.00     0.154 HD
ENDROOT
BRANCH   1  22
HETATM   22  C2  UNL     1      21.184   1.922  53.008  1.00  0.00     0.020 C 
HETATM   23  C1  UNL     1      20.416   3.008  52.344  1.00  0.00     0.007 C 
ENDBRANCH   1  22
BRANCH  15  24
HETATM   24  N4  UNL     1      25.915   7.785  47.400  1.00  0.00    -0.383 N 
HETATM   25  H16 UNL     1      26.968   7.774  47.250  1.00  0.00     0.157 HD
HETATM   26  H17 UNL     1      25.752   8.648  46.872  1.00  0.00     0.157 HD
ENDBRANCH  15  24
TORSDOF 2
ENDMDL
