MODEL 1
REMARK VINA RESULT:      -7.9      0.000      0.000
REMARK  9 active torsions:
REMARK  status: ('A' for Active; 'I' for Inactive)
REMARK    1  A    between atoms: C2_2  and  C3_3 
REMARK    2  A    between atoms: C3_3  and  C4_4 
REMARK    3  A    between atoms: C4_4  and  C5_5 
REMARK    4  A    between atoms: C5_5  and  C6_6 
REMARK    5  A    between atoms: C6_6  and  C7_7 
REMARK       I    between atoms: C7_7  and  N1_9 
REMARK    6  A    between atoms: N1_9  and  C8_10 
REMARK    7  A    between atoms: C12_14  and  N2_15 
REMARK    8  A    between atoms: N2_15  and  C13_16 
REMARK    9  A    between atoms: C16_20  and  C17_21 
ROOT
HETATM    1  C8  UNL     1      28.562   6.035  48.198  1.00  0.00     0.036 A 
HETATM    2  C9  UNL     1      28.097   7.318  48.439  1.00  0.00     0.029 A 
HETATM    3  C10 UNL     1      26.863   7.494  49.026  1.00  0.00     0.004 A 
HETATM    4  C11 UNL     1      26.099   6.402  49.367  1.00  0.00     0.030 A 
HETATM    5  C12 UNL     1      26.554   5.135  49.129  1.00  0.00     0.051 A 
HETATM    6  C21 UNL     1      27.781   4.927  48.547  1.00  0.00     0.059 A 
ENDROOT
BRANCH   5   7
HETATM    7  N2  UNL     1      25.771   3.977  49.461  1.00  0.00    -0.188 N 
HETATM    8  H16 UNL     1      25.208   3.485  48.737  1.00  0.00     0.184 HD
BRANCH   7   9
HETATM    9  C13 UNL     1      25.625   3.340  50.714  1.00  0.00     0.727 A 
HETATM   10  N3  UNL     1      24.500   3.797  51.337  1.00  0.00    -0.075 NA
HETATM   11  C14 UNL     1      24.179   3.313  52.556  1.00  0.00     0.138 A 
HETATM   12  C15 UNL     1      24.994   2.384  53.120  1.00  0.00     0.048 A 
HETATM   13  C16 UNL     1      26.151   1.903  52.499  1.00  0.00     0.067 A 
HETATM   14  N5  UNL     1      26.435   2.406  51.294  1.00  0.00    -0.066 NA
BRANCH  13  15
HETATM   15  C17 UNL     1      27.008   0.891  53.160  1.00  0.00     0.103 A 
HETATM   16  C18 UNL     1      26.989  -0.356  52.315  1.00  0.00     0.009 A 
HETATM   17  C19 UNL     1      26.454  -1.333  53.026  1.00  0.00     0.113 A 
HETATM   18  N4  UNL     1      26.097  -0.841  54.322  1.00  0.00    -0.276 NA
HETATM   19  C20 UNL     1      26.403   0.428  54.420  1.00  0.00     0.104 A 
ENDBRANCH  13  15
ENDBRANCH   7   9
ENDBRANCH   5   7
BRANCH   1  20
HETATM   20  N1  UNL     1      29.806   5.659  47.595  1.00  0.00    -0.327 N 
HETATM   21  C7  UNL     1      31.012   5.554  48.342  1.00  0.00     0.222 C 
HETATM   22  O1  UNL     1      30.930   5.811  49.572  1.00  0.00    -0.273 OA
HETATM   23  H12 UNL     1      29.575   5.512  46.587  1.00  0.00     0.169 HD
BRANCH  21  24
HETATM   24  C6  UNL     1      32.181   5.146  47.491  1.00  0.00     0.103 C 
BRANCH  24  25
HETATM   25  C5  UNL     1      32.183   3.698  47.188  1.00  0.00     0.010 C 
BRANCH  25  26
HETATM   26  C4  UNL     1      33.293   2.859  47.667  1.00  0.00     0.004 C 
BRANCH  26  27
HETATM   27  C3  UNL     1      34.691   3.278  47.437  1.00  0.00     0.026 C 
BRANCH  27  28
HETATM   28  C2  UNL     1      35.113   3.159  46.047  1.00  0.00    -0.037 C 
HETATM   29  C1  UNL     1      35.077   4.094  45.080  1.00  0.00     0.007 C 
ENDBRANCH  27  28
ENDBRANCH  26  27
ENDBRANCH  25  26
ENDBRANCH  24  25
ENDBRANCH  21  24
ENDBRANCH   1  20
TORSDOF 9
ENDMDL
MODEL 2
REMARK VINA RESULT:      -7.6      5.053      8.008
REMARK  9 active torsions:
REMARK  status: ('A' for Active; 'I' for Inactive)
REMARK    1  A    between atoms: C2_2  and  C3_3 
REMARK    2  A    between atoms: C3_3  and  C4_4 
REMARK    3  A    between atoms: C4_4  and  C5_5 
REMARK    4  A    between atoms: C5_5  and  C6_6 
REMARK    5  A    between atoms: C6_6  and  C7_7 
REMARK       I    between atoms: C7_7  and  N1_9 
REMARK    6  A    between atoms: N1_9  and  C8_10 
REMARK    7  A    between atoms: C12_14  and  N2_15 
REMARK    8  A    between atoms: N2_15  and  C13_16 
REMARK    9  A    between atoms: C16_20  and  C17_21 
ROOT
HETATM    1  C8  UNL     1      24.982  -0.763  54.356  1.00  0.00     0.036 A 
HETATM    2  C9  UNL     1      24.273  -1.331  55.403  1.00  0.00     0.029 A 
HETATM    3  C10 UNL     1      22.898  -1.369  55.351  1.00  0.00     0.004 A 
HETATM    4  C11 UNL     1      22.233  -0.844  54.267  1.00  0.00     0.030 A 
HETATM    5  C12 UNL     1      22.929  -0.283  53.232  1.00  0.00     0.051 A 
HETATM    6  C21 UNL     1      24.302  -0.232  53.254  1.00  0.00     0.059 A 
ENDROOT
BRANCH   5   7
HETATM    7  N2  UNL     1      22.260   0.286  52.094  1.00  0.00    -0.188 N 
HETATM    8  H16 UNL     1      21.831  -0.321  51.365  1.00  0.00     0.184 HD
BRANCH   7   9
HETATM    9  C13 UNL     1      22.072   1.649  51.772  1.00  0.00     0.727 A 
HETATM   10  N3  UNL     1      21.041   2.159  52.508  1.00  0.00    -0.075 NA
HETATM   11  C14 UNL     1      20.695   3.454  52.348  1.00  0.00     0.138 A 
HETATM   12  C15 UNL     1      21.390   4.205  51.454  1.00  0.00     0.048 A 
HETATM   13  C16 UNL     1      22.449   3.702  50.691  1.00  0.00     0.067 A 
HETATM   14  N5  UNL     1      22.761   2.417  50.878  1.00  0.00    -0.066 NA
BRANCH  13  15
HETATM   15  C17 UNL     1      23.172   4.564  49.727  1.00  0.00     0.103 A 
HETATM   16  C18 UNL     1      24.456   3.868  49.356  1.00  0.00     0.009 A 
HETATM   17  C19 UNL     1      25.467   4.621  49.750  1.00  0.00     0.113 A 
HETATM   18  N4  UNL     1      24.965   5.806  50.377  1.00  0.00    -0.276 NA
HETATM   19  C20 UNL     1      23.656   5.794  50.376  1.00  0.00     0.104 A 
ENDBRANCH  13  15
ENDBRANCH   7   9
ENDBRANCH   5   7
BRANCH   1  20
HETATM   20  N1  UNL     1      26.403  -0.628  54.238  1.00  0.00    -0.327 N 
HETATM   21  C7  UNL     1      27.157  -1.339  53.265  1.00  0.00     0.222 C 
HETATM   22  O1  UNL     1      26.505  -2.101  52.503  1.00  0.00    -0.273 OA
HETATM   23  H12 UNL     1      26.664   0.055  54.985  1.00  0.00     0.169 HD
BRANCH  21  24
HETATM   24  C6  UNL     1      28.626  -1.033  53.339  1.00  0.00     0.103 C 
BRANCH  24  25
HETATM   25  C5  UNL     1      28.926   0.079  54.267  1.00  0.00     0.010 C 
BRANCH  25  26
HETATM   26  C4  UNL     1      29.102   1.440  53.736  1.00  0.00     0.004 C 
BRANCH  26  27
HETATM   27  C3  UNL     1      27.928   2.313  53.534  1.00  0.00     0.026 C 
BRANCH  27  28
HETATM   28  C2  UNL     1      27.511   2.416  52.142  1.00  0.00    -0.037 C 
HETATM   29  C1  UNL     1      26.590   1.686  51.489  1.00  0.00     0.007 C 
ENDBRANCH  27  28
ENDBRANCH  26  27
ENDBRANCH  25  26
ENDBRANCH  24  25
ENDBRANCH  21  24
ENDBRANCH   1  20
TORSDOF 9
ENDMDL
MODEL 3
REMARK VINA RESULT:      -7.5      5.230      6.825
REMARK  9 active torsions:
REMARK  status: ('A' for Active; 'I' for Inactive)
REMARK    1  A    between atoms: C2_2  and  C3_3 
REMARK    2  A    between atoms: C3_3  and  C4_4 
REMARK    3  A    between atoms: C4_4  and  C5_5 
REMARK    4  A    between atoms: C5_5  and  C6_6 
REMARK    5  A    between atoms: C6_6  and  C7_7 
REMARK       I    between atoms: C7_7  and  N1_9 
REMARK    6  A    between atoms: N1_9  and  C8_10 
REMARK    7  A    between atoms: C12_14  and  N2_15 
REMARK    8  A    between atoms: N2_15  and  C13_16 
REMARK    9  A    between atoms: C16_20  and  C17_21 
ROOT
HETATM    1  C8  UNL     1      24.750   3.163  51.134  1.00  0.00     0.036 A 
HETATM    2  C9  UNL     1      24.939   4.193  50.226  1.00  0.00     0.029 A 
HETATM    3  C10 UNL     1      24.135   4.271  49.110  1.00  0.00     0.004 A 
HETATM    4  C11 UNL     1      23.153   3.331  48.900  1.00  0.00     0.030 A 
HETATM    5  C12 UNL     1      22.964   2.313  49.794  1.00  0.00     0.051 A 
HETATM    6  C21 UNL     1      23.749   2.209  50.916  1.00  0.00     0.059 A 
ENDROOT
BRANCH   5   7
HETATM    7  N2  UNL     1      21.955   1.309  49.591  1.00  0.00    -0.188 N 
HETATM    8  H16 UNL     1      21.907   0.770  48.703  1.00  0.00     0.184 HD
BRANCH   7   9
HETATM    9  C13 UNL     1      20.932   0.897  50.474  1.00  0.00     0.727 A 
HETATM   10  N3  UNL     1      19.728   0.926  49.832  1.00  0.00    -0.075 NA
HETATM   11  C14 UNL     1      18.613   0.568  50.505  1.00  0.00     0.138 A 
HETATM   12  C15 UNL     1      18.734   0.191  51.804  1.00  0.00     0.048 A 
HETATM   13  C16 UNL     1      19.957   0.154  52.480  1.00  0.00     0.067 A 
HETATM   14  N5  UNL     1      21.037   0.516  51.781  1.00  0.00    -0.066 NA
BRANCH  13  15
HETATM   15  C17 UNL     1      20.032  -0.261  53.901  1.00  0.00     0.103 A 
HETATM   16  C18 UNL     1      21.315   0.282  54.475  1.00  0.00     0.009 A 
HETATM   17  C19 UNL     1      22.072  -0.737  54.842  1.00  0.00     0.113 A 
HETATM   18  N4  UNL     1      21.392  -1.964  54.555  1.00  0.00    -0.276 NA
HETATM   19  C20 UNL     1      20.226  -1.716  54.017  1.00  0.00     0.104 A 
ENDBRANCH  13  15
ENDBRANCH   7   9
ENDBRANCH   5   7
BRANCH   1  20
HETATM   20  N1  UNL     1      25.487   2.917  52.337  1.00  0.00    -0.327 N 
HETATM   21  C7  UNL     1      26.737   2.238  52.339  1.00  0.00     0.222 C 
HETATM   22  O1  UNL     1      27.166   1.860  51.217  1.00  0.00    -0.273 OA
HETATM   23  H12 UNL     1      24.899   3.333  53.095  1.00  0.00     0.169 HD
BRANCH  21  24
HETATM   24  C6  UNL     1      27.315   2.101  53.718  1.00  0.00     0.103 C 
BRANCH  24  25
HETATM   25  C5  UNL     1      28.653   1.471  53.711  1.00  0.00     0.010 C 
BRANCH  25  26
HETATM   26  C4  UNL     1      28.819   0.114  54.257  1.00  0.00     0.004 C 
BRANCH  26  27
HETATM   27  C3  UNL     1      29.107  -1.018  53.352  1.00  0.00     0.026 C 
BRANCH  27  28
HETATM   28  C2  UNL     1      27.941  -1.839  53.057  1.00  0.00    -0.037 C 
HETATM   29  C1  UNL     1      26.782  -1.468  52.482  1.00  0.00     0.007 C 
ENDBRANCH  27  28
ENDBRANCH  26  27
ENDBRANCH  25  26
ENDBRANCH  24  25
ENDBRANCH  21  24
ENDBRANCH   1  20
TORSDOF 9
ENDMDL
MODEL 4
REMARK VINA RESULT:      -7.3      3.562      6.574
REMARK  9 active torsions:
REMARK  status: ('A' for Active; 'I' for Inactive)
REMARK    1  A    between atoms: C2_2  and  C3_3 
REMARK    2  A    between atoms: C3_3  and  C4_4 
REMARK    3  A    between atoms: C4_4  and  C5_5 
REMARK    4  A    between atoms: C5_5  and  C6_6 
REMARK    5  A    between atoms: C6_6  and  C7_7 
REMARK       I    between atoms: C7_7  and  N1_9 
REMARK    6  A    between atoms: N1_9  and  C8_10 
REMARK    7  A    between atoms: C12_14  and  N2_15 
REMARK    8  A    between atoms: N2_15  and  C13_16 
REMARK    9  A    between atoms: C16_20  and  C17_21 
ROOT
HETATM    1  C8  UNL     1      25.797   6.631  48.424  1.00  0.00     0.036 A 
HETATM    2  C9  UNL     1      27.030   7.110  48.008  1.00  0.00     0.029 A 
HETATM    3  C10 UNL     1      28.140   6.299  48.101  1.00  0.00     0.004 A 
HETATM    4  C11 UNL     1      28.023   5.024  48.605  1.00  0.00     0.030 A 
HETATM    5  C12 UNL     1      26.808   4.549  49.016  1.00  0.00     0.051 A 
HETATM    6  C21 UNL     1      25.683   5.333  48.935  1.00  0.00     0.059 A 
ENDROOT
BRANCH   5   7
HETATM    7  N2  UNL     1      26.660   3.227  49.561  1.00  0.00    -0.188 N 
HETATM    8  H16 UNL     1      26.750   2.385  48.956  1.00  0.00     0.184 HD
BRANCH   7   9
HETATM    9  C13 UNL     1      26.391   2.848  50.895  1.00  0.00     0.727 A 
HETATM   10  N3  UNL     1      25.065   3.030  51.168  1.00  0.00    -0.075 NA
HETATM   11  C14 UNL     1      24.599   2.727  52.399  1.00  0.00     0.138 A 
HETATM   12  C15 UNL     1      25.473   2.252  53.324  1.00  0.00     0.048 A 
HETATM   13  C16 UNL     1      26.833   2.059  53.064  1.00  0.00     0.067 A 
HETATM   14  N5  UNL     1      27.256   2.369  51.836  1.00  0.00    -0.066 NA
BRANCH  13  15
HETATM   15  C17 UNL     1      27.744   1.540  54.112  1.00  0.00     0.103 A 
HETATM   16  C18 UNL     1      29.027   1.120  53.443  1.00  0.00     0.009 A 
HETATM   17  C19 UNL     1      29.183  -0.180  53.620  1.00  0.00     0.113 A 
HETATM   18  N4  UNL     1      28.081  -0.695  54.374  1.00  0.00    -0.276 NA
HETATM   19  C20 UNL     1      27.246   0.270  54.665  1.00  0.00     0.104 A 
ENDBRANCH  13  15
ENDBRANCH   7   9
ENDBRANCH   5   7
BRANCH   1  20
HETATM   20  N1  UNL     1      24.544   7.326  48.410  1.00  0.00    -0.327 N 
HETATM   21  C7  UNL     1      24.182   8.260  49.419  1.00  0.00     0.222 C 
HETATM   22  O1  UNL     1      25.026   8.448  50.334  1.00  0.00    -0.273 OA
HETATM   23  H12 UNL     1      24.060   6.976  47.553  1.00  0.00     0.169 HD
BRANCH  21  24
HETATM   24  C6  UNL     1      22.823   8.857  49.187  1.00  0.00     0.103 C 
BRANCH  24  25
HETATM   25  C5  UNL     1      21.730   7.892  49.443  1.00  0.00     0.010 C 
BRANCH  25  26
HETATM   26  C4  UNL     1      21.526   7.372  50.804  1.00  0.00     0.004 C 
BRANCH  26  27
HETATM   27  C3  UNL     1      21.972   6.007  51.150  1.00  0.00     0.026 C 
BRANCH  27  28
HETATM   28  C2  UNL     1      22.123   5.133  49.993  1.00  0.00    -0.037 C 
HETATM   29  C1  UNL     1      21.379   4.067  49.649  1.00  0.00     0.007 C 
ENDBRANCH  27  28
ENDBRANCH  26  27
ENDBRANCH  25  26
ENDBRANCH  24  25
ENDBRANCH  21  24
ENDBRANCH   1  20
TORSDOF 9
ENDMDL
MODEL 5
REMARK VINA RESULT:      -7.3      5.349      8.950
REMARK  9 active torsions:
REMARK  status: ('A' for Active; 'I' for Inactive)
REMARK    1  A    between atoms: C2_2  and  C3_3 
REMARK    2  A    between atoms: C3_3  and  C4_4 
REMARK    3  A    between atoms: C4_4  and  C5_5 
REMARK    4  A    between atoms: C5_5  and  C6_6 
REMARK    5  A    between atoms: C6_6  and  C7_7 
REMARK       I    between atoms: C7_7  and  N1_9 
REMARK    6  A    between atoms: N1_9  and  C8_10 
REMARK    7  A    between atoms: C12_14  and  N2_15 
REMARK    8  A    between atoms: N2_15  and  C13_16 
REMARK    9  A    between atoms: C16_20  and  C17_21 
ROOT
HETATM    1  C8  UNL     1      19.383   0.712  51.626  1.00  0.00     0.036 A 
HETATM    2  C9  UNL     1      18.105   0.175  51.582  1.00  0.00     0.029 A 
HETATM    3  C10 UNL     1      17.744  -0.796  52.490  1.00  0.00     0.004 A 
HETATM    4  C11 UNL     1      18.647  -1.231  53.432  1.00  0.00     0.030 A 
HETATM    5  C12 UNL     1      19.909  -0.704  53.478  1.00  0.00     0.051 A 
HETATM    6  C21 UNL     1      20.298   0.267  52.587  1.00  0.00     0.059 A 
ENDROOT
BRANCH   5   7
HETATM    7  N2  UNL     1      20.878  -1.150  54.441  1.00  0.00    -0.188 N 
HETATM    8  H16 UNL     1      20.588  -1.692  55.281  1.00  0.00     0.184 HD
BRANCH   7   9
HETATM    9  C13 UNL     1      22.278  -0.960  54.437  1.00  0.00     0.727 A 
HETATM   10  N3  UNL     1      22.824  -1.518  55.557  1.00  0.00    -0.075 NA
HETATM   11  C14 UNL     1      24.159  -1.443  55.746  1.00  0.00     0.138 A 
HETATM   12  C15 UNL     1      24.912  -0.810  54.810  1.00  0.00     0.048 A 
HETATM   13  C16 UNL     1      24.372  -0.232  53.656  1.00  0.00     0.067 A 
HETATM   14  N5  UNL     1      23.049  -0.327  53.504  1.00  0.00    -0.066 NA
BRANCH  13  15
HETATM   15  C17 UNL     1      25.239   0.451  52.667  1.00  0.00     0.103 A 
HETATM   16  C18 UNL     1      26.499  -0.362  52.516  1.00  0.00     0.009 A 
HETATM   17  C19 UNL     1      27.521   0.377  52.911  1.00  0.00     0.113 A 
HETATM   18  N4  UNL     1      27.049   1.661  53.330  1.00  0.00    -0.276 NA
HETATM   19  C20 UNL     1      25.748   1.725  53.200  1.00  0.00     0.104 A 
ENDBRANCH  13  15
ENDBRANCH   7   9
ENDBRANCH   5   7
BRANCH   1  20
HETATM   20  N1  UNL     1      19.935   1.716  50.768  1.00  0.00    -0.327 N 
HETATM   21  C7  UNL     1      19.962   3.092  51.125  1.00  0.00     0.222 C 
HETATM   22  O1  UNL     1      19.471   3.386  52.246  1.00  0.00    -0.273 OA
HETATM   23  H12 UNL     1      20.260   1.190  49.925  1.00  0.00     0.169 HD
BRANCH  21  24
HETATM   24  C6  UNL     1      20.590   3.949  50.063  1.00  0.00     0.103 C 
BRANCH  24  25
HETATM   25  C5  UNL     1      21.804   4.645  50.542  1.00  0.00     0.010 C 
BRANCH  25  26
HETATM   26  C4  UNL     1      22.922   3.859  51.088  1.00  0.00     0.004 C 
BRANCH  26  27
HETATM   27  C3  UNL     1      23.832   3.133  50.177  1.00  0.00     0.026 C 
BRANCH  27  28
HETATM   28  C2  UNL     1      25.163   3.718  50.096  1.00  0.00    -0.037 C 
HETATM   29  C1  UNL     1      26.314   3.129  49.724  1.00  0.00     0.007 C 
ENDBRANCH  27  28
ENDBRANCH  26  27
ENDBRANCH  25  26
ENDBRANCH  24  25
ENDBRANCH  21  24
ENDBRANCH   1  20
TORSDOF 9
ENDMDL
MODEL 6
REMARK VINA RESULT:      -7.2      3.775      6.806
REMARK  9 active torsions:
REMARK  status: ('A' for Active; 'I' for Inactive)
REMARK    1  A    between atoms: C2_2  and  C3_3 
REMARK    2  A    between atoms: C3_3  and  C4_4 
REMARK    3  A    between atoms: C4_4  and  C5_5 
REMARK    4  A    between atoms: C5_5  and  C6_6 
REMARK    5  A    between atoms: C6_6  and  C7_7 
REMARK       I    between atoms: C7_7  and  N1_9 
REMARK    6  A    between atoms: N1_9  and  C8_10 
REMARK    7  A    between atoms: C12_14  and  N2_15 
REMARK    8  A    between atoms: N2_15  and  C13_16 
REMARK    9  A    between atoms: C16_20  and  C17_21 
ROOT
HETATM    1  C8  UNL     1      26.821   1.202  52.422  1.00  0.00     0.036 A 
HETATM    2  C9  UNL     1      27.956   1.279  53.214  1.00  0.00     0.029 A 
HETATM    3  C10 UNL     1      27.971   0.656  54.443  1.00  0.00     0.004 A 
HETATM    4  C11 UNL     1      26.865  -0.035  54.880  1.00  0.00     0.030 A 
HETATM    5  C12 UNL     1      25.743  -0.113  54.101  1.00  0.00     0.051 A 
HETATM    6  C21 UNL     1      25.699   0.496  52.870  1.00  0.00     0.059 A 
ENDROOT
BRANCH   5   7
HETATM    7  N2  UNL     1      24.568  -0.816  54.538  1.00  0.00    -0.188 N 
HETATM    8  H16 UNL     1      24.625  -1.550  55.273  1.00  0.00     0.184 HD
BRANCH   7   9
HETATM    9  C13 UNL     1      23.234  -0.661  54.100  1.00  0.00     0.727 A 
HETATM   10  N3  UNL     1      22.411  -1.471  54.828  1.00  0.00    -0.075 NA
HETATM   11  C14 UNL     1      21.087  -1.475  54.563  1.00  0.00     0.138 A 
HETATM   12  C15 UNL     1      20.622  -0.668  53.575  1.00  0.00     0.048 A 
HETATM   13  C16 UNL     1      21.448   0.169  52.817  1.00  0.00     0.067 A 
HETATM   14  N5  UNL     1      22.751   0.144  53.109  1.00  0.00    -0.066 NA
BRANCH  13  15
HETATM   15  C17 UNL     1      20.888   1.027  51.746  1.00  0.00     0.103 A 
HETATM   16  C18 UNL     1      21.453   0.553  50.431  1.00  0.00     0.009 A 
HETATM   17  C19 UNL     1      22.168   1.534  49.908  1.00  0.00     0.113 A 
HETATM   18  N4  UNL     1      22.138   2.666  50.783  1.00  0.00    -0.276 NA
HETATM   19  C20 UNL     1      21.413   2.399  51.839  1.00  0.00     0.104 A 
ENDBRANCH  13  15
ENDBRANCH   7   9
ENDBRANCH   5   7
BRANCH   1  20
HETATM   20  N1  UNL     1      26.620   1.787  51.130  1.00  0.00    -0.327 N 
HETATM   21  C7  UNL     1      25.784   2.919  50.929  1.00  0.00     0.222 C 
HETATM   22  O1  UNL     1      25.224   3.386  51.955  1.00  0.00    -0.273 OA
HETATM   23  H12 UNL     1      27.197   1.201  50.485  1.00  0.00     0.169 HD
BRANCH  21  24
HETATM   24  C6  UNL     1      25.732   3.347  49.490  1.00  0.00     0.103 C 
BRANCH  24  25
HETATM   25  C5  UNL     1      26.312   4.692  49.278  1.00  0.00     0.010 C 
BRANCH  25  26
HETATM   26  C4  UNL     1      27.653   4.818  48.686  1.00  0.00     0.004 C 
BRANCH  26  27
HETATM   27  C3  UNL     1      28.130   6.131  48.206  1.00  0.00     0.026 C 
BRANCH  27  28
HETATM   28  C2  UNL     1      27.269   7.241  48.596  1.00  0.00    -0.037 C 
HETATM   29  C1  UNL     1      27.623   8.426  49.127  1.00  0.00     0.007 C 
ENDBRANCH  27  28
ENDBRANCH  26  27
ENDBRANCH  25  26
ENDBRANCH  24  25
ENDBRANCH  21  24
ENDBRANCH   1  20
TORSDOF 9
ENDMDL
MODEL 7
REMARK VINA RESULT:      -7.2      2.991      5.341
REMARK  9 active torsions:
REMARK  status: ('A' for Active; 'I' for Inactive)
REMARK    1  A    between atoms: C2_2  and  C3_3 
REMARK    2  A    between atoms: C3_3  and  C4_4 
REMARK    3  A    between atoms: C4_4  and  C5_5 
REMARK    4  A    between atoms: C5_5  and  C6_6 
REMARK    5  A    between atoms: C6_6  and  C7_7 
REMARK       I    between atoms: C7_7  and  N1_9 
REMARK    6  A    between atoms: N1_9  and  C8_10 
REMARK    7  A    between atoms: C12_14  and  N2_15 
REMARK    8  A    between atoms: N2_15  and  C13_16 
REMARK    9  A    between atoms: C16_20  and  C17_21 
ROOT
HETATM    1  C8  UNL     1      23.130   3.211  49.172  1.00  0.00     0.036 A 
HETATM    2  C9  UNL     1      22.634   2.500  48.090  1.00  0.00     0.029 A 
HETATM    3  C10 UNL     1      21.778   1.443  48.306  1.00  0.00     0.004 A 
HETATM    4  C11 UNL     1      21.421   1.094  49.588  1.00  0.00     0.030 A 
HETATM    5  C12 UNL     1      21.909   1.793  50.658  1.00  0.00     0.051 A 
HETATM    6  C21 UNL     1      22.763   2.853  50.475  1.00  0.00     0.059 A 
ENDROOT
BRANCH   5   7
HETATM    7  N2  UNL     1      21.565   1.441  52.009  1.00  0.00    -0.188 N 
HETATM    8  H16 UNL     1      20.721   1.840  52.468  1.00  0.00     0.184 HD
BRANCH   7   9
HETATM    9  C13 UNL     1      22.240   0.569  52.892  1.00  0.00     0.727 A 
HETATM   10  N3  UNL     1      21.342  -0.025  53.731  1.00  0.00    -0.075 NA
HETATM   11  C14 UNL     1      21.787  -0.899  54.660  1.00  0.00     0.138 A 
HETATM   12  C15 UNL     1      23.119  -1.154  54.724  1.00  0.00     0.048 A 
HETATM   13  C16 UNL     1      24.055  -0.556  53.875  1.00  0.00     0.067 A 
HETATM   14  N5  UNL     1      23.577   0.302  52.970  1.00  0.00    -0.066 NA
BRANCH  13  15
HETATM   15  C17 UNL     1      25.500  -0.867  53.991  1.00  0.00     0.103 A 
HETATM   16  C18 UNL     1      26.159   0.266  54.734  1.00  0.00     0.009 A 
HETATM   17  C19 UNL     1      27.039   0.836  53.929  1.00  0.00     0.113 A 
HETATM   18  N4  UNL     1      27.033   0.166  52.664  1.00  0.00    -0.276 NA
HETATM   19  C20 UNL     1      26.161  -0.809  52.676  1.00  0.00     0.104 A 
ENDBRANCH  13  15
ENDBRANCH   7   9
ENDBRANCH   5   7
BRANCH   1  20
HETATM   20  N1  UNL     1      24.029   4.325  49.143  1.00  0.00    -0.327 N 
HETATM   21  C7  UNL     1      25.438   4.170  49.257  1.00  0.00     0.222 C 
HETATM   22  O1  UNL     1      25.859   2.990  49.387  1.00  0.00    -0.273 OA
HETATM   23  H12 UNL     1      23.409   5.159  49.030  1.00  0.00     0.169 HD
BRANCH  21  24
HETATM   24  C6  UNL     1      26.167   5.482  49.200  1.00  0.00     0.103 C 
BRANCH  24  25
HETATM   25  C5  UNL     1      27.512   5.356  48.596  1.00  0.00     0.010 C 
BRANCH  25  26
HETATM   26  C4  UNL     1      28.218   6.564  48.140  1.00  0.00     0.004 C 
BRANCH  26  27
HETATM   27  C3  UNL     1      29.558   6.453  47.530  1.00  0.00     0.026 C 
BRANCH  27  28
HETATM   28  C2  UNL     1      30.542   5.817  48.398  1.00  0.00    -0.037 C 
HETATM   29  C1  UNL     1      31.741   6.288  48.786  1.00  0.00     0.007 C 
ENDBRANCH  27  28
ENDBRANCH  26  27
ENDBRANCH  25  26
ENDBRANCH  24  25
ENDBRANCH  21  24
ENDBRANCH   1  20
TORSDOF 9
ENDMDL
MODEL 8
REMARK VINA RESULT:      -7.2      1.666      2.401
REMARK  9 active torsions:
REMARK  status: ('A' for Active; 'I' for Inactive)
REMARK    1  A    between atoms: C2_2  and  C3_3 
REMARK    2  A    between atoms: C3_3  and  C4_4 
REMARK    3  A    between atoms: C4_4  and  C5_5 
REMARK    4  A    between atoms: C5_5  and  C6_6 
REMARK    5  A    between atoms: C6_6  and  C7_7 
REMARK       I    between atoms: C7_7  and  N1_9 
REMARK    6  A    between atoms: N1_9  and  C8_10 
REMARK    7  A    between atoms: C12_14  and  N2_15 
REMARK    8  A    between atoms: N2_15  and  C13_16 
REMARK    9  A    between atoms: C16_20  and  C17_21 
ROOT
HETATM    1  C8  UNL     1      28.208   6.173  48.220  1.00  0.00     0.036 A 
HETATM    2  C9  UNL     1      27.368   7.215  48.581  1.00  0.00     0.029 A 
HETATM    3  C10 UNL     1      26.203   6.944  49.264  1.00  0.00     0.004 A 
HETATM    4  C11 UNL     1      25.876   5.646  49.583  1.00  0.00     0.030 A 
HETATM    5  C12 UNL     1      26.703   4.615  49.228  1.00  0.00     0.051 A 
HETATM    6  C21 UNL     1      27.872   4.855  48.548  1.00  0.00     0.059 A 
ENDROOT
BRANCH   5   7
HETATM    7  N2  UNL     1      26.379   3.249  49.536  1.00  0.00    -0.188 N 
HETATM    8  H16 UNL     1      26.397   2.515  48.798  1.00  0.00     0.184 HD
BRANCH   7   9
HETATM    9  C13 UNL     1      26.011   2.688  50.779  1.00  0.00     0.727 A 
HETATM   10  N3  UNL     1      27.127   2.449  51.527  1.00  0.00    -0.075 NA
HETATM   11  C14 UNL     1      26.993   1.908  52.757  1.00  0.00     0.138 A 
HETATM   12  C15 UNL     1      25.743   1.621  53.206  1.00  0.00     0.048 A 
HETATM   13  C16 UNL     1      24.587   1.858  52.455  1.00  0.00     0.067 A 
HETATM   14  N5  UNL     1      24.761   2.394  51.244  1.00  0.00    -0.066 NA
BRANCH  13  15
HETATM   15  C17 UNL     1      23.247   1.522  52.991  1.00  0.00     0.103 A 
HETATM   16  C18 UNL     1      23.308   0.123  53.547  1.00  0.00     0.009 A 
HETATM   17  C19 UNL     1      22.476  -0.636  52.857  1.00  0.00     0.113 A 
HETATM   18  N4  UNL     1      21.836   0.151  51.848  1.00  0.00    -0.276 NA
HETATM   19  C20 UNL     1      22.261   1.387  51.906  1.00  0.00     0.104 A 
ENDBRANCH  13  15
ENDBRANCH   7   9
ENDBRANCH   5   7
BRANCH   1  20
HETATM   20  N1  UNL     1      29.447   6.261  47.506  1.00  0.00    -0.327 N 
HETATM   21  C7  UNL     1      30.692   5.919  48.100  1.00  0.00     0.222 C 
HETATM   22  O1  UNL     1      30.651   5.531  49.297  1.00  0.00    -0.273 OA
HETATM   23  H12 UNL     1      29.178   6.605  46.556  1.00  0.00     0.169 HD
BRANCH  21  24
HETATM   24  C6  UNL     1      31.847   6.093  47.154  1.00  0.00     0.103 C 
BRANCH  24  25
HETATM   25  C5  UNL     1      33.136   6.263  47.860  1.00  0.00     0.010 C 
BRANCH  25  26
HETATM   26  C4  UNL     1      33.974   5.085  48.132  1.00  0.00     0.004 C 
BRANCH  26  27
HETATM   27  C3  UNL     1      34.637   4.375  47.019  1.00  0.00     0.026 C 
BRANCH  27  28
HETATM   28  C2  UNL     1      34.146   3.018  46.820  1.00  0.00    -0.037 C 
HETATM   29  C1  UNL     1      33.083   2.422  47.390  1.00  0.00     0.007 C 
ENDBRANCH  27  28
ENDBRANCH  26  27
ENDBRANCH  25  26
ENDBRANCH  24  25
ENDBRANCH  21  24
ENDBRANCH   1  20
TORSDOF 9
ENDMDL
MODEL 9
REMARK VINA RESULT:      -7.1      5.529      8.476
REMARK  9 active torsions:
REMARK  status: ('A' for Active; 'I' for Inactive)
REMARK    1  A    between atoms: C2_2  and  C3_3 
REMARK    2  A    between atoms: C3_3  and  C4_4 
REMARK    3  A    between atoms: C4_4  and  C5_5 
REMARK    4  A    between atoms: C5_5  and  C6_6 
REMARK    5  A    between atoms: C6_6  and  C7_7 
REMARK       I    between atoms: C7_7  and  N1_9 
REMARK    6  A    between atoms: N1_9  and  C8_10 
REMARK    7  A    between atoms: C12_14  and  N2_15 
REMARK    8  A    between atoms: N2_15  and  C13_16 
REMARK    9  A    between atoms: C16_20  and  C17_21 
ROOT
HETATM    1  C8  UNL     1      19.993   0.420  51.214  1.00  0.00     0.036 A 
HETATM    2  C9  UNL     1      18.937  -0.032  51.991  1.00  0.00     0.029 A 
HETATM    3  C10 UNL     1      19.195  -0.643  53.198  1.00  0.00     0.004 A 
HETATM    4  C11 UNL     1      20.492  -0.806  53.627  1.00  0.00     0.030 A 
HETATM    5  C12 UNL     1      21.536  -0.361  52.863  1.00  0.00     0.051 A 
HETATM    6  C21 UNL     1      21.311   0.254  51.655  1.00  0.00     0.059 A 
ENDROOT
BRANCH   5   7
HETATM    7  N2  UNL     1      22.901  -0.531  53.279  1.00  0.00    -0.188 N 
HETATM    8  H16 UNL     1      23.223  -1.422  53.710  1.00  0.00     0.184 HD
BRANCH   7   9
HETATM    9  C13 UNL     1      23.970   0.389  53.193  1.00  0.00     0.727 A 
HETATM   10  N3  UNL     1      23.483   1.664  53.197  1.00  0.00    -0.075 NA
HETATM   11  C14 UNL     1      24.347   2.699  53.119  1.00  0.00     0.138 A 
HETATM   12  C15 UNL     1      25.676   2.429  53.038  1.00  0.00     0.048 A 
HETATM   13  C16 UNL     1      26.195   1.131  53.032  1.00  0.00     0.067 A 
HETATM   14  N5  UNL     1      25.309   0.134  53.111  1.00  0.00    -0.066 NA
BRANCH  13  15
HETATM   15  C17 UNL     1      27.654   0.892  52.938  1.00  0.00     0.103 A 
HETATM   16  C18 UNL     1      27.993  -0.266  53.840  1.00  0.00     0.009 A 
HETATM   17  C19 UNL     1      28.811   0.167  54.784  1.00  0.00     0.113 A 
HETATM   18  N4  UNL     1      29.063   1.563  54.595  1.00  0.00    -0.276 NA
HETATM   19  C20 UNL     1      28.412   1.998  53.546  1.00  0.00     0.104 A 
ENDBRANCH  13  15
ENDBRANCH   7   9
ENDBRANCH   5   7
BRANCH   1  20
HETATM   20  N1  UNL     1      19.921   1.068  49.938  1.00  0.00    -0.327 N 
HETATM   21  C7  UNL     1      20.012   2.479  49.796  1.00  0.00     0.222 C 
HETATM   22  O1  UNL     1      20.161   3.138  50.859  1.00  0.00    -0.273 OA
HETATM   23  H12 UNL     1      19.797   0.287  49.255  1.00  0.00     0.169 HD
BRANCH  21  24
HETATM   24  C6  UNL     1      19.908   2.920  48.363  1.00  0.00     0.103 C 
BRANCH  24  25
HETATM   25  C5  UNL     1      21.050   2.456  47.544  1.00  0.00     0.010 C 
BRANCH  25  26
HETATM   26  C4  UNL     1      22.406   2.475  48.115  1.00  0.00     0.004 C 
BRANCH  26  27
HETATM   27  C3  UNL     1      23.027   3.757  48.506  1.00  0.00     0.026 C 
BRANCH  27  28
HETATM   28  C2  UNL     1      24.007   3.627  49.576  1.00  0.00    -0.037 C 
HETATM   29  C1  UNL     1      25.349   3.612  49.483  1.00  0.00     0.007 C 
ENDBRANCH  27  28
ENDBRANCH  26  27
ENDBRANCH  25  26
ENDBRANCH  24  25
ENDBRANCH  21  24
ENDBRANCH   1  20
TORSDOF 9
ENDMDL
