MODEL 1
REMARK VINA RESULT:      -7.8      0.000      0.000
REMARK  5 active torsions:
REMARK  status: ('A' for Active; 'I' for Inactive)
REMARK    1  A    between atoms: C2_2  and  O1_3 
REMARK    2  A    between atoms: C8_9  and  N1_10 
REMARK    3  A    between atoms: N1_10  and  C9_11 
REMARK    4  A    between atoms: C9_11  and  S1_12 
REMARK    5  A    between atoms: S1_12  and  C10_15 
ROOT
HETATM    1  N1  UNL     1      24.972   2.847  52.391  1.00  0.00    -0.401 N 
HETATM    2  H12 UNL     1      25.477   3.399  51.691  1.00  0.00     0.154 HD
ENDROOT
BRANCH   1   3
HETATM    3  C8  UNL     1      23.645   3.222  52.709  1.00  0.00     0.118 C 
HETATM    4  C2  UNL     1      23.320   4.660  52.370  1.00  0.00     0.092 C 
HETATM    5  C1  UNL     1      21.832   4.864  52.427  1.00  0.00     0.052 C 
HETATM    6  C3  UNL     1      23.877   4.970  51.004  1.00  0.00     0.012 C 
HETATM    7  C4  UNL     1      23.990   4.159  49.963  1.00  0.00    -0.001 C 
HETATM    8  C5  UNL     1      23.642   2.756  49.763  1.00  0.00    -0.004 C 
HETATM    9  C6  UNL     1      23.082   1.924  50.643  1.00  0.00    -0.025 C 
HETATM   10  C7  UNL     1      22.697   2.260  52.013  1.00  0.00     0.055 C 
BRANCH   4  11
HETATM   11  O1  UNL     1      23.899   5.486  53.332  1.00  0.00    -0.384 OA
HETATM   12  H4  UNL     1      24.830   5.198  53.495  1.00  0.00     0.211 HD
ENDBRANCH   4  11
ENDBRANCH   1   3
BRANCH   1  13
HETATM   13  C9  UNL     1      25.718   2.333  53.478  1.00  0.00     0.261 C 
BRANCH  13  14
HETATM   14  S1  UNL     1      27.435   2.110  53.230  1.00  0.00     0.191 S 
HETATM   15  O2  UNL     1      28.286   2.656  54.320  1.00  0.00    -0.221 OA
HETATM   16  O3  UNL     1      27.919   2.703  51.947  1.00  0.00    -0.221 OA
BRANCH  14  17
HETATM   17  C10 UNL     1      27.772   0.373  53.150  1.00  0.00     0.061 A 
HETATM   18  C11 UNL     1      29.021  -0.113  53.535  1.00  0.00     0.026 A 
HETATM   19  C12 UNL     1      29.332  -1.457  53.491  1.00  0.00     0.044 A 
HETATM   20  C13 UNL     1      28.347  -2.297  53.047  1.00  0.00     0.116 A 
HETATM   21  F1  UNL     1      28.626  -3.616  52.994  1.00  0.00    -0.206 F 
HETATM   22  C14 UNL     1      27.079  -1.872  52.647  1.00  0.00     0.044 A 
HETATM   23  C15 UNL     1      26.814  -0.518  52.709  1.00  0.00     0.026 A 
ENDBRANCH  14  17
ENDBRANCH  13  14
ENDBRANCH   1  13
TORSDOF 5
ENDMDL
MODEL 2
REMARK VINA RESULT:      -7.8      1.309      2.246
REMARK  5 active torsions:
REMARK  status: ('A' for Active; 'I' for Inactive)
REMARK    1  A    between atoms: C2_2  and  O1_3 
REMARK    2  A    between atoms: C8_9  and  N1_10 
REMARK    3  A    between atoms: N1_10  and  C9_11 
REMARK    4  A    between atoms: C9_11  and  S1_12 
REMARK    5  A    between atoms: S1_12  and  C10_15 
ROOT
HETATM    1  N1  UNL     1      25.880   3.379  51.457  1.00  0.00    -0.401 N 
HETATM    2  H12 UNL     1      25.598   3.998  52.224  1.00  0.00     0.154 HD
ENDROOT
BRANCH   1   3
HETATM    3  C8  UNL     1      24.864   2.771  50.681  1.00  0.00     0.118 C 
HETATM    4  C2  UNL     1      23.678   2.297  51.492  1.00  0.00     0.092 C 
HETATM    5  C1  UNL     1      22.535   1.981  50.570  1.00  0.00     0.052 C 
HETATM    6  C3  UNL     1      23.316   3.369  52.488  1.00  0.00     0.012 C 
HETATM    7  C4  UNL     1      23.411   4.683  52.347  1.00  0.00    -0.001 C 
HETATM    8  C5  UNL     1      23.872   5.526  51.248  1.00  0.00    -0.004 C 
HETATM    9  C6  UNL     1      24.319   5.134  50.055  1.00  0.00    -0.025 C 
HETATM   10  C7  UNL     1      24.440   3.749  49.600  1.00  0.00     0.055 C 
BRANCH   4  11
HETATM   11  O1  UNL     1      24.032   1.120  52.150  1.00  0.00    -0.384 OA
HETATM   12  H4  UNL     1      24.887   0.784  51.786  1.00  0.00     0.211 HD
ENDBRANCH   4  11
ENDBRANCH   1   3
BRANCH   1  13
HETATM   13  C9  UNL     1      27.032   2.583  51.652  1.00  0.00     0.261 C 
BRANCH  13  14
HETATM   14  S1  UNL     1      27.358   2.039  53.282  1.00  0.00     0.191 S 
HETATM   15  O2  UNL     1      26.195   2.138  54.204  1.00  0.00    -0.221 OA
HETATM   16  O3  UNL     1      28.495   2.767  53.921  1.00  0.00    -0.221 OA
BRANCH  14  17
HETATM   17  C10 UNL     1      27.811   0.328  53.227  1.00  0.00     0.061 A 
HETATM   18  C11 UNL     1      29.085  -0.069  53.631  1.00  0.00     0.026 A 
HETATM   19  C12 UNL     1      29.486  -1.389  53.605  1.00  0.00     0.044 A 
HETATM   20  C13 UNL     1      28.565  -2.298  53.161  1.00  0.00     0.116 A 
HETATM   21  F1  UNL     1      28.931  -3.596  53.127  1.00  0.00    -0.206 F 
HETATM   22  C14 UNL     1      27.275  -1.964  52.743  1.00  0.00     0.044 A 
HETATM   23  C15 UNL     1      26.920  -0.630  52.787  1.00  0.00     0.026 A 
ENDBRANCH  14  17
ENDBRANCH  13  14
ENDBRANCH   1  13
TORSDOF 5
ENDMDL
MODEL 3
REMARK VINA RESULT:      -7.8      0.973      1.766
REMARK  5 active torsions:
REMARK  status: ('A' for Active; 'I' for Inactive)
REMARK    1  A    between atoms: C2_2  and  O1_3 
REMARK    2  A    between atoms: C8_9  and  N1_10 
REMARK    3  A    between atoms: N1_10  and  C9_11 
REMARK    4  A    between atoms: C9_11  and  S1_12 
REMARK    5  A    between atoms: S1_12  and  C10_15 
ROOT
HETATM    1  N1  UNL     1      24.603   2.356  52.246  1.00  0.00    -0.401 N 
HETATM    2  H12 UNL     1      24.811   1.809  51.406  1.00  0.00     0.154 HD
ENDROOT
BRANCH   1   3
HETATM    3  C8  UNL     1      24.136   3.682  52.083  1.00  0.00     0.118 C 
HETATM    4  C2  UNL     1      24.454   4.278  50.730  1.00  0.00     0.092 C 
HETATM    5  C1  UNL     1      23.645   5.529  50.531  1.00  0.00     0.052 C 
HETATM    6  C3  UNL     1      24.164   3.248  49.669  1.00  0.00     0.012 C 
HETATM    7  C4  UNL     1      23.217   2.321  49.665  1.00  0.00    -0.001 C 
HETATM    8  C5  UNL     1      22.173   1.974  50.624  1.00  0.00    -0.004 C 
HETATM    9  C6  UNL     1      21.914   2.563  51.793  1.00  0.00    -0.025 C 
HETATM   10  C7  UNL     1      22.642   3.698  52.358  1.00  0.00     0.055 C 
BRANCH   4  11
HETATM   11  O1  UNL     1      25.801   4.636  50.707  1.00  0.00    -0.384 OA
HETATM   12  H4  UNL     1      26.356   3.821  50.637  1.00  0.00     0.211 HD
ENDBRANCH   4  11
ENDBRANCH   1   3
BRANCH   1  13
HETATM   13  C9  UNL     1      25.432   2.156  53.375  1.00  0.00     0.261 C 
BRANCH  13  14
HETATM   14  S1  UNL     1      27.157   2.082  53.093  1.00  0.00     0.191 S 
HETATM   15  O2  UNL     1      27.976   2.760  54.132  1.00  0.00    -0.221 OA
HETATM   16  O3  UNL     1      27.554   2.652  51.770  1.00  0.00    -0.221 OA
BRANCH  14  17
HETATM   17  C10 UNL     1      27.655   0.383  53.088  1.00  0.00     0.061 A 
HETATM   18  C11 UNL     1      26.772  -0.601  52.648  1.00  0.00     0.026 A 
HETATM   19  C12 UNL     1      27.113  -1.939  52.626  1.00  0.00     0.044 A 
HETATM   20  C13 UNL     1      28.371  -2.255  53.061  1.00  0.00     0.116 A 
HETATM   21  F1  UNL     1      28.730  -3.555  53.049  1.00  0.00    -0.206 F 
HETATM   22  C14 UNL     1      29.301  -1.317  53.514  1.00  0.00     0.044 A 
HETATM   23  C15 UNL     1      28.913   0.009  53.517  1.00  0.00     0.026 A 
ENDBRANCH  14  17
ENDBRANCH  13  14
ENDBRANCH   1  13
TORSDOF 5
ENDMDL
MODEL 4
REMARK VINA RESULT:      -7.5      3.491      3.996
REMARK  5 active torsions:
REMARK  status: ('A' for Active; 'I' for Inactive)
REMARK    1  A    between atoms: C2_2  and  O1_3 
REMARK    2  A    between atoms: C8_9  and  N1_10 
REMARK    3  A    between atoms: N1_10  and  C9_11 
REMARK    4  A    between atoms: C9_11  and  S1_12 
REMARK    5  A    between atoms: S1_12  and  C10_15 
ROOT
HETATM    1  N1  UNL     1      24.697   3.613  52.201  1.00  0.00    -0.401 N 
HETATM    2  H12 UNL     1      25.624   3.938  51.908  1.00  0.00     0.154 HD
ENDROOT
BRANCH   1   3
HETATM    3  C8  UNL     1      23.589   4.465  51.980  1.00  0.00     0.118 C 
HETATM    4  C2  UNL     1      23.952   5.779  51.324  1.00  0.00     0.092 C 
HETATM    5  C1  UNL     1      22.703   6.456  50.834  1.00  0.00     0.052 C 
HETATM    6  C3  UNL     1      24.920   5.507  50.201  1.00  0.00     0.012 C 
HETATM    7  C4  UNL     1      24.973   4.448  49.406  1.00  0.00    -0.001 C 
HETATM    8  C5  UNL     1      24.169   3.233  49.326  1.00  0.00    -0.004 C 
HETATM    9  C6  UNL     1      23.122   2.900  50.082  1.00  0.00    -0.025 C 
HETATM   10  C7  UNL     1      22.558   3.705  51.164  1.00  0.00     0.055 C 
BRANCH   4  11
HETATM   11  O1  UNL     1      24.536   6.608  52.281  1.00  0.00    -0.384 OA
HETATM   12  H4  UNL     1      24.055   6.510  53.138  1.00  0.00     0.211 HD
ENDBRANCH   4  11
ENDBRANCH   1   3
BRANCH   1  13
HETATM   13  C9  UNL     1      24.621   2.838  53.381  1.00  0.00     0.261 C 
BRANCH  13  14
HETATM   14  S1  UNL     1      25.001   1.136  53.242  1.00  0.00     0.191 S 
HETATM   15  O2  UNL     1      25.997   0.649  54.234  1.00  0.00    -0.221 OA
HETATM   16  O3  UNL     1      25.502   0.761  51.886  1.00  0.00    -0.221 OA
BRANCH  14  17
HETATM   17  C10 UNL     1      23.521   0.203  53.517  1.00  0.00     0.061 A 
HETATM   18  C11 UNL     1      23.489  -0.779  54.505  1.00  0.00     0.026 A 
HETATM   19  C12 UNL     1      22.361  -1.533  54.757  1.00  0.00     0.044 A 
HETATM   20  C13 UNL     1      21.264  -1.267  53.982  1.00  0.00     0.116 A 
HETATM   21  F1  UNL     1      20.147  -1.989  54.207  1.00  0.00    -0.206 F 
HETATM   22  C14 UNL     1      21.233  -0.298  52.977  1.00  0.00     0.044 A 
HETATM   23  C15 UNL     1      22.387   0.431  52.763  1.00  0.00     0.026 A 
ENDBRANCH  14  17
ENDBRANCH  13  14
ENDBRANCH   1  13
TORSDOF 5
ENDMDL
MODEL 5
REMARK VINA RESULT:      -7.5      2.849      6.103
REMARK  5 active torsions:
REMARK  status: ('A' for Active; 'I' for Inactive)
REMARK    1  A    between atoms: C2_2  and  O1_3 
REMARK    2  A    between atoms: C8_9  and  N1_10 
REMARK    3  A    between atoms: N1_10  and  C9_11 
REMARK    4  A    between atoms: C9_11  and  S1_12 
REMARK    5  A    between atoms: S1_12  and  C10_15 
ROOT
HETATM    1  N1  UNL     1      26.405   1.488  52.427  1.00  0.00    -0.401 N 
HETATM    2  H12 UNL     1      26.450   2.112  53.238  1.00  0.00     0.154 HD
ENDROOT
BRANCH   1   3
HETATM    3  C8  UNL     1      27.376   0.464  52.317  1.00  0.00     0.118 C 
HETATM    4  C2  UNL     1      28.402   0.474  53.429  1.00  0.00     0.092 C 
HETATM    5  C1  UNL     1      29.169  -0.818  53.416  1.00  0.00     0.052 C 
HETATM    6  C3  UNL     1      27.691   0.692  54.739  1.00  0.00     0.012 C 
HETATM    7  C4  UNL     1      26.484   0.277  55.094  1.00  0.00    -0.001 C 
HETATM    8  C5  UNL     1      25.460  -0.493  54.394  1.00  0.00    -0.004 C 
HETATM    9  C6  UNL     1      25.523  -0.995  53.160  1.00  0.00    -0.025 C 
HETATM   10  C7  UNL     1      26.655  -0.871  52.243  1.00  0.00     0.055 C 
BRANCH   4  11
HETATM   11  O1  UNL     1      29.308   1.507  53.187  1.00  0.00    -0.384 OA
HETATM   12  H4  UNL     1      30.208   1.128  53.042  1.00  0.00     0.211 HD
ENDBRANCH   4  11
ENDBRANCH   1   3
BRANCH   1  13
HETATM   13  C9  UNL     1      25.996   2.048  51.195  1.00  0.00     0.261 C 
BRANCH  13  14
HETATM   14  S1  UNL     1      24.498   2.952  51.190  1.00  0.00     0.191 S 
HETATM   15  O2  UNL     1      24.152   3.555  49.876  1.00  0.00    -0.221 OA
HETATM   16  O3  UNL     1      24.477   4.049  52.203  1.00  0.00    -0.221 OA
BRANCH  14  17
HETATM   17  C10 UNL     1      23.174   1.850  51.601  1.00  0.00     0.061 A 
HETATM   18  C11 UNL     1      22.895   1.563  52.937  1.00  0.00     0.026 A 
HETATM   19  C12 UNL     1      21.874   0.711  53.308  1.00  0.00     0.044 A 
HETATM   20  C13 UNL     1      21.143   0.157  52.293  1.00  0.00     0.116 A 
HETATM   21  F1  UNL     1      20.139  -0.680  52.629  1.00  0.00    -0.206 F 
HETATM   22  C14 UNL     1      21.372   0.403  50.938  1.00  0.00     0.044 A 
HETATM   23  C15 UNL     1      22.405   1.263  50.616  1.00  0.00     0.026 A 
ENDBRANCH  14  17
ENDBRANCH  13  14
ENDBRANCH   1  13
TORSDOF 5
ENDMDL
MODEL 6
REMARK VINA RESULT:      -7.4      1.734      2.386
REMARK  5 active torsions:
REMARK  status: ('A' for Active; 'I' for Inactive)
REMARK    1  A    between atoms: C2_2  and  O1_3 
REMARK    2  A    between atoms: C8_9  and  N1_10 
REMARK    3  A    between atoms: N1_10  and  C9_11 
REMARK    4  A    between atoms: C9_11  and  S1_12 
REMARK    5  A    between atoms: S1_12  and  C10_15 
ROOT
HETATM    1  N1  UNL     1      25.462   3.948  51.069  1.00  0.00    -0.401 N 
HETATM    2  H12 UNL     1      25.990   4.770  51.380  1.00  0.00     0.154 HD
ENDROOT
BRANCH   1   3
HETATM    3  C8  UNL     1      24.064   3.929  51.290  1.00  0.00     0.118 C 
HETATM    4  C2  UNL     1      23.529   5.194  51.924  1.00  0.00     0.092 C 
HETATM    5  C1  UNL     1      22.031   5.217  51.811  1.00  0.00     0.052 C 
HETATM    6  C3  UNL     1      24.161   6.380  51.242  1.00  0.00     0.012 C 
HETATM    7  C4  UNL     1      24.522   6.497  49.972  1.00  0.00    -0.001 C 
HETATM    8  C5  UNL     1      24.447   5.583  48.837  1.00  0.00    -0.004 C 
HETATM    9  C6  UNL     1      23.953   4.344  48.823  1.00  0.00    -0.025 C 
HETATM   10  C7  UNL     1      23.376   3.640  49.967  1.00  0.00     0.055 C 
BRANCH   4  11
HETATM   11  O1  UNL     1      23.852   5.182  53.281  1.00  0.00    -0.384 OA
HETATM   12  H4  UNL     1      23.061   4.907  53.805  1.00  0.00     0.211 HD
ENDBRANCH   4  11
ENDBRANCH   1   3
BRANCH   1  13
HETATM   13  C9  UNL     1      26.095   2.688  51.178  1.00  0.00     0.261 C 
BRANCH  13  14
HETATM   14  S1  UNL     1      25.772   1.757  52.623  1.00  0.00     0.191 S 
HETATM   15  O2  UNL     1      24.669   0.770  52.482  1.00  0.00    -0.221 OA
HETATM   16  O3  UNL     1      25.456   2.613  53.807  1.00  0.00    -0.221 OA
BRANCH  14  17
HETATM   17  C10 UNL     1      27.225   0.832  53.034  1.00  0.00     0.061 A 
HETATM   18  C11 UNL     1      27.241  -0.552  52.867  1.00  0.00     0.026 A 
HETATM   19  C12 UNL     1      28.348  -1.317  53.173  1.00  0.00     0.044 A 
HETATM   20  C13 UNL     1      29.440  -0.645  53.653  1.00  0.00     0.116 A 
HETATM   21  F1  UNL     1      30.536  -1.370  53.959  1.00  0.00    -0.206 F 
HETATM   22  C14 UNL     1      29.487   0.737  53.843  1.00  0.00     0.044 A 
HETATM   23  C15 UNL     1      28.354   1.460  53.522  1.00  0.00     0.026 A 
ENDBRANCH  14  17
ENDBRANCH  13  14
ENDBRANCH   1  13
TORSDOF 5
ENDMDL
MODEL 7
REMARK VINA RESULT:      -7.2      3.540      6.417
REMARK  5 active torsions:
REMARK  status: ('A' for Active; 'I' for Inactive)
REMARK    1  A    between atoms: C2_2  and  O1_3 
REMARK    2  A    between atoms: C8_9  and  N1_10 
REMARK    3  A    between atoms: N1_10  and  C9_11 
REMARK    4  A    between atoms: C9_11  and  S1_12 
REMARK    5  A    between atoms: S1_12  and  C10_15 
ROOT
HETATM    1  N1  UNL     1      24.113   0.562  52.940  1.00  0.00    -0.401 N 
HETATM    2  H12 UNL     1      24.356  -0.168  52.264  1.00  0.00     0.154 HD
ENDROOT
BRANCH   1   3
HETATM    3  C8  UNL     1      25.050   0.871  53.955  1.00  0.00     0.118 C 
HETATM    4  C2  UNL     1      26.052  -0.231  54.216  1.00  0.00     0.092 C 
HETATM    5  C1  UNL     1      27.182   0.306  55.049  1.00  0.00     0.052 C 
HETATM    6  C3  UNL     1      26.535  -0.767  52.893  1.00  0.00     0.012 C 
HETATM    7  C4  UNL     1      26.709  -0.107  51.758  1.00  0.00    -0.001 C 
HETATM    8  C5  UNL     1      26.511   1.292  51.389  1.00  0.00    -0.004 C 
HETATM    9  C6  UNL     1      26.092   2.287  52.172  1.00  0.00    -0.025 C 
HETATM   10  C7  UNL     1      25.741   2.172  53.587  1.00  0.00     0.055 C 
BRANCH   4  11
HETATM   11  O1  UNL     1      25.426  -1.238  54.950  1.00  0.00    -0.384 OA
HETATM   12  H4  UNL     1      24.712  -0.842  55.508  1.00  0.00     0.211 HD
ENDBRANCH   4  11
ENDBRANCH   1   3
BRANCH   1  13
HETATM   13  C9  UNL     1      22.759   0.660  53.335  1.00  0.00     0.261 C 
BRANCH  13  14
HETATM   14  S1  UNL     1      21.650   1.397  52.201  1.00  0.00     0.191 S 
HETATM   15  O2  UNL     1      20.540   2.156  52.835  1.00  0.00    -0.221 OA
HETATM   16  O3  UNL     1      21.036   0.408  51.264  1.00  0.00    -0.221 OA
BRANCH  14  17
HETATM   17  C10 UNL     1      22.547   2.555  51.206  1.00  0.00     0.061 A 
HETATM   18  C11 UNL     1      22.831   3.826  51.702  1.00  0.00     0.026 A 
HETATM   19  C12 UNL     1      23.526   4.764  50.966  1.00  0.00     0.044 A 
HETATM   20  C13 UNL     1      23.926   4.382  49.714  1.00  0.00     0.116 A 
HETATM   21  F1  UNL     1      24.608   5.281  48.973  1.00  0.00    -0.206 F 
HETATM   22  C14 UNL     1      23.673   3.126  49.160  1.00  0.00     0.044 A 
HETATM   23  C15 UNL     1      22.974   2.221  49.936  1.00  0.00     0.026 A 
ENDBRANCH  14  17
ENDBRANCH  13  14
ENDBRANCH   1  13
TORSDOF 5
ENDMDL
MODEL 8
REMARK VINA RESULT:      -7.2      2.222      2.861
REMARK  5 active torsions:
REMARK  status: ('A' for Active; 'I' for Inactive)
REMARK    1  A    between atoms: C2_2  and  O1_3 
REMARK    2  A    between atoms: C8_9  and  N1_10 
REMARK    3  A    between atoms: N1_10  and  C9_11 
REMARK    4  A    between atoms: C9_11  and  S1_12 
REMARK    5  A    between atoms: S1_12  and  C10_15 
ROOT
HETATM    1  N1  UNL     1      24.392   4.003  51.838  1.00  0.00    -0.401 N 
HETATM    2  H12 UNL     1      25.369   4.219  51.622  1.00  0.00     0.154 HD
ENDROOT
BRANCH   1   3
HETATM    3  C8  UNL     1      23.416   4.999  51.594  1.00  0.00     0.118 C 
HETATM    4  C2  UNL     1      23.999   6.344  51.222  1.00  0.00     0.092 C 
HETATM    5  C1  UNL     1      22.914   7.224  50.666  1.00  0.00     0.052 C 
HETATM    6  C3  UNL     1      25.112   6.130  50.229  1.00  0.00     0.012 C 
HETATM    7  C4  UNL     1      25.202   5.199  49.290  1.00  0.00    -0.001 C 
HETATM    8  C5  UNL     1      24.318   4.108  48.894  1.00  0.00    -0.004 C 
HETATM    9  C6  UNL     1      23.134   3.791  49.419  1.00  0.00    -0.025 C 
HETATM   10  C7  UNL     1      22.471   4.489  50.520  1.00  0.00     0.055 C 
BRANCH   4  11
HETATM   11  O1  UNL     1      24.487   6.952  52.378  1.00  0.00    -0.384 OA
HETATM   12  H4  UNL     1      23.732   7.304  52.908  1.00  0.00     0.211 HD
ENDBRANCH   4  11
ENDBRANCH   1   3
BRANCH   1  13
HETATM   13  C9  UNL     1      24.138   3.192  52.969  1.00  0.00     0.261 C 
BRANCH  13  14
HETATM   14  S1  UNL     1      24.055   1.464  52.707  1.00  0.00     0.191 S 
HETATM   15  O2  UNL     1      23.621   1.073  51.340  1.00  0.00    -0.221 OA
HETATM   16  O3  UNL     1      23.153   0.773  53.677  1.00  0.00    -0.221 OA
BRANCH  14  17
HETATM   17  C10 UNL     1      25.673   0.781  52.937  1.00  0.00     0.061 A 
HETATM   18  C11 UNL     1      25.888  -0.582  52.736  1.00  0.00     0.026 A 
HETATM   19  C12 UNL     1      27.130  -1.162  52.902  1.00  0.00     0.044 A 
HETATM   20  C13 UNL     1      28.148  -0.327  53.277  1.00  0.00     0.116 A 
HETATM   21  F1  UNL     1      29.372  -0.869  53.446  1.00  0.00    -0.206 F 
HETATM   22  C14 UNL     1      27.996   1.044  53.494  1.00  0.00     0.044 A 
HETATM   23  C15 UNL     1      26.735   1.578  53.314  1.00  0.00     0.026 A 
ENDBRANCH  14  17
ENDBRANCH  13  14
ENDBRANCH   1  13
TORSDOF 5
ENDMDL
MODEL 9
REMARK VINA RESULT:      -6.8      3.836      5.861
REMARK  5 active torsions:
REMARK  status: ('A' for Active; 'I' for Inactive)
REMARK    1  A    between atoms: C2_2  and  O1_3 
REMARK    2  A    between atoms: C8_9  and  N1_10 
REMARK    3  A    between atoms: N1_10  and  C9_11 
REMARK    4  A    between atoms: C9_11  and  S1_12 
REMARK    5  A    between atoms: S1_12  and  C10_15 
ROOT
HETATM    1  N1  UNL     1      23.602   0.365  53.676  1.00  0.00    -0.401 N 
HETATM    2  H12 UNL     1      23.234   1.037  54.355  1.00  0.00     0.154 HD
ENDROOT
BRANCH   1   3
HETATM    3  C8  UNL     1      22.883  -0.836  53.467  1.00  0.00     0.118 C 
HETATM    4  C2  UNL     1      21.851  -1.123  54.536  1.00  0.00     0.092 C 
HETATM    5  C1  UNL     1      20.930  -2.212  54.063  1.00  0.00     0.052 C 
HETATM    6  C3  UNL     1      21.106   0.151  54.840  1.00  0.00     0.012 C 
HETATM    7  C4  UNL     1      20.796   1.136  54.010  1.00  0.00    -0.001 C 
HETATM    8  C5  UNL     1      21.044   1.341  52.586  1.00  0.00    -0.004 C 
HETATM    9  C6  UNL     1      21.672   0.519  51.745  1.00  0.00    -0.025 C 
HETATM   10  C7  UNL     1      22.250  -0.779  52.087  1.00  0.00     0.055 C 
BRANCH   4  11
HETATM   11  O1  UNL     1      22.509  -1.588  55.674  1.00  0.00    -0.384 OA
HETATM   12  H4  UNL     1      23.337  -2.055  55.408  1.00  0.00     0.211 HD
ENDBRANCH   4  11
ENDBRANCH   1   3
BRANCH   1  13
HETATM   13  C9  UNL     1      25.007   0.236  53.582  1.00  0.00     0.261 C 
BRANCH  13  14
HETATM   14  S1  UNL     1      25.893   1.610  52.961  1.00  0.00     0.191 S 
HETATM   15  O2  UNL     1      26.900   1.270  51.920  1.00  0.00    -0.221 OA
HETATM   16  O3  UNL     1      26.600   2.377  54.030  1.00  0.00    -0.221 OA
BRANCH  14  17
HETATM   17  C10 UNL     1      24.745   2.727  52.204  1.00  0.00     0.061 A 
HETATM   18  C11 UNL     1      24.528   2.677  50.828  1.00  0.00     0.026 A 
HETATM   19  C12 UNL     1      23.645   3.525  50.192  1.00  0.00     0.044 A 
HETATM   20  C13 UNL     1      22.986   4.426  50.985  1.00  0.00     0.116 A 
HETATM   21  F1  UNL     1      22.116   5.266  50.388  1.00  0.00    -0.206 F 
HETATM   22  C14 UNL     1      23.160   4.526  52.367  1.00  0.00     0.044 A 
HETATM   23  C15 UNL     1      24.055   3.655  52.958  1.00  0.00     0.026 A 
ENDBRANCH  14  17
ENDBRANCH  13  14
ENDBRANCH   1  13
TORSDOF 5
ENDMDL
