MODEL 1
REMARK VINA RESULT:      -8.7      0.000      0.000
REMARK  7 active torsions:
REMARK  status: ('A' for Active; 'I' for Inactive)
REMARK    1  A    between atoms: N1_4  and  C3_5 
REMARK    2  A    between atoms: C3_5  and  O1_6 
REMARK    3  A    between atoms: O1_6  and  C4_7 
REMARK    4  A    between atoms: C7_10  and  N2_11 
REMARK    5  A    between atoms: N2_11  and  C8_12 
REMARK    6  A    between atoms: C10_14  and  C11_15 
REMARK    7  A    between atoms: C19_26  and  O2_27 
ROOT
HETATM    1  C4  UNL     1      25.939   3.350  50.178  1.00  0.00     0.105 A 
HETATM    2  C5  UNL     1      26.750   4.359  49.705  1.00  0.00     0.057 A 
HETATM    3  C6  UNL     1      26.313   5.443  49.002  1.00  0.00     0.041 A 
HETATM    4  C7  UNL     1      27.135   6.444  48.536  1.00  0.00     0.138 A 
HETATM    5  N3  UNL     1      26.504   7.417  47.871  1.00  0.00    -0.224 NA
HETATM    6  C16 UNL     1      25.190   7.486  47.634  1.00  0.00     0.235 A 
HETATM    7  N4  UNL     1      24.398   6.491  48.100  1.00  0.00    -0.241 NA
HETATM    8  C17 UNL     1      24.954   5.473  48.782  1.00  0.00     0.075 A 
HETATM    9  C18 UNL     1      24.108   4.491  49.233  1.00  0.00     0.072 A 
HETATM   10  C19 UNL     1      24.577   3.410  49.940  1.00  0.00     0.103 A 
ENDROOT
BRANCH   4  11
HETATM   11  N2  UNL     1      28.531   6.388  48.768  1.00  0.00    -0.369 N 
HETATM   12  H8  UNL     1      28.936   6.773  49.644  1.00  0.00     0.161 HD
BRANCH  11  13
HETATM   13  C8  UNL     1      29.583   5.842  47.942  1.00  0.00     0.092 A 
HETATM   14  C9  UNL     1      30.445   6.884  47.298  1.00  0.00     0.037 A 
HETATM   15  C10 UNL     1      30.982   5.978  48.367  1.00  0.00     0.045 A 
BRANCH  15  16
HETATM   16  C11 UNL     1      32.012   5.014  47.816  1.00  0.00    -0.038 A 
HETATM   17  C12 UNL     1      31.644   3.857  47.122  1.00  0.00     0.009 A 
HETATM   18  C13 UNL     1      32.545   2.973  46.615  1.00  0.00     0.001 A 
HETATM   19  C14 UNL     1      33.915   3.011  46.666  1.00  0.00     0.001 A 
HETATM   20  C15 UNL     1      34.672   4.017  47.279  1.00  0.00     0.016 A 
HETATM   21  P1  UNL     1      33.733   5.285  48.012  1.00  0.00    -0.027 P 
ENDBRANCH  15  16
ENDBRANCH  11  13
ENDBRANCH   4  11
BRANCH   1  22
HETATM   22  O1  UNL     1      26.416   2.263  50.890  1.00  0.00    -0.319 OA
BRANCH  22  23
HETATM   23  C3  UNL     1      27.314   2.410  51.980  1.00  0.00     0.448 C 
BRANCH  23  24
HETATM   24  N1  UNL     1      27.240   1.156  52.725  1.00  0.00     0.124 NA
HETATM   25  C2  UNL     1      26.121   1.241  53.597  1.00  0.00     0.369 C 
HETATM   26  S1  UNL     1      26.143   0.117  54.978  1.00  0.00    -0.046 SA
HETATM   27  C1  UNL     1      24.967  -0.943  54.993  1.00  0.00     0.084 C 
HETATM   28  O3  UNL     1      27.697  -0.584  54.996  1.00  0.00    -0.325 OA
HETATM   29  C22 UNL     1      28.562   0.474  54.714  1.00  0.00     0.214 C 
HETATM   30  C21 UNL     1      28.511   0.913  53.298  1.00  0.00     0.303 C 
ENDBRANCH  23  24
ENDBRANCH  22  23
ENDBRANCH   1  22
BRANCH  10  31
HETATM   31  O2  UNL     1      23.748   2.409  50.406  1.00  0.00    -0.353 OA
HETATM   32  C20 UNL     1      22.581   2.095  49.668  1.00  0.00     0.210 C 
ENDBRANCH  10  31
TORSDOF 7
ENDMDL
MODEL 2
REMARK VINA RESULT:      -8.6      4.888      8.260
REMARK  7 active torsions:
REMARK  status: ('A' for Active; 'I' for Inactive)
REMARK    1  A    between atoms: N1_4  and  C3_5 
REMARK    2  A    between atoms: C3_5  and  O1_6 
REMARK    3  A    between atoms: O1_6  and  C4_7 
REMARK    4  A    between atoms: C7_10  and  N2_11 
REMARK    5  A    between atoms: N2_11  and  C8_12 
REMARK    6  A    between atoms: C10_14  and  C11_15 
REMARK    7  A    between atoms: C19_26  and  O2_27 
ROOT
HETATM    1  C4  UNL     1      21.309   0.144  52.283  1.00  0.00     0.105 A 
HETATM    2  C5  UNL     1      22.677   0.150  52.449  1.00  0.00     0.057 A 
HETATM    3  C6  UNL     1      23.331  -0.353  53.537  1.00  0.00     0.041 A 
HETATM    4  C7  UNL     1      24.699  -0.341  53.689  1.00  0.00     0.138 A 
HETATM    5  N3  UNL     1      25.135  -0.885  54.829  1.00  0.00    -0.224 NA
HETATM    6  C16 UNL     1      24.373  -1.417  55.791  1.00  0.00     0.235 A 
HETATM    7  N4  UNL     1      23.029  -1.419  55.623  1.00  0.00    -0.241 NA
HETATM    8  C17 UNL     1      22.507  -0.890  54.502  1.00  0.00     0.075 A 
HETATM    9  C18 UNL     1      21.141  -0.917  54.378  1.00  0.00     0.072 A 
HETATM   10  C19 UNL     1      20.511  -0.403  53.271  1.00  0.00     0.103 A 
ENDROOT
BRANCH   4  11
HETATM   11  N2  UNL     1      25.525   0.223  52.687  1.00  0.00    -0.369 N 
HETATM   12  H8  UNL     1      26.131  -0.382  52.100  1.00  0.00     0.161 HD
BRANCH  11  13
HETATM   13  C8  UNL     1      25.687   1.604  52.294  1.00  0.00     0.092 A 
HETATM   14  C9  UNL     1      27.114   2.060  52.274  1.00  0.00     0.037 A 
HETATM   15  C10 UNL     1      26.319   1.922  51.007  1.00  0.00     0.045 A 
BRANCH  15  16
HETATM   16  C11 UNL     1      26.047   3.268  50.370  1.00  0.00    -0.038 A 
HETATM   17  C12 UNL     1      26.945   3.858  49.477  1.00  0.00     0.009 A 
HETATM   18  C13 UNL     1      26.728   5.065  48.889  1.00  0.00     0.001 A 
HETATM   19  C14 UNL     1      25.660   5.915  49.028  1.00  0.00     0.001 A 
HETATM   20  C15 UNL     1      24.545   5.681  49.841  1.00  0.00     0.016 A 
HETATM   21  P1  UNL     1      24.586   4.176  50.713  1.00  0.00    -0.027 P 
ENDBRANCH  15  16
ENDBRANCH  11  13
ENDBRANCH   4  11
BRANCH   1  22
HETATM   22  O1  UNL     1      20.679   0.663  51.165  1.00  0.00    -0.319 OA
BRANCH  22  23
HETATM   23  C3  UNL     1      21.258   0.592  49.871  1.00  0.00     0.448 C 
BRANCH  23  24
HETATM   24  N1  UNL     1      21.684   1.952  49.552  1.00  0.00     0.124 NA
HETATM   25  C2  UNL     1      20.603   2.823  49.858  1.00  0.00     0.369 C 
HETATM   26  S1  UNL     1      20.653   4.411  49.054  1.00  0.00    -0.046 SA
HETATM   27  C1  UNL     1      20.781   5.649  50.033  1.00  0.00     0.084 C 
HETATM   28  O3  UNL     1      21.902   4.319  47.897  1.00  0.00    -0.325 OA
HETATM   29  C22 UNL     1      21.761   3.054  47.328  1.00  0.00     0.214 C 
HETATM   30  C21 UNL     1      22.184   1.953  48.229  1.00  0.00     0.303 C 
ENDBRANCH  23  24
ENDBRANCH  22  23
ENDBRANCH   1  22
BRANCH  10  31
HETATM   31  O2  UNL     1      19.137  -0.418  53.122  1.00  0.00    -0.353 OA
HETATM   32  C20 UNL     1      18.431  -1.599  53.456  1.00  0.00     0.210 C 
ENDBRANCH  10  31
TORSDOF 7
ENDMDL
MODEL 3
REMARK VINA RESULT:      -8.5      3.817      5.772
REMARK  7 active torsions:
REMARK  status: ('A' for Active; 'I' for Inactive)
REMARK    1  A    between atoms: N1_4  and  C3_5 
REMARK    2  A    between atoms: C3_5  and  O1_6 
REMARK    3  A    between atoms: O1_6  and  C4_7 
REMARK    4  A    between atoms: C7_10  and  N2_11 
REMARK    5  A    between atoms: N2_11  and  C8_12 
REMARK    6  A    between atoms: C10_14  and  C11_15 
REMARK    7  A    between atoms: C19_26  and  O2_27 
ROOT
HETATM    1  C4  UNL     1      23.574   1.364  53.096  1.00  0.00     0.105 A 
HETATM    2  C5  UNL     1      23.203   2.617  52.660  1.00  0.00     0.057 A 
HETATM    3  C6  UNL     1      21.943   2.962  52.266  1.00  0.00     0.041 A 
HETATM    4  C7  UNL     1      21.586   4.219  51.832  1.00  0.00     0.138 A 
HETATM    5  N3  UNL     1      20.299   4.345  51.493  1.00  0.00    -0.224 NA
HETATM    6  C16 UNL     1      19.373   3.382  51.542  1.00  0.00     0.235 A 
HETATM    7  N4  UNL     1      19.744   2.152  51.971  1.00  0.00    -0.241 NA
HETATM    8  C17 UNL     1      21.022   1.939  52.332  1.00  0.00     0.075 A 
HETATM    9  C18 UNL     1      21.346   0.677  52.760  1.00  0.00     0.072 A 
HETATM   10  C19 UNL     1      22.624   0.359  53.152  1.00  0.00     0.103 A 
ENDROOT
BRANCH   4  11
HETATM   11  N2  UNL     1      22.552   5.252  51.765  1.00  0.00    -0.369 N 
HETATM   12  H8  UNL     1      22.712   5.878  52.578  1.00  0.00     0.161 HD
BRANCH  11  13
HETATM   13  C8  UNL     1      23.435   5.622  50.683  1.00  0.00     0.092 A 
HETATM   14  C9  UNL     1      23.166   6.988  50.128  1.00  0.00     0.037 A 
HETATM   15  C10 UNL     1      24.426   6.686  50.888  1.00  0.00     0.045 A 
BRANCH  15  16
HETATM   16  C11 UNL     1      25.644   6.734  49.990  1.00  0.00    -0.038 A 
HETATM   17  C12 UNL     1      26.131   5.595  49.343  1.00  0.00     0.009 A 
HETATM   18  C13 UNL     1      27.222   5.607  48.532  1.00  0.00     0.001 A 
HETATM   19  C14 UNL     1      28.033   6.659  48.189  1.00  0.00     0.001 A 
HETATM   20  C15 UNL     1      27.875   7.977  48.635  1.00  0.00     0.016 A 
HETATM   21  P1  UNL     1      26.525   8.223  49.703  1.00  0.00    -0.027 P 
ENDBRANCH  15  16
ENDBRANCH  11  13
ENDBRANCH   4  11
BRANCH   1  22
HETATM   22  O1  UNL     1      24.863   1.048  53.490  1.00  0.00    -0.319 OA
BRANCH  22  23
HETATM   23  C3  UNL     1      25.856   2.042  53.690  1.00  0.00     0.448 C 
BRANCH  23  24
HETATM   24  N1  UNL     1      27.119   1.427  53.291  1.00  0.00     0.124 NA
HETATM   25  C2  UNL     1      27.174   0.138  53.888  1.00  0.00     0.369 C 
HETATM   26  S1  UNL     1      28.803  -0.569  54.025  1.00  0.00    -0.046 SA
HETATM   27  C1  UNL     1      29.023  -1.903  53.200  1.00  0.00     0.084 C 
HETATM   28  O3  UNL     1      29.897   0.675  53.621  1.00  0.00    -0.325 OA
HETATM   29  C22 UNL     1      29.380   1.812  54.242  1.00  0.00     0.214 C 
HETATM   30  C21 UNL     1      28.160   2.339  53.584  1.00  0.00     0.303 C 
ENDBRANCH  23  24
ENDBRANCH  22  23
ENDBRANCH   1  22
BRANCH  10  31
HETATM   31  O2  UNL     1      22.977  -0.904  53.587  1.00  0.00    -0.353 OA
HETATM   32  C20 UNL     1      22.655  -1.279  54.914  1.00  0.00     0.210 C 
ENDBRANCH  10  31
TORSDOF 7
ENDMDL
MODEL 4
REMARK VINA RESULT:      -8.5      5.180     10.252
REMARK  7 active torsions:
REMARK  status: ('A' for Active; 'I' for Inactive)
REMARK    1  A    between atoms: N1_4  and  C3_5 
REMARK    2  A    between atoms: C3_5  and  O1_6 
REMARK    3  A    between atoms: O1_6  and  C4_7 
REMARK    4  A    between atoms: C7_10  and  N2_11 
REMARK    5  A    between atoms: N2_11  and  C8_12 
REMARK    6  A    between atoms: C10_14  and  C11_15 
REMARK    7  A    between atoms: C19_26  and  O2_27 
ROOT
HETATM    1  C4  UNL     1      24.513   2.914  51.654  1.00  0.00     0.105 A 
HETATM    2  C5  UNL     1      24.240   1.809  52.430  1.00  0.00     0.057 A 
HETATM    3  C6  UNL     1      25.132   0.816  52.712  1.00  0.00     0.041 A 
HETATM    4  C7  UNL     1      24.846  -0.283  53.490  1.00  0.00     0.138 A 
HETATM    5  N3  UNL     1      25.863  -1.136  53.642  1.00  0.00    -0.224 NA
HETATM    6  C16 UNL     1      27.085  -1.008  53.115  1.00  0.00     0.235 A 
HETATM    7  N4  UNL     1      27.347   0.079  52.351  1.00  0.00    -0.241 NA
HETATM    8  C17 UNL     1      26.378   0.990  52.149  1.00  0.00     0.075 A 
HETATM    9  C18 UNL     1      26.694   2.073  51.369  1.00  0.00     0.072 A 
HETATM   10  C19 UNL     1      25.775   3.058  51.103  1.00  0.00     0.103 A 
ENDROOT
BRANCH   4  11
HETATM   11  N2  UNL     1      23.556  -0.443  54.052  1.00  0.00    -0.369 N 
HETATM   12  H8  UNL     1      23.391  -0.246  55.059  1.00  0.00     0.161 HD
BRANCH  11  13
HETATM   13  C8  UNL     1      22.322  -0.858  53.427  1.00  0.00     0.092 A 
HETATM   14  C9  UNL     1      21.510  -1.799  54.265  1.00  0.00     0.037 A 
HETATM   15  C10 UNL     1      21.040  -0.402  53.979  1.00  0.00     0.045 A 
BRANCH  15  16
HETATM   16  C11 UNL     1      19.818  -0.397  53.085  1.00  0.00    -0.038 A 
HETATM   17  C12 UNL     1      18.634  -1.045  53.448  1.00  0.00     0.009 A 
HETATM   18  C13 UNL     1      17.520  -1.058  52.667  1.00  0.00     0.001 A 
HETATM   19  C14 UNL     1      17.321  -0.483  51.438  1.00  0.00     0.001 A 
HETATM   20  C15 UNL     1      18.274   0.258  50.731  1.00  0.00     0.016 A 
HETATM   21  P1  UNL     1      19.808   0.421  51.534  1.00  0.00    -0.027 P 
ENDBRANCH  15  16
ENDBRANCH  11  13
ENDBRANCH   4  11
BRANCH   1  22
HETATM   22  O1  UNL     1      23.583   3.905  51.389  1.00  0.00    -0.319 OA
BRANCH  22  23
HETATM   23  C3  UNL     1      23.056   4.738  52.410  1.00  0.00     0.448 C 
BRANCH  23  24
HETATM   24  N1  UNL     1      21.761   5.198  51.918  1.00  0.00     0.124 NA
HETATM   25  C2  UNL     1      20.983   4.046  51.619  1.00  0.00     0.369 C 
HETATM   26  S1  UNL     1      19.622   4.315  50.503  1.00  0.00    -0.046 SA
HETATM   27  C1  UNL     1      18.189   4.047  51.122  1.00  0.00     0.084 C 
HETATM   28  O3  UNL     1      19.817   5.892  49.885  1.00  0.00    -0.325 OA
HETATM   29  C22 UNL     1      21.185   6.006  49.641  1.00  0.00     0.214 C 
HETATM   30  C21 UNL     1      21.995   6.128  50.878  1.00  0.00     0.303 C 
ENDBRANCH  23  24
ENDBRANCH  22  23
ENDBRANCH   1  22
BRANCH  10  31
HETATM   31  O2  UNL     1      26.068   4.159  50.322  1.00  0.00    -0.353 OA
HETATM   32  C20 UNL     1      26.912   3.988  49.198  1.00  0.00     0.210 C 
ENDBRANCH  10  31
TORSDOF 7
ENDMDL
MODEL 5
REMARK VINA RESULT:      -8.4      4.963     10.193
REMARK  7 active torsions:
REMARK  status: ('A' for Active; 'I' for Inactive)
REMARK    1  A    between atoms: N1_4  and  C3_5 
REMARK    2  A    between atoms: C3_5  and  O1_6 
REMARK    3  A    between atoms: O1_6  and  C4_7 
REMARK    4  A    between atoms: C7_10  and  N2_11 
REMARK    5  A    between atoms: N2_11  and  C8_12 
REMARK    6  A    between atoms: C10_14  and  C11_15 
REMARK    7  A    between atoms: C19_26  and  O2_27 
ROOT
HETATM    1  C4  UNL     1      24.175   2.343  51.236  1.00  0.00     0.105 A 
HETATM    2  C5  UNL     1      24.067   1.368  52.203  1.00  0.00     0.057 A 
HETATM    3  C6  UNL     1      25.114   0.652  52.706  1.00  0.00     0.041 A 
HETATM    4  C7  UNL     1      24.991  -0.320  53.674  1.00  0.00     0.138 A 
HETATM    5  N3  UNL     1      26.142  -0.900  54.027  1.00  0.00    -0.224 NA
HETATM    6  C16 UNL     1      27.351  -0.619  53.531  1.00  0.00     0.235 A 
HETATM    7  N4  UNL     1      27.451   0.340  52.580  1.00  0.00    -0.241 NA
HETATM    8  C17 UNL     1      26.340   0.975  52.167  1.00  0.00     0.075 A 
HETATM    9  C18 UNL     1      26.494   1.938  51.203  1.00  0.00     0.072 A 
HETATM   10  C19 UNL     1      25.421   2.644  50.715  1.00  0.00     0.103 A 
ENDROOT
BRANCH   4  11
HETATM   11  N2  UNL     1      23.719  -0.640  54.208  1.00  0.00    -0.369 N 
HETATM   12  H8  UNL     1      23.568  -0.661  55.235  1.00  0.00     0.161 HD
BRANCH  11  13
HETATM   13  C8  UNL     1      22.486  -0.962  53.526  1.00  0.00     0.092 A 
HETATM   14  C9  UNL     1      21.558  -1.817  54.335  1.00  0.00     0.037 A 
HETATM   15  C10 UNL     1      21.222  -0.391  54.007  1.00  0.00     0.045 A 
BRANCH  15  16
HETATM   16  C11 UNL     1      20.050  -0.300  53.052  1.00  0.00    -0.038 A 
HETATM   17  C12 UNL     1      18.833  -0.935  53.313  1.00  0.00     0.009 A 
HETATM   18  C13 UNL     1      17.763  -0.872  52.476  1.00  0.00     0.001 A 
HETATM   19  C14 UNL     1      17.644  -0.221  51.274  1.00  0.00     0.001 A 
HETATM   20  C15 UNL     1      18.652   0.535  50.664  1.00  0.00     0.016 A 
HETATM   21  P1  UNL     1      20.144   0.608  51.555  1.00  0.00    -0.027 P 
ENDBRANCH  15  16
ENDBRANCH  11  13
ENDBRANCH   4  11
BRANCH   1  22
HETATM   22  O1  UNL     1      23.090   3.052  50.748  1.00  0.00    -0.319 OA
BRANCH  22  23
HETATM   23  C3  UNL     1      22.502   4.123  51.471  1.00  0.00     0.448 C 
BRANCH  23  24
HETATM   24  N1  UNL     1      22.721   5.317  50.658  1.00  0.00     0.124 NA
HETATM   25  C2  UNL     1      23.793   6.043  51.244  1.00  0.00     0.369 C 
HETATM   26  S1  UNL     1      23.881   7.764  50.797  1.00  0.00    -0.046 SA
HETATM   27  C1  UNL     1      25.187   8.181  50.005  1.00  0.00     0.084 C 
HETATM   28  O3  UNL     1      22.434   8.115  49.966  1.00  0.00    -0.325 OA
HETATM   29  C22 UNL     1      21.445   7.447  50.687  1.00  0.00     0.214 C 
HETATM   30  C21 UNL     1      21.478   5.975  50.506  1.00  0.00     0.303 C 
ENDBRANCH  23  24
ENDBRANCH  22  23
ENDBRANCH   1  22
BRANCH  10  31
HETATM   31  O2  UNL     1      25.550   3.619  49.745  1.00  0.00    -0.353 OA
HETATM   32  C20 UNL     1      26.850   4.023  49.357  1.00  0.00     0.210 C 
ENDBRANCH  10  31
TORSDOF 7
ENDMDL
MODEL 6
REMARK VINA RESULT:      -8.3      3.962      7.606
REMARK  7 active torsions:
REMARK  status: ('A' for Active; 'I' for Inactive)
REMARK    1  A    between atoms: N1_4  and  C3_5 
REMARK    2  A    between atoms: C3_5  and  O1_6 
REMARK    3  A    between atoms: O1_6  and  C4_7 
REMARK    4  A    between atoms: C7_10  and  N2_11 
REMARK    5  A    between atoms: N2_11  and  C8_12 
REMARK    6  A    between atoms: C10_14  and  C11_15 
REMARK    7  A    between atoms: C19_26  and  O2_27 
ROOT
HETATM    1  C4  UNL     1      28.824   6.006  47.930  1.00  0.00     0.105 A 
HETATM    2  C5  UNL     1      27.851   5.212  48.498  1.00  0.00     0.057 A 
HETATM    3  C6  UNL     1      26.565   5.606  48.732  1.00  0.00     0.041 A 
HETATM    4  C7  UNL     1      25.602   4.802  49.300  1.00  0.00     0.138 A 
HETATM    5  N3  UNL     1      24.406   5.382  49.439  1.00  0.00    -0.224 NA
HETATM    6  C16 UNL     1      24.090   6.631  49.084  1.00  0.00     0.235 A 
HETATM    7  N4  UNL     1      25.051   7.407  48.528  1.00  0.00    -0.241 NA
HETATM    8  C17 UNL     1      26.284   6.899  48.351  1.00  0.00     0.075 A 
HETATM    9  C18 UNL     1      27.221   7.725  47.782  1.00  0.00     0.072 A 
HETATM   10  C19 UNL     1      28.508   7.301  47.558  1.00  0.00     0.103 A 
ENDROOT
BRANCH   4  11
HETATM   11  N2  UNL     1      25.917   3.477  49.690  1.00  0.00    -0.369 N 
HETATM   12  H8  UNL     1      25.880   2.701  49.001  1.00  0.00     0.161 HD
BRANCH  11  13
HETATM   13  C8  UNL     1      26.321   2.966  50.979  1.00  0.00     0.092 A 
HETATM   14  C9  UNL     1      25.218   2.280  51.726  1.00  0.00     0.037 A 
HETATM   15  C10 UNL     1      26.395   1.516  51.193  1.00  0.00     0.045 A 
BRANCH  15  16
HETATM   16  C11 UNL     1      27.268   0.984  52.311  1.00  0.00    -0.038 A 
HETATM   17  C12 UNL     1      27.307  -0.375  52.635  1.00  0.00     0.009 A 
HETATM   18  C13 UNL     1      28.080  -0.882  53.632  1.00  0.00     0.001 A 
HETATM   19  C14 UNL     1      28.932  -0.226  54.484  1.00  0.00     0.001 A 
HETATM   20  C15 UNL     1      29.172   1.153  54.479  1.00  0.00     0.016 A 
HETATM   21  P1  UNL     1      28.286   2.039  53.272  1.00  0.00    -0.027 P 
ENDBRANCH  15  16
ENDBRANCH  11  13
ENDBRANCH   4  11
BRANCH   1  22
HETATM   22  O1  UNL     1      30.120   5.574  47.706  1.00  0.00    -0.319 OA
BRANCH  22  23
HETATM   23  C3  UNL     1      31.111   5.602  48.722  1.00  0.00     0.448 C 
BRANCH  23  24
HETATM   24  N1  UNL     1      32.394   5.559  48.024  1.00  0.00     0.124 NA
HETATM   25  C2  UNL     1      32.766   4.193  47.896  1.00  0.00     0.369 C 
HETATM   26  S1  UNL     1      34.498   3.900  47.605  1.00  0.00    -0.046 SA
HETATM   27  C1  UNL     1      34.834   3.214  46.218  1.00  0.00     0.084 C 
HETATM   28  O3  UNL     1      35.280   5.398  47.836  1.00  0.00    -0.325 OA
HETATM   29  C22 UNL     1      34.661   5.946  48.959  1.00  0.00     0.214 C 
HETATM   30  C21 UNL     1      33.284   6.430  48.695  1.00  0.00     0.303 C 
ENDBRANCH  23  24
ENDBRANCH  22  23
ENDBRANCH   1  22
BRANCH  10  31
HETATM   31  O2  UNL     1      29.471   8.111  46.988  1.00  0.00    -0.353 OA
HETATM   32  C20 UNL     1      30.060   9.125  47.780  1.00  0.00     0.210 C 
ENDBRANCH  10  31
TORSDOF 7
ENDMDL
MODEL 7
REMARK VINA RESULT:      -8.1      3.718      7.319
REMARK  7 active torsions:
REMARK  status: ('A' for Active; 'I' for Inactive)
REMARK    1  A    between atoms: N1_4  and  C3_5 
REMARK    2  A    between atoms: C3_5  and  O1_6 
REMARK    3  A    between atoms: O1_6  and  C4_7 
REMARK    4  A    between atoms: C7_10  and  N2_11 
REMARK    5  A    between atoms: N2_11  and  C8_12 
REMARK    6  A    between atoms: C10_14  and  C11_15 
REMARK    7  A    between atoms: C19_26  and  O2_27 
ROOT
HETATM    1  C4  UNL     1      26.091   3.753  49.770  1.00  0.00     0.105 A 
HETATM    2  C5  UNL     1      24.715   3.825  49.805  1.00  0.00     0.057 A 
HETATM    3  C6  UNL     1      23.975   4.834  49.261  1.00  0.00     0.041 A 
HETATM    4  C7  UNL     1      22.600   4.893  49.303  1.00  0.00     0.138 A 
HETATM    5  N3  UNL     1      22.072   5.967  48.709  1.00  0.00    -0.224 NA
HETATM    6  C16 UNL     1      22.751   6.947  48.103  1.00  0.00     0.235 A 
HETATM    7  N4  UNL     1      24.102   6.872  48.072  1.00  0.00    -0.241 NA
HETATM    8  C17 UNL     1      24.715   5.821  48.648  1.00  0.00     0.075 A 
HETATM    9  C18 UNL     1      26.086   5.791  48.589  1.00  0.00     0.072 A 
HETATM   10  C19 UNL     1      26.804   4.761  49.145  1.00  0.00     0.103 A 
ENDROOT
BRANCH   4  11
HETATM   11  N2  UNL     1      21.861   3.871  49.946  1.00  0.00    -0.369 N 
HETATM   12  H8  UNL     1      20.981   3.512  49.526  1.00  0.00     0.161 HD
BRANCH  11  13
HETATM   13  C8  UNL     1      22.133   3.171  51.181  1.00  0.00     0.092 A 
HETATM   14  C9  UNL     1      21.183   3.513  52.288  1.00  0.00     0.037 A 
HETATM   15  C10 UNL     1      21.192   2.150  51.658  1.00  0.00     0.045 A 
BRANCH  15  16
HETATM   16  C11 UNL     1      21.687   1.094  52.623  1.00  0.00    -0.038 A 
HETATM   17  C12 UNL     1      23.026   0.695  52.661  1.00  0.00     0.009 A 
HETATM   18  C13 UNL     1      23.500  -0.251  53.516  1.00  0.00     0.001 A 
HETATM   19  C14 UNL     1      22.823  -0.975  54.463  1.00  0.00     0.001 A 
HETATM   20  C15 UNL     1      21.454  -0.866  54.736  1.00  0.00     0.016 A 
HETATM   21  P1  UNL     1      20.610   0.298  53.757  1.00  0.00    -0.027 P 
ENDBRANCH  15  16
ENDBRANCH  11  13
ENDBRANCH   4  11
BRANCH   1  22
HETATM   22  O1  UNL     1      26.811   2.713  50.331  1.00  0.00    -0.319 OA
BRANCH  22  23
HETATM   23  C3  UNL     1      26.209   1.753  51.186  1.00  0.00     0.448 C 
BRANCH  23  24
HETATM   24  N1  UNL     1      27.146   1.562  52.289  1.00  0.00     0.124 NA
HETATM   25  C2  UNL     1      27.573   0.206  52.259  1.00  0.00     0.369 C 
HETATM   26  S1  UNL     1      28.251  -0.414  53.785  1.00  0.00    -0.046 SA
HETATM   27  C1  UNL     1      29.772  -0.847  53.710  1.00  0.00     0.084 C 
HETATM   28  O3  UNL     1      27.934   0.776  54.964  1.00  0.00    -0.325 OA
HETATM   29  C22 UNL     1      26.634   1.202  54.692  1.00  0.00     0.214 C 
HETATM   30  C21 UNL     1      26.532   2.038  53.471  1.00  0.00     0.303 C 
ENDBRANCH  23  24
ENDBRANCH  22  23
ENDBRANCH   1  22
BRANCH  10  31
HETATM   31  O2  UNL     1      28.184   4.706  49.099  1.00  0.00    -0.353 OA
HETATM   32  C20 UNL     1      28.872   5.614  48.258  1.00  0.00     0.210 C 
ENDBRANCH  10  31
TORSDOF 7
ENDMDL
MODEL 8
REMARK VINA RESULT:      -8.0      1.799      2.081
REMARK  7 active torsions:
REMARK  status: ('A' for Active; 'I' for Inactive)
REMARK    1  A    between atoms: N1_4  and  C3_5 
REMARK    2  A    between atoms: C3_5  and  O1_6 
REMARK    3  A    between atoms: O1_6  and  C4_7 
REMARK    4  A    between atoms: C7_10  and  N2_11 
REMARK    5  A    between atoms: N2_11  and  C8_12 
REMARK    6  A    between atoms: C10_14  and  C11_15 
REMARK    7  A    between atoms: C19_26  and  O2_27 
ROOT
HETATM    1  C4  UNL     1      25.071   4.109  49.501  1.00  0.00     0.105 A 
HETATM    2  C5  UNL     1      26.223   4.832  49.274  1.00  0.00     0.057 A 
HETATM    3  C6  UNL     1      26.262   6.076  48.714  1.00  0.00     0.041 A 
HETATM    4  C7  UNL     1      27.420   6.787  48.493  1.00  0.00     0.138 A 
HETATM    5  N3  UNL     1      27.236   7.987  47.935  1.00  0.00    -0.224 NA
HETATM    6  C16 UNL     1      26.062   8.525  47.590  1.00  0.00     0.235 A 
HETATM    7  N4  UNL     1      24.934   7.810  47.815  1.00  0.00    -0.241 NA
HETATM    8  C17 UNL     1      25.030   6.590  48.375  1.00  0.00     0.075 A 
HETATM    9  C18 UNL     1      23.859   5.907  48.583  1.00  0.00     0.072 A 
HETATM   10  C19 UNL     1      23.850   4.655  49.149  1.00  0.00     0.103 A 
ENDROOT
BRANCH   4  11
HETATM   11  N2  UNL     1      28.676   6.234  48.844  1.00  0.00    -0.369 N 
HETATM   12  H8  UNL     1      28.937   6.110  49.842  1.00  0.00     0.161 HD
BRANCH  11  13
HETATM   13  C8  UNL     1      29.748   5.766  47.996  1.00  0.00     0.092 A 
HETATM   14  C9  UNL     1      30.655   6.858  47.517  1.00  0.00     0.037 A 
HETATM   15  C10 UNL     1      31.132   5.814  48.485  1.00  0.00     0.045 A 
BRANCH  15  16
HETATM   16  C11 UNL     1      32.162   4.899  47.857  1.00  0.00    -0.038 A 
HETATM   17  C12 UNL     1      31.795   3.776  47.110  1.00  0.00     0.009 A 
HETATM   18  C13 UNL     1      32.696   2.936  46.534  1.00  0.00     0.001 A 
HETATM   19  C14 UNL     1      34.067   2.995  46.554  1.00  0.00     0.001 A 
HETATM   20  C15 UNL     1      34.822   3.978  47.202  1.00  0.00     0.016 A 
HETATM   21  P1  UNL     1      33.883   5.188  48.026  1.00  0.00    -0.027 P 
ENDBRANCH  15  16
ENDBRANCH  11  13
ENDBRANCH   4  11
BRANCH   1  22
HETATM   22  O1  UNL     1      25.068   2.849  50.073  1.00  0.00    -0.319 OA
BRANCH  22  23
HETATM   23  C3  UNL     1      25.209   2.653  51.472  1.00  0.00     0.448 C 
BRANCH  23  24
HETATM   24  N1  UNL     1      24.512   1.405  51.770  1.00  0.00     0.124 NA
HETATM   25  C2  UNL     1      23.259   1.741  52.350  1.00  0.00     0.369 C 
HETATM   26  S1  UNL     1      22.485   0.447  53.297  1.00  0.00    -0.046 SA
HETATM   27  C1  UNL     1      21.097  -0.058  52.726  1.00  0.00     0.084 C 
HETATM   28  O3  UNL     1      23.651  -0.788  53.456  1.00  0.00    -0.325 OA
HETATM   29  C22 UNL     1      24.845  -0.112  53.708  1.00  0.00     0.214 C 
HETATM   30  C21 UNL     1      25.390   0.583  52.516  1.00  0.00     0.303 C 
ENDBRANCH  23  24
ENDBRANCH  22  23
ENDBRANCH   1  22
BRANCH  10  31
HETATM   31  O2  UNL     1      22.685   3.946  49.369  1.00  0.00    -0.353 OA
HETATM   32  C20 UNL     1      21.677   4.530  50.173  1.00  0.00     0.210 C 
ENDBRANCH  10  31
TORSDOF 7
ENDMDL
MODEL 9
REMARK VINA RESULT:      -7.9      4.369      8.410
REMARK  7 active torsions:
REMARK  status: ('A' for Active; 'I' for Inactive)
REMARK    1  A    between atoms: N1_4  and  C3_5 
REMARK    2  A    between atoms: C3_5  and  O1_6 
REMARK    3  A    between atoms: O1_6  and  C4_7 
REMARK    4  A    between atoms: C7_10  and  N2_11 
REMARK    5  A    between atoms: N2_11  and  C8_12 
REMARK    6  A    between atoms: C10_14  and  C11_15 
REMARK    7  A    between atoms: C19_26  and  O2_27 
ROOT
HETATM    1  C4  UNL     1      28.677   6.596  47.729  1.00  0.00     0.105 A 
HETATM    2  C5  UNL     1      27.923   5.780  48.545  1.00  0.00     0.057 A 
HETATM    3  C6  UNL     1      26.591   5.945  48.792  1.00  0.00     0.041 A 
HETATM    4  C7  UNL     1      25.849   5.122  49.610  1.00  0.00     0.138 A 
HETATM    5  N3  UNL     1      24.560   5.459  49.715  1.00  0.00    -0.224 NA
HETATM    6  C16 UNL     1      23.964   6.492  49.111  1.00  0.00     0.235 A 
HETATM    7  N4  UNL     1      24.710   7.290  48.311  1.00  0.00    -0.241 NA
HETATM    8  C17 UNL     1      26.018   7.021  48.150  1.00  0.00     0.075 A 
HETATM    9  C18 UNL     1      26.730   7.858  47.329  1.00  0.00     0.072 A 
HETATM   10  C19 UNL     1      28.070   7.668  47.098  1.00  0.00     0.103 A 
ENDROOT
BRANCH   4  11
HETATM   11  N2  UNL     1      26.462   4.026  50.265  1.00  0.00    -0.369 N 
HETATM   12  H8  UNL     1      27.466   4.063  50.529  1.00  0.00     0.161 HD
BRANCH  11  13
HETATM   13  C8  UNL     1      25.896   2.762  50.674  1.00  0.00     0.092 A 
HETATM   14  C9  UNL     1      26.775   1.982  51.603  1.00  0.00     0.037 A 
HETATM   15  C10 UNL     1      25.476   2.573  52.069  1.00  0.00     0.045 A 
BRANCH  15  16
HETATM   16  C11 UNL     1      24.457   1.500  52.387  1.00  0.00    -0.038 A 
HETATM   17  C12 UNL     1      24.700   0.510  53.345  1.00  0.00     0.009 A 
HETATM   18  C13 UNL     1      23.805  -0.466  53.653  1.00  0.00     0.001 A 
HETATM   19  C14 UNL     1      22.555  -0.688  53.134  1.00  0.00     0.001 A 
HETATM   20  C15 UNL     1      21.944   0.091  52.144  1.00  0.00     0.016 A 
HETATM   21  P1  UNL     1      22.904   1.426  51.576  1.00  0.00    -0.027 P 
ENDBRANCH  15  16
ENDBRANCH  11  13
ENDBRANCH   4  11
BRANCH   1  22
HETATM   22  O1  UNL     1      30.027   6.399  47.500  1.00  0.00    -0.319 OA
BRANCH  22  23
HETATM   23  C3  UNL     1      30.863   5.734  48.435  1.00  0.00     0.448 C 
BRANCH  23  24
HETATM   24  N1  UNL     1      32.179   5.659  47.806  1.00  0.00     0.124 NA
HETATM   25  C2  UNL     1      32.570   4.292  47.792  1.00  0.00     0.369 C 
HETATM   26  S1  UNL     1      34.317   4.001  47.608  1.00  0.00    -0.046 SA
HETATM   27  C1  UNL     1      34.728   3.225  46.290  1.00  0.00     0.084 C 
HETATM   28  O3  UNL     1      35.073   5.521  47.771  1.00  0.00    -0.325 OA
HETATM   29  C22 UNL     1      34.394   6.138  48.822  1.00  0.00     0.214 C 
HETATM   30  C21 UNL     1      33.027   6.585  48.457  1.00  0.00     0.303 C 
ENDBRANCH  23  24
ENDBRANCH  22  23
ENDBRANCH   1  22
BRANCH  10  31
HETATM   31  O2  UNL     1      28.810   8.496  46.276  1.00  0.00    -0.353 OA
HETATM   32  C20 UNL     1      29.184   9.773  46.759  1.00  0.00     0.210 C 
ENDBRANCH  10  31
TORSDOF 7
ENDMDL
