MODEL 1
REMARK VINA RESULT:      -7.8      0.000      0.000
REMARK  9 active torsions:
REMARK  status: ('A' for Active; 'I' for Inactive)
REMARK    1  A    between atoms: C3_3  and  C4_4 
REMARK    2  A    between atoms: C5_5  and  C6_6 
REMARK    3  A    between atoms: C5_5  and  C8_8 
REMARK    4  A    between atoms: C8_8  and  C9_9 
REMARK    5  A    between atoms: C9_9  and  C10_11 
REMARK    6  A    between atoms: C10_11  and  C11_12 
REMARK    7  A    between atoms: C19_20  and  O2_21 
REMARK    8  A    between atoms: C21_23  and  C22_24 
REMARK    9  A    between atoms: C22_24  and  O3_26 
ROOT
HETATM    1  C11 UNL     1      25.848   3.454  50.216  1.00  0.00    -0.039 A 
HETATM    2  C12 UNL     1      26.961   4.011  49.543  1.00  0.00     0.020 A 
HETATM    3  C13 UNL     1      26.900   5.227  48.902  1.00  0.00    -0.023 A 
HETATM    4  C14 UNL     1      28.064   5.686  48.270  1.00  0.00     0.012 A 
HETATM    5  C15 UNL     1      27.942   6.908  47.651  1.00  0.00     0.001 A 
HETATM    6  C16 UNL     1      26.830   7.704  47.588  1.00  0.00     0.001 A 
HETATM    7  C17 UNL     1      25.715   7.185  48.235  1.00  0.00     0.015 A 
HETATM    8  C18 UNL     1      25.745   5.971  48.880  1.00  0.00     0.008 A 
HETATM    9  C19 UNL     1      24.679   5.409  49.540  1.00  0.00     0.088 A 
HETATM   10  C21 UNL     1      24.688   4.195  50.199  1.00  0.00     0.011 A 
ENDROOT
BRANCH   1  11
HETATM   11  C10 UNL     1      26.141   2.130  50.806  1.00  0.00     0.118 C 
BRANCH  11  12
HETATM   12  C9  UNL     1      26.914   2.177  52.077  1.00  0.00     0.135 C 
HETATM   13  O1  UNL     1      28.073   2.257  52.439  1.00  0.00    -0.297 OA
BRANCH  12  14
HETATM   14  C8  UNL     1      26.145   2.116  53.357  1.00  0.00     0.112 C 
BRANCH  14  15
HETATM   15  C5  UNL     1      25.510   0.810  53.600  1.00  0.00    -0.073 C 
HETATM   16  C4  UNL     1      24.178   0.801  53.537  1.00  0.00     0.003 C 
BRANCH  16  17
HETATM   17  C3  UNL     1      23.081  -0.126  53.683  1.00  0.00    -0.004 C 
HETATM   18  C2  UNL     1      22.505  -0.948  54.542  1.00  0.00    -0.031 C 
HETATM   19  C1  UNL     1      21.304  -1.701  54.090  1.00  0.00     0.036 C 
ENDBRANCH  16  17
BRANCH  15  20
HETATM   20  C6  UNL     1      26.274  -0.419  53.901  1.00  0.00     0.030 C 
HETATM   21  C7  UNL     1      26.506  -1.267  52.672  1.00  0.00     0.010 C 
ENDBRANCH  15  20
ENDBRANCH  14  15
ENDBRANCH  12  14
ENDBRANCH  11  12
ENDBRANCH   1  11
BRANCH  10  22
HETATM   22  C22 UNL     1      23.571   3.613  50.933  1.00  0.00     0.150 C 
HETATM   23  C23 UNL     1      23.363   4.253  52.296  1.00  0.00     0.044 C 
BRANCH  22  24
HETATM   24  O3  UNL     1      22.399   3.773  50.205  1.00  0.00    -0.391 OA
HETATM   25  H28 UNL     1      22.445   3.388  49.289  1.00  0.00     0.210 HD
ENDBRANCH  22  24
ENDBRANCH  10  22
BRANCH   9  26
HETATM   26  O2  UNL     1      23.484   6.148  49.532  1.00  0.00    -0.354 OA
HETATM   27  C20 UNL     1      23.211   7.240  50.356  1.00  0.00     0.210 C 
ENDBRANCH   9  26
TORSDOF 9
ENDMDL
MODEL 2
REMARK VINA RESULT:      -7.7      2.478      7.109
REMARK  9 active torsions:
REMARK  status: ('A' for Active; 'I' for Inactive)
REMARK    1  A    between atoms: C3_3  and  C4_4 
REMARK    2  A    between atoms: C5_5  and  C6_6 
REMARK    3  A    between atoms: C5_5  and  C8_8 
REMARK    4  A    between atoms: C8_8  and  C9_9 
REMARK    5  A    between atoms: C9_9  and  C10_11 
REMARK    6  A    between atoms: C10_11  and  C11_12 
REMARK    7  A    between atoms: C19_20  and  O2_21 
REMARK    8  A    between atoms: C21_23  and  C22_24 
REMARK    9  A    between atoms: C22_24  and  O3_26 
ROOT
HETATM    1  C11 UNL     1      22.495   2.174  52.559  1.00  0.00    -0.039 A 
HETATM    2  C12 UNL     1      23.843   2.301  52.149  1.00  0.00     0.020 A 
HETATM    3  C13 UNL     1      24.776   1.314  52.370  1.00  0.00    -0.023 A 
HETATM    4  C14 UNL     1      26.082   1.543  51.917  1.00  0.00     0.012 A 
HETATM    5  C15 UNL     1      26.967   0.519  52.163  1.00  0.00     0.001 A 
HETATM    6  C16 UNL     1      26.713  -0.671  52.789  1.00  0.00     0.001 A 
HETATM    7  C17 UNL     1      25.398  -0.828  53.211  1.00  0.00     0.015 A 
HETATM    8  C18 UNL     1      24.445   0.142  53.007  1.00  0.00     0.008 A 
HETATM    9  C19 UNL     1      23.131   0.043  53.396  1.00  0.00     0.088 A 
HETATM   10  C21 UNL     1      22.157   1.002  53.198  1.00  0.00     0.011 A 
ENDROOT
BRANCH   1  11
HETATM   11  C10 UNL     1      21.686   3.369  52.240  1.00  0.00     0.118 C 
BRANCH  11  12
HETATM   12  C9  UNL     1      21.056   3.347  50.891  1.00  0.00     0.135 C 
HETATM   13  O1  UNL     1      20.164   2.759  50.308  1.00  0.00    -0.297 OA
BRANCH  12  14
HETATM   14  C8  UNL     1      21.595   4.286  49.861  1.00  0.00     0.112 C 
BRANCH  14  15
HETATM   15  C5  UNL     1      22.887   3.862  49.296  1.00  0.00    -0.073 C 
HETATM   16  C4  UNL     1      23.896   4.717  49.469  1.00  0.00     0.003 C 
BRANCH  16  17
HETATM   17  C3  UNL     1      25.298   4.835  49.150  1.00  0.00    -0.004 C 
HETATM   18  C2  UNL     1      26.464   4.231  49.294  1.00  0.00    -0.031 C 
HETATM   19  C1  UNL     1      27.665   4.879  48.701  1.00  0.00     0.036 C 
ENDBRANCH  16  17
BRANCH  15  20
HETATM   20  C6  UNL     1      23.077   2.583  48.579  1.00  0.00     0.030 C 
HETATM   21  C7  UNL     1      22.253   2.505  47.316  1.00  0.00     0.010 C 
ENDBRANCH  15  20
ENDBRANCH  14  15
ENDBRANCH  12  14
ENDBRANCH  11  12
ENDBRANCH   1  11
BRANCH  10  22
HETATM   22  C22 UNL     1      20.754   0.885  53.574  1.00  0.00     0.150 C 
HETATM   23  C23 UNL     1      19.974  -0.048  52.662  1.00  0.00     0.044 C 
BRANCH  22  24
HETATM   24  O3  UNL     1      20.656   0.393  54.870  1.00  0.00    -0.391 OA
HETATM   25  H28 UNL     1      21.094  -0.490  54.993  1.00  0.00     0.210 HD
ENDBRANCH  22  24
ENDBRANCH  10  22
BRANCH   9  26
HETATM   26  O2  UNL     1      22.766  -1.144  54.053  1.00  0.00    -0.354 OA
HETATM   27  C20 UNL     1      23.044  -1.442  55.386  1.00  0.00     0.210 C 
ENDBRANCH   9  26
TORSDOF 9
ENDMDL
MODEL 3
REMARK VINA RESULT:      -7.4      1.639      8.015
REMARK  9 active torsions:
REMARK  status: ('A' for Active; 'I' for Inactive)
REMARK    1  A    between atoms: C3_3  and  C4_4 
REMARK    2  A    between atoms: C5_5  and  C6_6 
REMARK    3  A    between atoms: C5_5  and  C8_8 
REMARK    4  A    between atoms: C8_8  and  C9_9 
REMARK    5  A    between atoms: C9_9  and  C10_11 
REMARK    6  A    between atoms: C10_11  and  C11_12 
REMARK    7  A    between atoms: C19_20  and  O2_21 
REMARK    8  A    between atoms: C21_23  and  C22_24 
REMARK    9  A    between atoms: C22_24  and  O3_26 
ROOT
HETATM    1  C11 UNL     1      24.362   1.652  51.542  1.00  0.00    -0.039 A 
HETATM    2  C12 UNL     1      22.980   1.514  51.814  1.00  0.00     0.020 A 
HETATM    3  C13 UNL     1      22.503   0.667  52.787  1.00  0.00    -0.023 A 
HETATM    4  C14 UNL     1      21.115   0.612  52.975  1.00  0.00     0.012 A 
HETATM    5  C15 UNL     1      20.699  -0.248  53.965  1.00  0.00     0.001 A 
HETATM    6  C16 UNL     1      21.479  -1.037  54.766  1.00  0.00     0.001 A 
HETATM    7  C17 UNL     1      22.844  -0.931  54.523  1.00  0.00     0.015 A 
HETATM    8  C18 UNL     1      23.350  -0.097  53.554  1.00  0.00     0.008 A 
HETATM    9  C19 UNL     1      24.685   0.055  53.272  1.00  0.00     0.088 A 
HETATM   10  C21 UNL     1      25.216   0.890  52.308  1.00  0.00     0.011 A 
ENDROOT
BRANCH   1  11
HETATM   11  C10 UNL     1      24.636   2.596  50.438  1.00  0.00     0.118 C 
BRANCH  11  12
HETATM   12  C9  UNL     1      24.344   4.020  50.755  1.00  0.00     0.135 C 
HETATM   13  O1  UNL     1      24.065   4.703  51.723  1.00  0.00    -0.297 OA
BRANCH  12  14
HETATM   14  C8  UNL     1      24.375   5.000  49.626  1.00  0.00     0.112 C 
BRANCH  14  15
HETATM   15  C5  UNL     1      25.663   5.701  49.490  1.00  0.00    -0.073 C 
HETATM   16  C4  UNL     1      26.648   4.986  48.946  1.00  0.00     0.003 C 
BRANCH  16  17
HETATM   17  C3  UNL     1      28.039   5.133  48.590  1.00  0.00    -0.004 C 
HETATM   18  C2  UNL     1      28.890   5.941  47.982  1.00  0.00    -0.031 C 
HETATM   19  C1  UNL     1      30.319   5.531  47.919  1.00  0.00     0.036 C 
ENDBRANCH  16  17
BRANCH  15  20
HETATM   20  C6  UNL     1      25.873   7.099  49.924  1.00  0.00     0.030 C 
HETATM   21  C7  UNL     1      25.706   8.083  48.791  1.00  0.00     0.010 C 
ENDBRANCH  15  20
ENDBRANCH  14  15
ENDBRANCH  12  14
ENDBRANCH  11  12
ENDBRANCH   1  11
BRANCH  10  22
HETATM   22  C22 UNL     1      26.633   1.083  52.031  1.00  0.00     0.150 C 
HETATM   23  C23 UNL     1      27.308   2.016  53.024  1.00  0.00     0.044 C 
BRANCH  22  24
HETATM   24  O3  UNL     1      27.291  -0.140  52.082  1.00  0.00    -0.391 OA
HETATM   25  H28 UNL     1      27.243  -0.653  51.232  1.00  0.00     0.210 HD
ENDBRANCH  22  24
ENDBRANCH  10  22
BRANCH   9  26
HETATM   26  O2  UNL     1      25.574  -0.716  54.040  1.00  0.00    -0.354 OA
HETATM   27  C20 UNL     1      26.033  -0.379  55.313  1.00  0.00     0.210 C 
ENDBRANCH   9  26
TORSDOF 9
ENDMDL
MODEL 4
REMARK VINA RESULT:      -7.3      1.851      2.920
REMARK  9 active torsions:
REMARK  status: ('A' for Active; 'I' for Inactive)
REMARK    1  A    between atoms: C3_3  and  C4_4 
REMARK    2  A    between atoms: C5_5  and  C6_6 
REMARK    3  A    between atoms: C5_5  and  C8_8 
REMARK    4  A    between atoms: C8_8  and  C9_9 
REMARK    5  A    between atoms: C9_9  and  C10_11 
REMARK    6  A    between atoms: C10_11  and  C11_12 
REMARK    7  A    between atoms: C19_20  and  O2_21 
REMARK    8  A    between atoms: C21_23  and  C22_24 
REMARK    9  A    between atoms: C22_24  and  O3_26 
ROOT
HETATM    1  C11 UNL     1      24.524   3.986  49.738  1.00  0.00    -0.039 A 
HETATM    2  C12 UNL     1      25.910   3.918  49.460  1.00  0.00     0.020 A 
HETATM    3  C13 UNL     1      26.606   4.979  48.926  1.00  0.00    -0.023 A 
HETATM    4  C14 UNL     1      27.977   4.803  48.695  1.00  0.00     0.012 A 
HETATM    5  C15 UNL     1      28.619   5.899  48.166  1.00  0.00     0.001 A 
HETATM    6  C16 UNL     1      28.072   7.113  47.848  1.00  0.00     0.001 A 
HETATM    7  C17 UNL     1      26.710   7.214  48.103  1.00  0.00     0.015 A 
HETATM    8  C18 UNL     1      25.987   6.170  48.632  1.00  0.00     0.008 A 
HETATM    9  C19 UNL     1      24.643   6.210  48.910  1.00  0.00     0.088 A 
HETATM   10  C21 UNL     1      23.898   5.177  49.446  1.00  0.00     0.011 A 
ENDROOT
BRANCH   1  11
HETATM   11  C10 UNL     1      23.988   2.720  50.280  1.00  0.00     0.118 C 
BRANCH  11  12
HETATM   12  C9  UNL     1      24.099   2.584  51.758  1.00  0.00     0.135 C 
HETATM   13  O1  UNL     1      24.049   3.290  52.748  1.00  0.00    -0.297 OA
BRANCH  12  14
HETATM   14  C8  UNL     1      24.345   1.217  52.310  1.00  0.00     0.112 C 
BRANCH  14  15
HETATM   15  C5  UNL     1      25.772   0.868  52.407  1.00  0.00    -0.073 C 
HETATM   16  C4  UNL     1      26.031  -0.399  52.732  1.00  0.00     0.003 C 
BRANCH  16  17
HETATM   17  C3  UNL     1      27.167  -1.260  52.962  1.00  0.00    -0.004 C 
HETATM   18  C2  UNL     1      28.483  -1.259  53.070  1.00  0.00    -0.031 C 
HETATM   19  C1  UNL     1      29.164  -2.556  53.333  1.00  0.00     0.036 C 
ENDBRANCH  16  17
BRANCH  15  20
HETATM   20  C6  UNL     1      26.861   1.840  52.168  1.00  0.00     0.030 C 
HETATM   21  C7  UNL     1      27.507   2.305  53.452  1.00  0.00     0.010 C 
ENDBRANCH  15  20
ENDBRANCH  14  15
ENDBRANCH  12  14
ENDBRANCH  11  12
ENDBRANCH   1  11
BRANCH  10  22
HETATM   22  C22 UNL     1      22.481   5.229  49.779  1.00  0.00     0.150 C 
HETATM   23  C23 UNL     1      22.205   5.978  51.072  1.00  0.00     0.044 C 
BRANCH  22  24
HETATM   24  O3  UNL     1      21.784   5.868  48.760  1.00  0.00    -0.391 OA
HETATM   25  H28 UNL     1      22.277   6.634  48.363  1.00  0.00     0.210 HD
ENDBRANCH  22  24
ENDBRANCH  10  22
BRANCH   9  26
HETATM   26  O2  UNL     1      23.984   7.417  48.617  1.00  0.00    -0.354 OA
HETATM   27  C20 UNL     1      23.992   8.552  49.427  1.00  0.00     0.210 C 
ENDBRANCH   9  26
TORSDOF 9
ENDMDL
MODEL 5
REMARK VINA RESULT:      -7.3      1.940      7.218
REMARK  9 active torsions:
REMARK  status: ('A' for Active; 'I' for Inactive)
REMARK    1  A    between atoms: C3_3  and  C4_4 
REMARK    2  A    between atoms: C5_5  and  C6_6 
REMARK    3  A    between atoms: C5_5  and  C8_8 
REMARK    4  A    between atoms: C8_8  and  C9_9 
REMARK    5  A    between atoms: C9_9  and  C10_11 
REMARK    6  A    between atoms: C10_11  and  C11_12 
REMARK    7  A    between atoms: C19_20  and  O2_21 
REMARK    8  A    between atoms: C21_23  and  C22_24 
REMARK    9  A    between atoms: C22_24  and  O3_26 
ROOT
HETATM    1  C11 UNL     1      23.606   2.556  52.603  1.00  0.00    -0.039 A 
HETATM    2  C12 UNL     1      24.991   2.761  52.806  1.00  0.00     0.020 A 
HETATM    3  C13 UNL     1      25.806   1.793  53.347  1.00  0.00    -0.023 A 
HETATM    4  C14 UNL     1      27.165   2.101  53.500  1.00  0.00     0.012 A 
HETATM    5  C15 UNL     1      27.928   1.093  54.041  1.00  0.00     0.001 A 
HETATM    6  C16 UNL     1      27.511  -0.148  54.438  1.00  0.00     0.001 A 
HETATM    7  C17 UNL     1      26.153  -0.382  54.257  1.00  0.00     0.015 A 
HETATM    8  C18 UNL     1      25.314   0.567  53.723  1.00  0.00     0.008 A 
HETATM    9  C19 UNL     1      23.967   0.393  53.516  1.00  0.00     0.088 A 
HETATM   10  C21 UNL     1      23.106   1.329  52.977  1.00  0.00     0.011 A 
ENDROOT
BRANCH   1  11
HETATM   11  C10 UNL     1      22.930   3.743  52.035  1.00  0.00     0.118 C 
BRANCH  11  12
HETATM   12  C9  UNL     1      22.608   3.637  50.586  1.00  0.00     0.135 C 
HETATM   13  O1  UNL     1      21.645   3.756  49.853  1.00  0.00    -0.297 OA
BRANCH  12  14
HETATM   14  C8  UNL     1      23.723   3.287  49.654  1.00  0.00     0.112 C 
BRANCH  14  15
HETATM   15  C5  UNL     1      24.684   4.384  49.446  1.00  0.00    -0.073 C 
HETATM   16  C4  UNL     1      25.940   4.006  49.206  1.00  0.00     0.003 C 
BRANCH  16  17
HETATM   17  C3  UNL     1      27.230   4.599  48.947  1.00  0.00    -0.004 C 
HETATM   18  C2  UNL     1      27.818   5.623  48.355  1.00  0.00    -0.031 C 
HETATM   19  C1  UNL     1      29.302   5.714  48.427  1.00  0.00     0.036 C 
ENDBRANCH  16  17
BRANCH  15  20
HETATM   20  C6  UNL     1      24.305   5.812  49.500  1.00  0.00     0.030 C 
HETATM   21  C7  UNL     1      23.916   6.355  48.145  1.00  0.00     0.010 C 
ENDBRANCH  15  20
ENDBRANCH  14  15
ENDBRANCH  12  14
ENDBRANCH  11  12
ENDBRANCH   1  11
BRANCH  10  22
HETATM   22  C22 UNL     1      21.685   1.135  52.719  1.00  0.00     0.150 C 
HETATM   23  C23 UNL     1      21.418   0.185  51.563  1.00  0.00     0.044 C 
BRANCH  22  24
HETATM   24  O3  UNL     1      21.072   0.611  53.851  1.00  0.00    -0.391 OA
HETATM   25  H28 UNL     1      21.211  -0.367  53.960  1.00  0.00     0.210 HD
ENDBRANCH  22  24
ENDBRANCH  10  22
BRANCH   9  26
HETATM   26  O2  UNL     1      23.436  -0.853  53.893  1.00  0.00    -0.354 OA
HETATM   27  C20 UNL     1      23.097  -1.218  55.195  1.00  0.00     0.210 C 
ENDBRANCH   9  26
TORSDOF 9
ENDMDL
MODEL 6
REMARK VINA RESULT:      -7.2      1.464      2.418
REMARK  9 active torsions:
REMARK  status: ('A' for Active; 'I' for Inactive)
REMARK    1  A    between atoms: C3_3  and  C4_4 
REMARK    2  A    between atoms: C5_5  and  C6_6 
REMARK    3  A    between atoms: C5_5  and  C8_8 
REMARK    4  A    between atoms: C8_8  and  C9_9 
REMARK    5  A    between atoms: C9_9  and  C10_11 
REMARK    6  A    between atoms: C10_11  and  C11_12 
REMARK    7  A    between atoms: C19_20  and  O2_21 
REMARK    8  A    between atoms: C21_23  and  C22_24 
REMARK    9  A    between atoms: C22_24  and  O3_26 
ROOT
HETATM    1  C11 UNL     1      26.166   4.482  49.317  1.00  0.00    -0.039 A 
HETATM    2  C12 UNL     1      27.512   4.461  48.882  1.00  0.00     0.020 A 
HETATM    3  C13 UNL     1      28.156   5.588  48.427  1.00  0.00    -0.023 A 
HETATM    4  C14 UNL     1      29.492   5.454  48.025  1.00  0.00     0.012 A 
HETATM    5  C15 UNL     1      30.083   6.616  47.585  1.00  0.00     0.001 A 
HETATM    6  C16 UNL     1      29.517   7.859  47.500  1.00  0.00     0.001 A 
HETATM    7  C17 UNL     1      28.192   7.916  47.915  1.00  0.00     0.015 A 
HETATM    8  C18 UNL     1      27.521   6.806  48.370  1.00  0.00     0.008 A 
HETATM    9  C19 UNL     1      26.216   6.800  48.797  1.00  0.00     0.088 A 
HETATM   10  C21 UNL     1      25.524   5.699  49.263  1.00  0.00     0.011 A 
ENDROOT
BRANCH   1  11
HETATM   11  C10 UNL     1      25.680   3.150  49.735  1.00  0.00     0.118 C 
BRANCH  11  12
HETATM   12  C9  UNL     1      26.181   2.697  51.061  1.00  0.00     0.135 C 
HETATM   13  O1  UNL     1      27.126   2.084  51.520  1.00  0.00    -0.297 OA
BRANCH  12  14
HETATM   14  C8  UNL     1      25.361   3.039  52.263  1.00  0.00     0.112 C 
BRANCH  14  15
HETATM   15  C5  UNL     1      24.110   2.269  52.362  1.00  0.00    -0.073 C 
HETATM   16  C4  UNL     1      24.187   1.140  53.068  1.00  0.00     0.003 C 
BRANCH  16  17
HETATM   17  C3  UNL     1      23.341   0.045  53.477  1.00  0.00    -0.004 C 
HETATM   18  C2  UNL     1      22.121  -0.446  53.351  1.00  0.00    -0.031 C 
HETATM   19  C1  UNL     1      21.799  -1.711  54.066  1.00  0.00     0.036 C 
ENDBRANCH  16  17
BRANCH  15  20
HETATM   20  C6  UNL     1      22.845   2.695  51.727  1.00  0.00     0.030 C 
HETATM   21  C7  UNL     1      22.524   1.893  50.488  1.00  0.00     0.010 C 
ENDBRANCH  15  20
ENDBRANCH  14  15
ENDBRANCH  12  14
ENDBRANCH  11  12
ENDBRANCH   1  11
BRANCH  10  22
HETATM   22  C22 UNL     1      24.152   5.697  49.754  1.00  0.00     0.150 C 
HETATM   23  C23 UNL     1      24.026   6.268  51.157  1.00  0.00     0.044 C 
BRANCH  22  24
HETATM   24  O3  UNL     1      23.352   6.458  48.911  1.00  0.00    -0.391 OA
HETATM   25  H28 UNL     1      22.541   5.979  48.594  1.00  0.00     0.210 HD
ENDBRANCH  22  24
ENDBRANCH  10  22
BRANCH   9  26
HETATM   26  O2  UNL     1      25.541   8.032  48.749  1.00  0.00    -0.354 OA
HETATM   27  C20 UNL     1      25.674   9.057  49.685  1.00  0.00     0.210 C 
ENDBRANCH   9  26
TORSDOF 9
ENDMDL
MODEL 7
REMARK VINA RESULT:      -6.8      4.019      8.421
REMARK  9 active torsions:
REMARK  status: ('A' for Active; 'I' for Inactive)
REMARK    1  A    between atoms: C3_3  and  C4_4 
REMARK    2  A    between atoms: C5_5  and  C6_6 
REMARK    3  A    between atoms: C5_5  and  C8_8 
REMARK    4  A    between atoms: C8_8  and  C9_9 
REMARK    5  A    between atoms: C9_9  and  C10_11 
REMARK    6  A    between atoms: C10_11  and  C11_12 
REMARK    7  A    between atoms: C19_20  and  O2_21 
REMARK    8  A    between atoms: C21_23  and  C22_24 
REMARK    9  A    between atoms: C22_24  and  O3_26 
ROOT
HETATM    1  C11 UNL     1      28.988   6.280  47.902  1.00  0.00    -0.039 A 
HETATM    2  C12 UNL     1      28.508   5.038  48.379  1.00  0.00     0.020 A 
HETATM    3  C13 UNL     1      27.225   4.877  48.850  1.00  0.00    -0.023 A 
HETATM    4  C14 UNL     1      26.853   3.601  49.295  1.00  0.00     0.012 A 
HETATM    5  C15 UNL     1      25.558   3.501  49.749  1.00  0.00     0.001 A 
HETATM    6  C16 UNL     1      24.618   4.493  49.811  1.00  0.00     0.001 A 
HETATM    7  C17 UNL     1      25.057   5.730  49.354  1.00  0.00     0.015 A 
HETATM    8  C18 UNL     1      26.334   5.923  48.882  1.00  0.00     0.008 A 
HETATM    9  C19 UNL     1      26.824   7.118  48.414  1.00  0.00     0.088 A 
HETATM   10  C21 UNL     1      28.100   7.333  47.931  1.00  0.00     0.011 A 
ENDROOT
BRANCH   1  11
HETATM   11  C10 UNL     1      30.402   6.220  47.474  1.00  0.00     0.118 C 
BRANCH  11  12
HETATM   12  C9  UNL     1      31.333   5.663  48.492  1.00  0.00     0.135 C 
HETATM   13  O1  UNL     1      31.366   5.471  49.693  1.00  0.00    -0.297 OA
BRANCH  12  14
HETATM   14  C8  UNL     1      32.655   5.155  48.015  1.00  0.00     0.112 C 
BRANCH  14  15
HETATM   15  C5  UNL     1      32.576   4.402  46.752  1.00  0.00    -0.073 C 
HETATM   16  C4  UNL     1      33.221   4.946  45.719  1.00  0.00     0.003 C 
BRANCH  16  17
HETATM   17  C3  UNL     1      33.475   4.680  44.323  1.00  0.00    -0.004 C 
HETATM   18  C2  UNL     1      33.133   5.051  43.103  1.00  0.00    -0.031 C 
HETATM   19  C1  UNL     1      33.782   4.361  41.955  1.00  0.00     0.036 C 
ENDBRANCH  16  17
BRANCH  15  20
HETATM   20  C6  UNL     1      31.833   3.131  46.612  1.00  0.00     0.030 C 
HETATM   21  C7  UNL     1      32.672   1.931  46.985  1.00  0.00     0.010 C 
ENDBRANCH  15  20
ENDBRANCH  14  15
ENDBRANCH  12  14
ENDBRANCH  11  12
ENDBRANCH   1  11
BRANCH  10  22
HETATM   22  C22 UNL     1      28.611   8.588  47.397  1.00  0.00     0.150 C 
HETATM   23  C23 UNL     1      28.129   8.869  45.984  1.00  0.00     0.044 C 
BRANCH  22  24
HETATM   24  O3  UNL     1      28.200   9.642  48.205  1.00  0.00    -0.391 OA
HETATM   25  H28 UNL     1      27.957   9.363  49.127  1.00  0.00     0.210 HD
ENDBRANCH  22  24
ENDBRANCH  10  22
BRANCH   9  26
HETATM   26  O2  UNL     1      25.934   8.205  48.438  1.00  0.00    -0.354 OA
HETATM   27  C20 UNL     1      24.939   8.447  47.492  1.00  0.00     0.210 C 
ENDBRANCH   9  26
TORSDOF 9
ENDMDL
MODEL 8
REMARK VINA RESULT:      -6.8      1.974      2.780
REMARK  9 active torsions:
REMARK  status: ('A' for Active; 'I' for Inactive)
REMARK    1  A    between atoms: C3_3  and  C4_4 
REMARK    2  A    between atoms: C5_5  and  C6_6 
REMARK    3  A    between atoms: C5_5  and  C8_8 
REMARK    4  A    between atoms: C8_8  and  C9_9 
REMARK    5  A    between atoms: C9_9  and  C10_11 
REMARK    6  A    between atoms: C10_11  and  C11_12 
REMARK    7  A    between atoms: C19_20  and  O2_21 
REMARK    8  A    between atoms: C21_23  and  C22_24 
REMARK    9  A    between atoms: C22_24  and  O3_26 
ROOT
HETATM    1  C11 UNL     1      24.126   3.317  50.220  1.00  0.00    -0.039 A 
HETATM    2  C12 UNL     1      25.482   3.329  49.817  1.00  0.00     0.020 A 
HETATM    3  C13 UNL     1      26.087   4.452  49.302  1.00  0.00    -0.023 A 
HETATM    4  C14 UNL     1      27.437   4.352  48.938  1.00  0.00     0.012 A 
HETATM    5  C15 UNL     1      27.986   5.509  48.434  1.00  0.00     0.001 A 
HETATM    6  C16 UNL     1      27.369   6.717  48.255  1.00  0.00     0.001 A 
HETATM    7  C17 UNL     1      26.033   6.741  48.636  1.00  0.00     0.015 A 
HETATM    8  C18 UNL     1      25.400   5.633  49.150  1.00  0.00     0.008 A 
HETATM    9  C19 UNL     1      24.086   5.596  49.549  1.00  0.00     0.088 A 
HETATM   10  C21 UNL     1      23.433   4.498  50.072  1.00  0.00     0.011 A 
ENDROOT
BRANCH   1  11
HETATM   11  C10 UNL     1      23.689   1.995  50.716  1.00  0.00     0.118 C 
BRANCH  11  12
HETATM   12  C9  UNL     1      23.741   1.840  52.195  1.00  0.00     0.135 C 
HETATM   13  O1  UNL     1      23.888   2.535  53.182  1.00  0.00    -0.297 OA
BRANCH  12  14
HETATM   14  C8  UNL     1      23.576   0.463  52.752  1.00  0.00     0.112 C 
BRANCH  14  15
HETATM   15  C5  UNL     1      22.178   0.115  53.057  1.00  0.00    -0.073 C 
HETATM   16  C4  UNL     1      21.311   0.305  52.062  1.00  0.00     0.003 C 
BRANCH  16  17
HETATM   17  C3  UNL     1      19.900   0.156  51.796  1.00  0.00    -0.004 C 
HETATM   18  C2  UNL     1      18.953   0.479  50.934  1.00  0.00    -0.031 C 
HETATM   19  C1  UNL     1      17.569   0.002  51.205  1.00  0.00     0.036 C 
ENDBRANCH  16  17
BRANCH  15  20
HETATM   20  C6  UNL     1      21.741  -0.406  54.370  1.00  0.00     0.030 C 
HETATM   21  C7  UNL     1      22.843  -1.147  55.090  1.00  0.00     0.010 C 
ENDBRANCH  15  20
ENDBRANCH  14  15
ENDBRANCH  12  14
ENDBRANCH  11  12
ENDBRANCH   1  11
BRANCH  10  22
HETATM   22  C22 UNL     1      22.051   4.465  50.532  1.00  0.00     0.150 C 
HETATM   23  C23 UNL     1      21.868   5.105  51.899  1.00  0.00     0.044 C 
BRANCH  22  24
HETATM   24  O3  UNL     1      21.241   5.147  49.632  1.00  0.00    -0.391 OA
HETATM   25  H28 UNL     1      20.361   5.411  50.011  1.00  0.00     0.210 HD
ENDBRANCH  22  24
ENDBRANCH  10  22
BRANCH   9  26
HETATM   26  O2  UNL     1      23.359   6.790  49.403  1.00  0.00    -0.354 OA
HETATM   27  C20 UNL     1      23.404   7.868  50.286  1.00  0.00     0.210 C 
ENDBRANCH   9  26
TORSDOF 9
ENDMDL
MODEL 9
REMARK VINA RESULT:      -6.7      2.042      5.110
REMARK  9 active torsions:
REMARK  status: ('A' for Active; 'I' for Inactive)
REMARK    1  A    between atoms: C3_3  and  C4_4 
REMARK    2  A    between atoms: C5_5  and  C6_6 
REMARK    3  A    between atoms: C5_5  and  C8_8 
REMARK    4  A    between atoms: C8_8  and  C9_9 
REMARK    5  A    between atoms: C9_9  and  C10_11 
REMARK    6  A    between atoms: C10_11  and  C11_12 
REMARK    7  A    between atoms: C19_20  and  O2_21 
REMARK    8  A    between atoms: C21_23  and  C22_24 
REMARK    9  A    between atoms: C22_24  and  O3_26 
ROOT
HETATM    1  C11 UNL     1      23.093   4.163  51.670  1.00  0.00    -0.039 A 
HETATM    2  C12 UNL     1      23.659   3.464  52.762  1.00  0.00     0.020 A 
HETATM    3  C13 UNL     1      24.888   2.850  52.684  1.00  0.00    -0.023 A 
HETATM    4  C14 UNL     1      25.356   2.189  53.828  1.00  0.00     0.012 A 
HETATM    5  C15 UNL     1      26.591   1.599  53.691  1.00  0.00     0.001 A 
HETATM    6  C16 UNL     1      27.392   1.589  52.581  1.00  0.00     0.001 A 
HETATM    7  C17 UNL     1      26.863   2.263  51.486  1.00  0.00     0.015 A 
HETATM    8  C18 UNL     1      25.637   2.883  51.532  1.00  0.00     0.008 A 
HETATM    9  C19 UNL     1      25.065   3.566  50.487  1.00  0.00     0.088 A 
HETATM   10  C21 UNL     1      23.838   4.200  50.513  1.00  0.00     0.011 A 
ENDROOT
BRANCH   1  11
HETATM   11  C10 UNL     1      21.756   4.716  51.977  1.00  0.00     0.118 C 
BRANCH  11  12
HETATM   12  C9  UNL     1      20.648   3.725  51.915  1.00  0.00     0.135 C 
HETATM   13  O1  UNL     1      19.547   3.554  52.403  1.00  0.00    -0.297 OA
BRANCH  12  14
HETATM   14  C8  UNL     1      20.825   2.545  51.015  1.00  0.00     0.112 C 
BRANCH  14  15
HETATM   15  C5  UNL     1      20.792   1.254  51.724  1.00  0.00    -0.073 C 
HETATM   16  C4  UNL     1      21.629   1.146  52.755  1.00  0.00     0.003 C 
BRANCH  16  17
HETATM   17  C3  UNL     1      22.016   0.179  53.756  1.00  0.00    -0.004 C 
HETATM   18  C2  UNL     1      22.887  -0.781  54.009  1.00  0.00    -0.031 C 
HETATM   19  C1  UNL     1      22.788  -1.486  55.316  1.00  0.00     0.036 C 
ENDBRANCH  16  17
BRANCH  15  20
HETATM   20  C6  UNL     1      19.903   0.139  51.333  1.00  0.00     0.030 C 
HETATM   21  C7  UNL     1      18.627   0.111  52.140  1.00  0.00     0.010 C 
ENDBRANCH  15  20
ENDBRANCH  14  15
ENDBRANCH  12  14
ENDBRANCH  11  12
ENDBRANCH   1  11
BRANCH  10  22
HETATM   22  C22 UNL     1      23.245   4.959  49.420  1.00  0.00     0.150 C 
HETATM   23  C23 UNL     1      23.863   6.339  49.255  1.00  0.00     0.044 C 
BRANCH  22  24
HETATM   24  O3  UNL     1      23.418   4.271  48.225  1.00  0.00    -0.391 OA
HETATM   25  H28 UNL     1      22.981   4.712  47.447  1.00  0.00     0.210 HD
ENDBRANCH  22  24
ENDBRANCH  10  22
BRANCH   9  26
HETATM   26  O2  UNL     1      25.808   3.614  49.295  1.00  0.00    -0.354 OA
HETATM   27  C20 UNL     1      26.879   4.474  49.052  1.00  0.00     0.210 C 
ENDBRANCH   9  26
TORSDOF 9
ENDMDL
