MODEL 1
REMARK VINA RESULT:      -6.8      0.000      0.000
REMARK  5 active torsions:
REMARK  status: ('A' for Active; 'I' for Inactive)
REMARK    1  A    between atoms: P1_2  and  C2_3 
REMARK    2  A    between atoms: C5_6  and  C6_7 
REMARK    3  A    between atoms: C6_7  and  C7_8 
REMARK       I    between atoms: C7_8  and  N1_10 
REMARK    4  A    between atoms: N1_10  and  S1_11 
REMARK    5  A    between atoms: S1_11  and  C8_14 
ROOT
HETATM    1  C7  UNL     1      26.012   2.485  51.748  1.00  0.00     0.231 C 
HETATM    2  O1  UNL     1      24.762   2.264  51.842  1.00  0.00    -0.273 OA
HETATM    3  N1  UNL     1      26.669   3.419  50.933  1.00  0.00    -0.250 N 
HETATM    4  H11 UNL     1      27.719   3.483  50.969  1.00  0.00     0.181 HD
ENDROOT
BRANCH   3   5
HETATM    5  S1  UNL     1      25.660   4.392  49.928  1.00  0.00     0.265 S 
HETATM    6  O2  UNL     1      24.697   5.159  50.754  1.00  0.00    -0.200 OA
HETATM    7  O3  UNL     1      24.865   3.534  48.966  1.00  0.00    -0.200 OA
BRANCH   5   8
HETATM    8  C8  UNL     1      26.575   5.520  48.952  1.00  0.00     0.080 A 
HETATM    9  C9  UNL     1      27.910   5.199  48.692  1.00  0.00     0.027 A 
HETATM   10  C10 UNL     1      28.775   5.989  47.934  1.00  0.00     0.025 A 
HETATM   11  C11 UNL     1      28.233   7.149  47.431  1.00  0.00     0.034 A 
HETATM   12 CL1  UNL     1      29.292   8.158  46.478  1.00  0.00    -0.084 Cl
HETATM   13  C12 UNL     1      26.917   7.506  47.663  1.00  0.00     0.025 A 
HETATM   14  C13 UNL     1      26.094   6.698  48.418  1.00  0.00     0.027 A 
ENDBRANCH   5   8
ENDBRANCH   3   5
BRANCH   1  15
HETATM   15  C6  UNL     1      26.816   1.612  52.641  1.00  0.00     0.113 C 
BRANCH  15  16
HETATM   16  C5  UNL     1      26.140   0.278  52.876  1.00  0.00     0.028 A 
HETATM   17  C2  UNL     1      26.881  -0.494  53.919  1.00  0.00     0.041 A 
HETATM   18  C3  UNL     1      27.127  -1.470  52.868  1.00  0.00    -0.021 A 
HETATM   19  C4  UNL     1      26.482  -0.793  51.973  1.00  0.00    -0.024 A 
BRANCH  17  20
HETATM   20  P1  UNL     1      28.482   0.306  54.445  1.00  0.00    -0.124 P 
HETATM   21  C1  UNL     1      29.943  -0.435  53.610  1.00  0.00     0.041 C 
HETATM   22  H4  UNL     1      28.628   0.346  55.882  1.00  0.00     0.058 HD
ENDBRANCH  17  20
ENDBRANCH  15  16
ENDBRANCH   1  15
TORSDOF 5
ENDMDL
MODEL 2
REMARK VINA RESULT:      -6.7      6.723      8.754
REMARK  5 active torsions:
REMARK  status: ('A' for Active; 'I' for Inactive)
REMARK    1  A    between atoms: P1_2  and  C2_3 
REMARK    2  A    between atoms: C5_6  and  C6_7 
REMARK    3  A    between atoms: C6_7  and  C7_8 
REMARK       I    between atoms: C7_8  and  N1_10 
REMARK    4  A    between atoms: N1_10  and  S1_11 
REMARK    5  A    between atoms: S1_11  and  C8_14 
ROOT
HETATM    1  C7  UNL     1      23.468  -0.437  53.682  1.00  0.00     0.231 C 
HETATM    2  O1  UNL     1      23.667  -0.896  54.852  1.00  0.00    -0.273 OA
HETATM    3  N1  UNL     1      22.244  -0.178  53.047  1.00  0.00    -0.250 N 
HETATM    4  H11 UNL     1      22.243   0.205  52.067  1.00  0.00     0.181 HD
ENDROOT
BRANCH   3   5
HETATM    5  S1  UNL     1      20.825  -0.523  53.967  1.00  0.00     0.265 S 
HETATM    6  O2  UNL     1      20.654   0.480  55.046  1.00  0.00    -0.200 OA
HETATM    7  O3  UNL     1      20.918  -1.888  54.615  1.00  0.00    -0.200 OA
BRANCH   5   8
HETATM    8  C8  UNL     1      19.377  -0.534  52.985  1.00  0.00     0.080 A 
HETATM    9  C9  UNL     1      18.317  -1.335  53.423  1.00  0.00     0.027 A 
HETATM   10  C10 UNL     1      17.097  -1.455  52.757  1.00  0.00     0.025 A 
HETATM   11  C11 UNL     1      16.976  -0.719  51.601  1.00  0.00     0.034 A 
HETATM   12 CL1  UNL     1      15.459  -0.850  50.746  1.00  0.00    -0.084 Cl
HETATM   13  C12 UNL     1      17.998   0.086  51.131  1.00  0.00     0.025 A 
HETATM   14  C13 UNL     1      19.190   0.178  51.818  1.00  0.00     0.027 A 
ENDBRANCH   5   8
ENDBRANCH   3   5
BRANCH   1  15
HETATM   15  C6  UNL     1      24.732  -0.164  52.951  1.00  0.00     0.113 C 
BRANCH  15  16
HETATM   16  C5  UNL     1      25.901  -0.910  53.558  1.00  0.00     0.028 A 
HETATM   17  C2  UNL     1      26.925   0.059  54.053  1.00  0.00     0.041 A 
HETATM   18  C3  UNL     1      27.813  -0.542  53.069  1.00  0.00    -0.021 A 
HETATM   19  C4  UNL     1      26.918  -1.378  52.649  1.00  0.00    -0.024 A 
BRANCH  17  20
HETATM   20  P1  UNL     1      26.560   1.830  53.596  1.00  0.00    -0.124 P 
HETATM   21  C1  UNL     1      27.078   2.232  51.878  1.00  0.00     0.041 C 
HETATM   22  H4  UNL     1      27.085   2.766  54.565  1.00  0.00     0.058 HD
ENDBRANCH  17  20
ENDBRANCH  15  16
ENDBRANCH   1  15
TORSDOF 5
ENDMDL
MODEL 3
REMARK VINA RESULT:      -6.5      3.906      7.499
REMARK  5 active torsions:
REMARK  status: ('A' for Active; 'I' for Inactive)
REMARK    1  A    between atoms: P1_2  and  C2_3 
REMARK    2  A    between atoms: C5_6  and  C6_7 
REMARK    3  A    between atoms: C6_7  and  C7_8 
REMARK       I    between atoms: C7_8  and  N1_10 
REMARK    4  A    between atoms: N1_10  and  S1_11 
REMARK    5  A    between atoms: S1_11  and  C8_14 
ROOT
HETATM    1  C7  UNL     1      24.561   4.193  50.304  1.00  0.00     0.231 C 
HETATM    2  O1  UNL     1      23.324   3.926  50.441  1.00  0.00    -0.273 OA
HETATM    3  N1  UNL     1      25.652   3.622  50.976  1.00  0.00    -0.250 N 
HETATM    4  H11 UNL     1      26.625   3.952  50.750  1.00  0.00     0.181 HD
ENDROOT
BRANCH   3   5
HETATM    5  S1  UNL     1      25.273   2.403  52.137  1.00  0.00     0.265 S 
HETATM    6  O2  UNL     1      24.296   1.441  51.573  1.00  0.00    -0.200 OA
HETATM    7  O3  UNL     1      24.660   3.011  53.380  1.00  0.00    -0.200 OA
BRANCH   5   8
HETATM    8  C8  UNL     1      26.686   1.514  52.660  1.00  0.00     0.080 A 
HETATM    9  C9  UNL     1      26.643   0.122  52.542  1.00  0.00     0.027 A 
HETATM   10  C10 UNL     1      27.683  -0.731  52.912  1.00  0.00     0.025 A 
HETATM   11  C11 UNL     1      28.803  -0.116  53.422  1.00  0.00     0.034 A 
HETATM   12 CL1  UNL     1      30.121  -1.158  53.896  1.00  0.00    -0.084 Cl
HETATM   13  C12 UNL     1      28.889   1.258  53.558  1.00  0.00     0.025 A 
HETATM   14  C13 UNL     1      27.839   2.067  53.180  1.00  0.00     0.027 A 
ENDBRANCH   5   8
ENDBRANCH   3   5
BRANCH   1  15
HETATM   15  C6  UNL     1      24.810   5.250  49.290  1.00  0.00     0.113 C 
BRANCH  15  16
HETATM   16  C5  UNL     1      26.130   5.952  49.526  1.00  0.00     0.028 A 
HETATM   17  C2  UNL     1      26.063   7.354  49.013  1.00  0.00     0.041 A 
HETATM   18  C3  UNL     1      27.116   6.952  48.092  1.00  0.00    -0.021 A 
HETATM   19  C4  UNL     1      27.166   5.740  48.545  1.00  0.00    -0.024 A 
BRANCH  17  20
HETATM   20  P1  UNL     1      24.495   7.733  48.077  1.00  0.00    -0.124 P 
HETATM   21  C1  UNL     1      23.297   8.702  49.081  1.00  0.00     0.041 C 
HETATM   22  H4  UNL     1      23.902   6.549  47.499  1.00  0.00     0.058 HD
ENDBRANCH  17  20
ENDBRANCH  15  16
ENDBRANCH   1  15
TORSDOF 5
ENDMDL
MODEL 4
REMARK VINA RESULT:      -6.3      5.229      8.198
REMARK  5 active torsions:
REMARK  status: ('A' for Active; 'I' for Inactive)
REMARK    1  A    between atoms: P1_2  and  C2_3 
REMARK    2  A    between atoms: C5_6  and  C6_7 
REMARK    3  A    between atoms: C6_7  and  C7_8 
REMARK       I    between atoms: C7_8  and  N1_10 
REMARK    4  A    between atoms: N1_10  and  S1_11 
REMARK    5  A    between atoms: S1_11  and  C8_14 
ROOT
HETATM    1  C7  UNL     1      25.668   2.317  52.413  1.00  0.00     0.231 C 
HETATM    2  O1  UNL     1      25.000   2.839  53.362  1.00  0.00    -0.273 OA
HETATM    3  N1  UNL     1      26.276   1.054  52.372  1.00  0.00    -0.250 N 
HETATM    4  H11 UNL     1      26.799   0.763  51.507  1.00  0.00     0.181 HD
ENDROOT
BRANCH   3   5
HETATM    5  S1  UNL     1      26.099   0.081  53.786  1.00  0.00     0.265 S 
HETATM    6  O2  UNL     1      26.510   0.843  54.990  1.00  0.00    -0.200 OA
HETATM    7  O3  UNL     1      26.964  -1.158  53.703  1.00  0.00    -0.200 OA
BRANCH   5   8
HETATM    8  C8  UNL     1      24.455  -0.472  54.016  1.00  0.00     0.080 A 
HETATM    9  C9  UNL     1      23.566  -0.286  52.952  1.00  0.00     0.027 A 
HETATM   10  C10 UNL     1      22.225  -0.670  52.973  1.00  0.00     0.025 A 
HETATM   11  C11 UNL     1      21.795  -1.265  54.136  1.00  0.00     0.034 A 
HETATM   12 CL1  UNL     1      20.120  -1.755  54.192  1.00  0.00    -0.084 Cl
HETATM   13  C12 UNL     1      22.639  -1.468  55.213  1.00  0.00     0.025 A 
HETATM   14  C13 UNL     1      23.958  -1.074  55.154  1.00  0.00     0.027 A 
ENDBRANCH   5   8
ENDBRANCH   3   5
BRANCH   1  15
HETATM   15  C6  UNL     1      25.779   3.211  51.231  1.00  0.00     0.113 C 
BRANCH  15  16
HETATM   16  C5  UNL     1      24.860   2.773  50.110  1.00  0.00     0.028 A 
HETATM   17  C2  UNL     1      24.339   3.968  49.379  1.00  0.00     0.041 A 
HETATM   18  C3  UNL     1      23.025   3.538  49.832  1.00  0.00    -0.021 A 
HETATM   19  C4  UNL     1      23.487   2.505  50.461  1.00  0.00    -0.024 A 
BRANCH  17  20
HETATM   20  P1  UNL     1      24.798   5.591  50.177  1.00  0.00    -0.124 P 
HETATM   21  C1  UNL     1      23.341   6.458  50.890  1.00  0.00     0.041 C 
HETATM   22  H4  UNL     1      25.568   6.437  49.294  1.00  0.00     0.058 HD
ENDBRANCH  17  20
ENDBRANCH  15  16
ENDBRANCH   1  15
TORSDOF 5
ENDMDL
MODEL 5
REMARK VINA RESULT:      -6.3      1.521      2.169
REMARK  5 active torsions:
REMARK  status: ('A' for Active; 'I' for Inactive)
REMARK    1  A    between atoms: P1_2  and  C2_3 
REMARK    2  A    between atoms: C5_6  and  C6_7 
REMARK    3  A    between atoms: C6_7  and  C7_8 
REMARK       I    between atoms: C7_8  and  N1_10 
REMARK    4  A    between atoms: N1_10  and  S1_11 
REMARK    5  A    between atoms: S1_11  and  C8_14 
ROOT
HETATM    1  C7  UNL     1      24.233   2.597  50.998  1.00  0.00     0.231 C 
HETATM    2  O1  UNL     1      23.094   3.102  51.254  1.00  0.00    -0.273 OA
HETATM    3  N1  UNL     1      25.306   3.181  50.307  1.00  0.00    -0.250 N 
HETATM    4  H11 UNL     1      26.193   2.630  50.175  1.00  0.00     0.181 HD
ENDROOT
BRANCH   3   5
HETATM    5  S1  UNL     1      25.052   4.787  49.729  1.00  0.00     0.265 S 
HETATM    6  O2  UNL     1      24.663   5.680  50.847  1.00  0.00    -0.200 OA
HETATM    7  O3  UNL     1      23.942   4.823  48.700  1.00  0.00    -0.200 OA
BRANCH   5   8
HETATM    8  C8  UNL     1      26.473   5.452  48.956  1.00  0.00     0.080 A 
HETATM    9  C9  UNL     1      26.367   6.745  48.434  1.00  0.00     0.027 A 
HETATM   10  C10 UNL     1      27.404   7.419  47.788  1.00  0.00     0.025 A 
HETATM   11  C11 UNL     1      28.588   6.726  47.682  1.00  0.00     0.034 A 
HETATM   12 CL1  UNL     1      29.904   7.545  46.878  1.00  0.00    -0.084 Cl
HETATM   13  C12 UNL     1      28.737   5.446  48.184  1.00  0.00     0.025 A 
HETATM   14  C13 UNL     1      27.688   4.814  48.815  1.00  0.00     0.027 A 
ENDBRANCH   5   8
ENDBRANCH   3   5
BRANCH   1  15
HETATM   15  C6  UNL     1      24.379   1.216  51.524  1.00  0.00     0.113 C 
BRANCH  15  16
HETATM   16  C5  UNL     1      24.211   1.170  53.029  1.00  0.00     0.028 A 
HETATM   17  C2  UNL     1      25.428   0.576  53.662  1.00  0.00     0.041 A 
HETATM   18  C3  UNL     1      24.540  -0.482  54.121  1.00  0.00    -0.021 A 
HETATM   19  C4  UNL     1      23.493   0.043  53.570  1.00  0.00    -0.024 A 
BRANCH  17  20
HETATM   20  P1  UNL     1      26.656  -0.101  52.431  1.00  0.00    -0.124 P 
HETATM   21  C1  UNL     1      26.897  -1.915  52.608  1.00  0.00     0.041 C 
HETATM   22  H4  UNL     1      27.904   0.627  52.446  1.00  0.00     0.058 HD
ENDBRANCH  17  20
ENDBRANCH  15  16
ENDBRANCH   1  15
TORSDOF 5
ENDMDL
MODEL 6
REMARK VINA RESULT:      -6.2      3.843      7.483
REMARK  5 active torsions:
REMARK  status: ('A' for Active; 'I' for Inactive)
REMARK    1  A    between atoms: P1_2  and  C2_3 
REMARK    2  A    between atoms: C5_6  and  C6_7 
REMARK    3  A    between atoms: C6_7  and  C7_8 
REMARK       I    between atoms: C7_8  and  N1_10 
REMARK    4  A    between atoms: N1_10  and  S1_11 
REMARK    5  A    between atoms: S1_11  and  C8_14 
ROOT
HETATM    1  C7  UNL     1      24.536   4.952  50.900  1.00  0.00     0.231 C 
HETATM    2  O1  UNL     1      23.278   4.879  51.081  1.00  0.00    -0.273 OA
HETATM    3  N1  UNL     1      25.515   3.995  51.206  1.00  0.00    -0.250 N 
HETATM    4  H11 UNL     1      26.523   4.205  50.994  1.00  0.00     0.181 HD
ENDROOT
BRANCH   3   5
HETATM    5  S1  UNL     1      24.945   2.530  51.919  1.00  0.00     0.265 S 
HETATM    6  O2  UNL     1      24.084   1.793  50.963  1.00  0.00    -0.200 OA
HETATM    7  O3  UNL     1      24.125   2.814  53.158  1.00  0.00    -0.200 OA
BRANCH   5   8
HETATM    8  C8  UNL     1      26.251   1.476  52.415  1.00  0.00     0.080 A 
HETATM    9  C9  UNL     1      27.368   2.079  53.002  1.00  0.00     0.027 A 
HETATM   10  C10 UNL     1      28.490   1.383  53.451  1.00  0.00     0.025 A 
HETATM   11  C11 UNL     1      28.450   0.018  53.284  1.00  0.00     0.034 A 
HETATM   12 CL1  UNL     1      29.842  -0.880  53.837  1.00  0.00    -0.084 Cl
HETATM   13  C12 UNL     1      27.366  -0.620  52.708  1.00  0.00     0.025 A 
HETATM   14  C13 UNL     1      26.275   0.103  52.276  1.00  0.00     0.027 A 
ENDBRANCH   5   8
ENDBRANCH   3   5
BRANCH   1  15
HETATM   15  C6  UNL     1      24.952   6.239  50.284  1.00  0.00     0.113 C 
BRANCH  15  16
HETATM   16  C5  UNL     1      25.153   6.104  48.789  1.00  0.00     0.028 A 
HETATM   17  C2  UNL     1      25.844   7.317  48.254  1.00  0.00     0.041 A 
HETATM   18  C3  UNL     1      24.632   7.531  47.477  1.00  0.00    -0.021 A 
HETATM   19  C4  UNL     1      24.044   6.478  47.946  1.00  0.00    -0.024 A 
BRANCH  17  20
HETATM   20  P1  UNL     1      26.051   8.675  49.515  1.00  0.00    -0.124 P 
HETATM   21  C1  UNL     1      27.801   9.219  49.677  1.00  0.00     0.041 C 
HETATM   22  H4  UNL     1      25.458   8.337  50.789  1.00  0.00     0.058 HD
ENDBRANCH  17  20
ENDBRANCH  15  16
ENDBRANCH   1  15
TORSDOF 5
ENDMDL
MODEL 7
REMARK VINA RESULT:      -6.2      2.968      3.636
REMARK  5 active torsions:
REMARK  status: ('A' for Active; 'I' for Inactive)
REMARK    1  A    between atoms: P1_2  and  C2_3 
REMARK    2  A    between atoms: C5_6  and  C6_7 
REMARK    3  A    between atoms: C6_7  and  C7_8 
REMARK       I    between atoms: C7_8  and  N1_10 
REMARK    4  A    between atoms: N1_10  and  S1_11 
REMARK    5  A    between atoms: S1_11  and  C8_14 
ROOT
HETATM    1  C7  UNL     1      23.152   3.543  51.849  1.00  0.00     0.231 C 
HETATM    2  O1  UNL     1      23.733   4.462  52.509  1.00  0.00    -0.273 OA
HETATM    3  N1  UNL     1      22.728   3.570  50.512  1.00  0.00    -0.250 N 
HETATM    4  H11 UNL     1      22.259   2.721  50.104  1.00  0.00     0.181 HD
ENDROOT
BRANCH   3   5
HETATM    5  S1  UNL     1      23.029   5.034  49.651  1.00  0.00     0.265 S 
HETATM    6  O2  UNL     1      22.611   6.203  50.461  1.00  0.00    -0.200 OA
HETATM    7  O3  UNL     1      22.252   5.069  48.352  1.00  0.00    -0.200 OA
BRANCH   5   8
HETATM    8  C8  UNL     1      24.716   5.228  49.229  1.00  0.00     0.080 A 
HETATM    9  C9  UNL     1      25.554   4.127  49.433  1.00  0.00     0.027 A 
HETATM   10  C10 UNL     1      26.920   4.116  49.150  1.00  0.00     0.025 A 
HETATM   11  C11 UNL     1      27.430   5.287  48.638  1.00  0.00     0.034 A 
HETATM   12 CL1  UNL     1      29.138   5.303  48.274  1.00  0.00    -0.084 Cl
HETATM   13  C12 UNL     1      26.639   6.400  48.420  1.00  0.00     0.025 A 
HETATM   14  C13 UNL     1      25.292   6.371  48.713  1.00  0.00     0.027 A 
ENDBRANCH   5   8
ENDBRANCH   3   5
BRANCH   1  15
HETATM   15  C6  UNL     1      22.927   2.314  52.653  1.00  0.00     0.113 C 
BRANCH  15  16
HETATM   16  C5  UNL     1      23.950   1.243  52.338  1.00  0.00     0.028 A 
HETATM   17  C2  UNL     1      23.452  -0.090  52.794  1.00  0.00     0.041 A 
HETATM   18  C3  UNL     1      24.597  -0.090  53.692  1.00  0.00    -0.021 A 
HETATM   19  C4  UNL     1      25.020   1.065  53.288  1.00  0.00    -0.024 A 
BRANCH  17  20
HETATM   20  P1  UNL     1      21.865  -0.001  53.771  1.00  0.00    -0.124 P 
HETATM   21  C1  UNL     1      21.340  -1.645  54.406  1.00  0.00     0.041 C 
HETATM   22  H4  UNL     1      20.813   0.674  53.047  1.00  0.00     0.058 HD
ENDBRANCH  17  20
ENDBRANCH  15  16
ENDBRANCH   1  15
TORSDOF 5
ENDMDL
MODEL 8
REMARK VINA RESULT:      -6.1      3.957      7.200
REMARK  5 active torsions:
REMARK  status: ('A' for Active; 'I' for Inactive)
REMARK    1  A    between atoms: P1_2  and  C2_3 
REMARK    2  A    between atoms: C5_6  and  C6_7 
REMARK    3  A    between atoms: C6_7  and  C7_8 
REMARK       I    between atoms: C7_8  and  N1_10 
REMARK    4  A    between atoms: N1_10  and  S1_11 
REMARK    5  A    between atoms: S1_11  and  C8_14 
ROOT
HETATM    1  C7  UNL     1      27.072   6.236  48.438  1.00  0.00     0.231 C 
HETATM    2  O1  UNL     1      26.162   7.065  48.115  1.00  0.00    -0.273 OA
HETATM    3  N1  UNL     1      26.955   5.080  49.225  1.00  0.00    -0.250 N 
HETATM    4  H11 UNL     1      27.808   4.491  49.404  1.00  0.00     0.181 HD
ENDROOT
BRANCH   3   5
HETATM    5  S1  UNL     1      25.378   4.736  49.835  1.00  0.00     0.265 S 
HETATM    6  O2  UNL     1      24.406   4.629  48.720  1.00  0.00    -0.200 OA
HETATM    7  O3  UNL     1      24.903   5.836  50.760  1.00  0.00    -0.200 OA
BRANCH   5   8
HETATM    8  C8  UNL     1      25.327   3.251  50.758  1.00  0.00     0.080 A 
HETATM    9  C9  UNL     1      26.536   2.572  50.938  1.00  0.00     0.027 A 
HETATM   10  C10 UNL     1      26.669   1.377  51.647  1.00  0.00     0.025 A 
HETATM   11  C11 UNL     1      25.507   0.873  52.185  1.00  0.00     0.034 A 
HETATM   12 CL1  UNL     1      25.641  -0.622  53.077  1.00  0.00    -0.084 Cl
HETATM   13  C12 UNL     1      24.289   1.511  52.031  1.00  0.00     0.025 A 
HETATM   14  C13 UNL     1      24.200   2.690  51.323  1.00  0.00     0.027 A 
ENDBRANCH   5   8
ENDBRANCH   3   5
BRANCH   1  15
HETATM   15  C6  UNL     1      28.400   6.596  47.878  1.00  0.00     0.113 C 
BRANCH  15  16
HETATM   16  C5  UNL     1      29.512   5.779  48.502  1.00  0.00     0.028 A 
HETATM   17  C2  UNL     1      30.697   6.649  48.772  1.00  0.00     0.041 A 
HETATM   18  C3  UNL     1      31.402   5.796  47.826  1.00  0.00    -0.021 A 
HETATM   19  C4  UNL     1      30.369   5.049  47.602  1.00  0.00    -0.024 A 
BRANCH  17  20
HETATM   20  P1  UNL     1      30.529   8.375  48.085  1.00  0.00    -0.124 P 
HETATM   21  C1  UNL     1      30.060   9.599  49.375  1.00  0.00     0.041 C 
HETATM   22  H4  UNL     1      29.658   8.424  46.933  1.00  0.00     0.058 HD
ENDBRANCH  17  20
ENDBRANCH  15  16
ENDBRANCH   1  15
TORSDOF 5
ENDMDL
MODEL 9
REMARK VINA RESULT:      -6.1      3.484      3.936
REMARK  5 active torsions:
REMARK  status: ('A' for Active; 'I' for Inactive)
REMARK    1  A    between atoms: P1_2  and  C2_3 
REMARK    2  A    between atoms: C5_6  and  C6_7 
REMARK    3  A    between atoms: C6_7  and  C7_8 
REMARK       I    between atoms: C7_8  and  N1_10 
REMARK    4  A    between atoms: N1_10  and  S1_11 
REMARK    5  A    between atoms: S1_11  and  C8_14 
ROOT
HETATM    1  C7  UNL     1      25.732   2.639  51.400  1.00  0.00     0.231 C 
HETATM    2  O1  UNL     1      26.175   3.541  50.620  1.00  0.00    -0.273 OA
HETATM    3  N1  UNL     1      24.458   2.540  51.979  1.00  0.00    -0.250 N 
HETATM    4  H11 UNL     1      24.241   1.726  52.609  1.00  0.00     0.181 HD
ENDROOT
BRANCH   3   5
HETATM    5  S1  UNL     1      23.347   3.800  51.586  1.00  0.00     0.265 S 
HETATM    6  O2  UNL     1      23.898   5.116  51.990  1.00  0.00    -0.200 OA
HETATM    7  O3  UNL     1      22.031   3.607  52.308  1.00  0.00    -0.200 OA
BRANCH   5   8
HETATM    8  C8  UNL     1      22.976   3.856  49.877  1.00  0.00     0.080 A 
HETATM    9  C9  UNL     1      22.665   2.644  49.253  1.00  0.00     0.027 A 
HETATM   10  C10 UNL     1      22.347   2.516  47.901  1.00  0.00     0.025 A 
HETATM   11  C11 UNL     1      22.353   3.685  47.175  1.00  0.00     0.034 A 
HETATM   12 CL1  UNL     1      21.959   3.555  45.479  1.00  0.00    -0.084 Cl
HETATM   13  C12 UNL     1      22.655   4.906  47.751  1.00  0.00     0.025 A 
HETATM   14  C13 UNL     1      22.965   4.991  49.091  1.00  0.00     0.027 A 
ENDBRANCH   5   8
ENDBRANCH   3   5
BRANCH   1  15
HETATM   15  C6  UNL     1      26.742   1.589  51.693  1.00  0.00     0.113 C 
BRANCH  15  16
HETATM   16  C5  UNL     1      26.137   0.427  52.452  1.00  0.00     0.028 A 
HETATM   17  C2  UNL     1      26.976   0.102  53.645  1.00  0.00     0.041 A 
HETATM   18  C3  UNL     1      27.189  -1.189  53.009  1.00  0.00    -0.021 A 
HETATM   19  C4  UNL     1      26.460  -0.897  51.981  1.00  0.00    -0.024 A 
BRANCH  17  20
HETATM   20  P1  UNL     1      28.575   1.060  53.718  1.00  0.00    -0.124 P 
HETATM   21  C1  UNL     1      30.050  -0.028  53.569  1.00  0.00     0.041 C 
HETATM   22  H4  UNL     1      28.642   1.928  54.871  1.00  0.00     0.058 HD
ENDBRANCH  17  20
ENDBRANCH  15  16
ENDBRANCH   1  15
TORSDOF 5
ENDMDL
