MODEL 1
REMARK VINA RESULT:      -7.3      0.000      0.000
REMARK  6 active torsions:
REMARK  status: ('A' for Active; 'I' for Inactive)
REMARK    1  A    between atoms: O1_2  and  C2_3 
REMARK    2  A    between atoms: C3_4  and  C4_5 
REMARK    3  A    between atoms: C7_9  and  N2_10 
REMARK    4  A    between atoms: C8_11  and  N3_12 
REMARK    5  A    between atoms: N3_12  and  C9_13 
REMARK    6  A    between atoms: C16_22  and  N4_23 
ROOT
HETATM    1  C4  UNL     1      21.542   1.586  51.353  1.00  0.00     0.112 C 
HETATM    2  C5  UNL     1      21.077   2.961  50.973  1.00  0.00     0.106 C 
HETATM    3  N1  UNL     1      21.340   4.205  51.300  1.00  0.00    -0.274 NA
HETATM    4  C6  UNL     1      22.285   4.740  52.257  1.00  0.00     0.142 C 
HETATM    5  C7  UNL     1      23.524   4.376  52.635  1.00  0.00     0.047 C 
HETATM    6  C8  UNL     1      24.361   3.219  52.146  1.00  0.00     0.163 C 
HETATM    7  C15 UNL     1      23.687   1.955  52.597  1.00  0.00    -0.035 C 
HETATM    8  C16 UNL     1      24.516   1.010  53.019  1.00  0.00     0.085 C 
HETATM    9  C17 UNL     1      22.256   1.557  52.660  1.00  0.00     0.060 C 
ENDROOT
BRANCH   6  10
HETATM   10  N3  UNL     1      24.463   3.265  50.710  1.00  0.00    -0.376 N 
HETATM   11  H10 UNL     1      23.838   2.600  50.163  1.00  0.00     0.160 HD
BRANCH  10  12
HETATM   12  C9  UNL     1      25.308   4.102  49.950  1.00  0.00     0.030 A 
HETATM   13  C10 UNL     1      26.608   3.715  49.618  1.00  0.00     0.032 A 
HETATM   14  C11 UNL     1      27.454   4.512  48.882  1.00  0.00     0.046 A 
HETATM   15  C12 UNL     1      27.029   5.736  48.445  1.00  0.00     0.138 A 
HETATM   16  F1  UNL     1      27.861   6.523  47.721  1.00  0.00    -0.204 F 
HETATM   17  C13 UNL     1      25.750   6.178  48.742  1.00  0.00     0.074 A 
HETATM   18 CL1  UNL     1      25.193   7.752  48.185  1.00  0.00    -0.081 Cl
HETATM   19  C14 UNL     1      24.964   5.335  49.477  1.00  0.00     0.056 A 
ENDBRANCH  10  12
ENDBRANCH   6  10
BRANCH   5  20
HETATM   20  N2  UNL     1      23.874   5.348  53.625  1.00  0.00    -0.399 N 
HETATM   21  H7  UNL     1      23.051   5.347  54.289  1.00  0.00     0.156 HD
HETATM   22  H8  UNL     1      24.818   5.780  53.431  1.00  0.00     0.156 HD
ENDBRANCH   5  20
BRANCH   8  23
HETATM   23  N4  UNL     1      24.487  -0.315  53.536  1.00  0.00    -0.408 N 
HETATM   24  H15 UNL     1      24.600  -0.600  54.532  1.00  0.00     0.155 HD
HETATM   25  H16 UNL     1      24.328  -0.988  52.730  1.00  0.00     0.155 HD
ENDBRANCH   8  23
BRANCH   1  26
HETATM   26  C3  UNL     1      20.318   0.768  51.542  1.00  0.00    -0.066 C 
HETATM   27  C2  UNL     1      19.303   0.113  51.706  1.00  0.00     0.054 C 
BRANCH  27  28
HETATM   28  O1  UNL     1      18.160  -0.600  51.899  1.00  0.00    -0.309 OA
HETATM   29  C1  UNL     1      17.878  -1.282  53.111  1.00  0.00     0.223 C 
ENDBRANCH  27  28
ENDBRANCH   1  26
TORSDOF 6
ENDMDL
MODEL 2
REMARK VINA RESULT:      -7.2      4.258      5.530
REMARK  6 active torsions:
REMARK  status: ('A' for Active; 'I' for Inactive)
REMARK    1  A    between atoms: O1_2  and  C2_3 
REMARK    2  A    between atoms: C3_4  and  C4_5 
REMARK    3  A    between atoms: C7_9  and  N2_10 
REMARK    4  A    between atoms: C8_11  and  N3_12 
REMARK    5  A    between atoms: N3_12  and  C9_13 
REMARK    6  A    between atoms: C16_22  and  N4_23 
ROOT
HETATM    1  C4  UNL     1      23.457   3.128  49.173  1.00  0.00     0.112 C 
HETATM    2  C5  UNL     1      24.195   4.435  49.216  1.00  0.00     0.106 C 
HETATM    3  N1  UNL     1      24.479   5.366  50.096  1.00  0.00    -0.274 NA
HETATM    4  C6  UNL     1      24.137   5.462  51.499  1.00  0.00     0.142 C 
HETATM    5  C7  UNL     1      24.029   4.555  52.488  1.00  0.00     0.047 C 
HETATM    6  C8  UNL     1      24.245   3.063  52.431  1.00  0.00     0.163 C 
HETATM    7  C15 UNL     1      23.154   2.484  51.576  1.00  0.00    -0.035 C 
HETATM    8  C16 UNL     1      22.658   1.337  52.019  1.00  0.00     0.085 C 
HETATM    9  C17 UNL     1      22.520   2.954  50.317  1.00  0.00     0.060 C 
ENDROOT
BRANCH   6  10
HETATM   10  N3  UNL     1      25.542   2.779  51.874  1.00  0.00    -0.376 N 
HETATM   11  H10 UNL     1      25.840   3.359  51.034  1.00  0.00     0.160 HD
BRANCH  10  12
HETATM   12  C9  UNL     1      26.463   1.810  52.329  1.00  0.00     0.030 A 
HETATM   13  C10 UNL     1      27.641   2.177  52.982  1.00  0.00     0.032 A 
HETATM   14  C11 UNL     1      28.558   1.255  53.431  1.00  0.00     0.046 A 
HETATM   15  C12 UNL     1      28.329  -0.081  53.244  1.00  0.00     0.138 A 
HETATM   16  F1  UNL     1      29.231  -0.991  53.685  1.00  0.00    -0.204 F 
HETATM   17  C13 UNL     1      27.178  -0.509  52.602  1.00  0.00     0.074 A 
HETATM   18 CL1  UNL     1      26.875  -2.225  52.355  1.00  0.00    -0.081 Cl
HETATM   19  C14 UNL     1      26.312   0.462  52.182  1.00  0.00     0.056 A 
ENDBRANCH  10  12
ENDBRANCH   6  10
BRANCH   5  20
HETATM   20  N2  UNL     1      23.655   5.340  53.625  1.00  0.00    -0.399 N 
HETATM   21  H7  UNL     1      23.900   6.330  53.347  1.00  0.00     0.156 HD
HETATM   22  H8  UNL     1      23.253   4.741  54.397  1.00  0.00     0.156 HD
ENDBRANCH   5  20
BRANCH   8  23
HETATM   23  N4  UNL     1      21.676   0.367  51.673  1.00  0.00    -0.408 N 
HETATM   24  H15 UNL     1      20.763   0.542  51.202  1.00  0.00     0.155 HD
HETATM   25  H16 UNL     1      22.024  -0.589  51.978  1.00  0.00     0.155 HD
ENDBRANCH   8  23
BRANCH   1  26
HETATM   26  C3  UNL     1      22.609   3.166  47.955  1.00  0.00    -0.066 C 
HETATM   27  C2  UNL     1      21.925   3.213  46.948  1.00  0.00     0.054 C 
BRANCH  27  28
HETATM   28  O1  UNL     1      21.176   3.281  45.813  1.00  0.00    -0.309 OA
HETATM   29  C1  UNL     1      21.382   4.271  44.818  1.00  0.00     0.223 C 
ENDBRANCH  27  28
ENDBRANCH   1  26
TORSDOF 6
ENDMDL
MODEL 3
REMARK VINA RESULT:      -6.9      2.440      3.320
REMARK  6 active torsions:
REMARK  status: ('A' for Active; 'I' for Inactive)
REMARK    1  A    between atoms: O1_2  and  C2_3 
REMARK    2  A    between atoms: C3_4  and  C4_5 
REMARK    3  A    between atoms: C7_9  and  N2_10 
REMARK    4  A    between atoms: C8_11  and  N3_12 
REMARK    5  A    between atoms: N3_12  and  C9_13 
REMARK    6  A    between atoms: C16_22  and  N4_23 
ROOT
HETATM    1  C4  UNL     1      23.204   1.919  51.611  1.00  0.00     0.112 C 
HETATM    2  C5  UNL     1      22.287   1.336  50.575  1.00  0.00     0.106 C 
HETATM    3  N1  UNL     1      21.219   1.698  49.904  1.00  0.00    -0.274 NA
HETATM    4  C6  UNL     1      20.468   2.935  49.938  1.00  0.00     0.142 C 
HETATM    5  C7  UNL     1      20.821   4.226  50.079  1.00  0.00     0.047 C 
HETATM    6  C8  UNL     1      22.198   4.817  50.259  1.00  0.00     0.163 C 
HETATM    7  C15 UNL     1      22.704   4.374  51.603  1.00  0.00    -0.035 C 
HETATM    8  C16 UNL     1      23.362   5.307  52.277  1.00  0.00     0.085 C 
HETATM    9  C17 UNL     1      22.606   3.080  52.326  1.00  0.00     0.060 C 
ENDROOT
BRANCH   6  10
HETATM   10  N3  UNL     1      23.066   4.360  49.205  1.00  0.00    -0.376 N 
HETATM   11  H10 UNL     1      22.619   3.780  48.434  1.00  0.00     0.160 HD
BRANCH  10  12
HETATM   12  C9  UNL     1      24.452   4.602  49.087  1.00  0.00     0.030 A 
HETATM   13  C10 UNL     1      25.391   3.615  49.394  1.00  0.00     0.032 A 
HETATM   14  C11 UNL     1      26.747   3.824  49.292  1.00  0.00     0.046 A 
HETATM   15  C12 UNL     1      27.220   5.039  48.876  1.00  0.00     0.138 A 
HETATM   16  F1  UNL     1      28.555   5.248  48.776  1.00  0.00    -0.204 F 
HETATM   17  C13 UNL     1      26.338   6.060  48.557  1.00  0.00     0.074 A 
HETATM   18 CL1  UNL     1      26.936   7.625  48.022  1.00  0.00    -0.081 Cl
HETATM   19  C14 UNL     1      25.005   5.781  48.681  1.00  0.00     0.056 A 
ENDBRANCH  10  12
ENDBRANCH   6  10
BRANCH   5  20
HETATM   20  N2  UNL     1      19.573   4.925  50.021  1.00  0.00    -0.399 N 
HETATM   21  H7  UNL     1      19.015   4.524  50.825  1.00  0.00     0.156 HD
HETATM   22  H8  UNL     1      19.552   5.620  49.226  1.00  0.00     0.156 HD
ENDBRANCH   5  20
BRANCH   8  23
HETATM   23  N4  UNL     1      24.035   5.485  53.518  1.00  0.00    -0.408 N 
HETATM   24  H15 UNL     1      23.669   5.254  54.466  1.00  0.00     0.155 HD
HETATM   25  H16 UNL     1      24.992   5.902  53.326  1.00  0.00     0.155 HD
ENDBRANCH   8  23
BRANCH   1  26
HETATM   26  C3  UNL     1      23.398   0.865  52.638  1.00  0.00    -0.066 C 
HETATM   27  C2  UNL     1      23.561  -0.015  53.466  1.00  0.00     0.054 C 
BRANCH  27  28
HETATM   28  O1  UNL     1      23.750  -1.011  54.374  1.00  0.00    -0.309 OA
HETATM   29  C1  UNL     1      22.759  -1.383  55.319  1.00  0.00     0.223 C 
ENDBRANCH  27  28
ENDBRANCH   1  26
TORSDOF 6
ENDMDL
MODEL 4
REMARK VINA RESULT:      -6.9      4.299      7.120
REMARK  6 active torsions:
REMARK  status: ('A' for Active; 'I' for Inactive)
REMARK    1  A    between atoms: O1_2  and  C2_3 
REMARK    2  A    between atoms: C3_4  and  C4_5 
REMARK    3  A    between atoms: C7_9  and  N2_10 
REMARK    4  A    between atoms: C8_11  and  N3_12 
REMARK    5  A    between atoms: N3_12  and  C9_13 
REMARK    6  A    between atoms: C16_22  and  N4_23 
ROOT
HETATM    1  C4  UNL     1      24.654   4.356  50.072  1.00  0.00     0.112 C 
HETATM    2  C5  UNL     1      24.459   5.542  50.972  1.00  0.00     0.106 C 
HETATM    3  N1  UNL     1      23.527   6.432  51.225  1.00  0.00    -0.274 NA
HETATM    4  C6  UNL     1      22.209   6.594  50.652  1.00  0.00     0.142 C 
HETATM    5  C7  UNL     1      21.269   5.724  50.237  1.00  0.00     0.047 C 
HETATM    6  C8  UNL     1      21.308   4.215  50.240  1.00  0.00     0.163 C 
HETATM    7  C15 UNL     1      22.355   3.791  49.249  1.00  0.00    -0.035 C 
HETATM    8  C16 UNL     1      22.026   2.734  48.519  1.00  0.00     0.085 C 
HETATM    9  C17 UNL     1      23.701   4.335  48.929  1.00  0.00     0.060 C 
ENDROOT
BRANCH   6  10
HETATM   10  N3  UNL     1      21.626   3.739  51.561  1.00  0.00    -0.376 N 
HETATM   11  H10 UNL     1      21.707   4.471  52.328  1.00  0.00     0.160 HD
BRANCH  10  12
HETATM   12  C9  UNL     1      21.841   2.398  51.947  1.00  0.00     0.030 A 
HETATM   13  C10 UNL     1      20.824   1.444  51.857  1.00  0.00     0.032 A 
HETATM   14  C11 UNL     1      21.003   0.132  52.230  1.00  0.00     0.046 A 
HETATM   15  C12 UNL     1      22.216  -0.281  52.709  1.00  0.00     0.138 A 
HETATM   16  F1  UNL     1      22.395  -1.572  53.078  1.00  0.00    -0.204 F 
HETATM   17  C13 UNL     1      23.266   0.618  52.822  1.00  0.00     0.074 A 
HETATM   18 CL1  UNL     1      24.829   0.098  53.438  1.00  0.00    -0.081 Cl
HETATM   19  C14 UNL     1      23.016   1.905  52.433  1.00  0.00     0.056 A 
ENDBRANCH  10  12
ENDBRANCH   6  10
BRANCH   5  20
HETATM   20  N2  UNL     1      20.206   6.567  49.781  1.00  0.00    -0.399 N 
HETATM   21  H7  UNL     1      19.987   7.180  50.615  1.00  0.00     0.156 HD
HETATM   22  H8  UNL     1      19.943   6.357  48.780  1.00  0.00     0.156 HD
ENDBRANCH   5  20
BRANCH   8  23
HETATM   23  N4  UNL     1      22.558   1.914  47.486  1.00  0.00    -0.408 N 
HETATM   24  H15 UNL     1      22.851   0.917  47.568  1.00  0.00     0.155 HD
HETATM   25  H16 UNL     1      22.614   2.487  46.594  1.00  0.00     0.155 HD
ENDBRANCH   8  23
BRANCH   1  26
HETATM   26  C3  UNL     1      26.004   4.504  49.473  1.00  0.00    -0.066 C 
HETATM   27  C2  UNL     1      27.118   4.605  48.989  1.00  0.00     0.054 C 
BRANCH  27  28
HETATM   28  O1  UNL     1      28.367   4.698  48.455  1.00  0.00    -0.309 OA
HETATM   29  C1  UNL     1      28.999   5.942  48.200  1.00  0.00     0.223 C 
ENDBRANCH  27  28
ENDBRANCH   1  26
TORSDOF 6
ENDMDL
MODEL 5
REMARK VINA RESULT:      -6.8      4.925      7.684
REMARK  6 active torsions:
REMARK  status: ('A' for Active; 'I' for Inactive)
REMARK    1  A    between atoms: O1_2  and  C2_3 
REMARK    2  A    between atoms: C3_4  and  C4_5 
REMARK    3  A    between atoms: C7_9  and  N2_10 
REMARK    4  A    between atoms: C8_11  and  N3_12 
REMARK    5  A    between atoms: N3_12  and  C9_13 
REMARK    6  A    between atoms: C16_22  and  N4_23 
ROOT
HETATM    1  C4  UNL     1      25.635   6.937  50.296  1.00  0.00     0.112 C 
HETATM    2  C5  UNL     1      24.203   6.792  50.720  1.00  0.00     0.106 C 
HETATM    3  N1  UNL     1      23.193   5.986  50.488  1.00  0.00    -0.274 NA
HETATM    4  C6  UNL     1      23.107   4.817  49.638  1.00  0.00     0.142 C 
HETATM    5  C7  UNL     1      23.969   3.830  49.334  1.00  0.00     0.047 C 
HETATM    6  C8  UNL     1      25.385   3.628  49.817  1.00  0.00     0.163 C 
HETATM    7  C15 UNL     1      26.218   4.739  49.243  1.00  0.00    -0.035 C 
HETATM    8  C16 UNL     1      27.421   4.367  48.829  1.00  0.00     0.085 C 
HETATM    9  C17 UNL     1      25.948   6.187  49.048  1.00  0.00     0.060 C 
ENDROOT
BRANCH   6  10
HETATM   10  N3  UNL     1      25.417   3.651  51.256  1.00  0.00    -0.376 N 
HETATM   11  H10 UNL     1      25.473   4.607  51.719  1.00  0.00     0.160 HD
BRANCH  10  12
HETATM   12  C9  UNL     1      25.380   2.535  52.120  1.00  0.00     0.030 A 
HETATM   13  C10 UNL     1      24.207   1.801  52.310  1.00  0.00     0.032 A 
HETATM   14  C11 UNL     1      24.142   0.712  53.148  1.00  0.00     0.046 A 
HETATM   15  C12 UNL     1      25.256   0.311  53.834  1.00  0.00     0.138 A 
HETATM   16  F1  UNL     1      25.194  -0.760  54.660  1.00  0.00    -0.204 F 
HETATM   17  C13 UNL     1      26.451   0.999  53.688  1.00  0.00     0.074 A 
HETATM   18 CL1  UNL     1      27.889   0.492  54.566  1.00  0.00    -0.081 Cl
HETATM   19  C14 UNL     1      26.443   2.071  52.839  1.00  0.00     0.056 A 
ENDBRANCH  10  12
ENDBRANCH   6  10
BRANCH   5  20
HETATM   20  N2  UNL     1      23.229   3.001  48.432  1.00  0.00    -0.399 N 
HETATM   21  H7  UNL     1      23.199   3.560  47.535  1.00  0.00     0.156 HD
HETATM   22  H8  UNL     1      22.929   2.098  48.889  1.00  0.00     0.156 HD
ENDBRANCH   5  20
BRANCH   8  23
HETATM   23  N4  UNL     1      28.590   4.919  48.235  1.00  0.00    -0.408 N 
HETATM   24  H15 UNL     1      28.813   4.963  47.218  1.00  0.00     0.155 HD
HETATM   25  H16 UNL     1      29.217   5.291  49.007  1.00  0.00     0.155 HD
ENDBRANCH   8  23
BRANCH   1  26
HETATM   26  C3  UNL     1      25.831   8.371  49.968  1.00  0.00    -0.066 C 
HETATM   27  C2  UNL     1      26.009   9.544  49.687  1.00  0.00     0.054 C 
BRANCH  27  28
HETATM   28  O1  UNL     1      26.224  10.847  49.359  1.00  0.00    -0.309 OA
HETATM   29  C1  UNL     1      25.941  11.369  48.071  1.00  0.00     0.223 C 
ENDBRANCH  27  28
ENDBRANCH   1  26
TORSDOF 6
ENDMDL
MODEL 6
REMARK VINA RESULT:      -6.8      7.703     10.892
REMARK  6 active torsions:
REMARK  status: ('A' for Active; 'I' for Inactive)
REMARK    1  A    between atoms: O1_2  and  C2_3 
REMARK    2  A    between atoms: C3_4  and  C4_5 
REMARK    3  A    between atoms: C7_9  and  N2_10 
REMARK    4  A    between atoms: C8_11  and  N3_12 
REMARK    5  A    between atoms: N3_12  and  C9_13 
REMARK    6  A    between atoms: C16_22  and  N4_23 
ROOT
HETATM    1  C4  UNL     1      31.079   6.196  47.368  1.00  0.00     0.112 C 
HETATM    2  C5  UNL     1      31.847   7.277  48.071  1.00  0.00     0.106 C 
HETATM    3  N1  UNL     1      32.969   7.398  48.742  1.00  0.00    -0.274 NA
HETATM    4  C6  UNL     1      33.970   6.408  49.074  1.00  0.00     0.142 C 
HETATM    5  C7  UNL     1      34.474   5.347  48.417  1.00  0.00     0.047 C 
HETATM    6  C8  UNL     1      34.123   4.830  47.043  1.00  0.00     0.163 C 
HETATM    7  C15 UNL     1      32.713   4.315  47.105  1.00  0.00    -0.035 C 
HETATM    8  C16 UNL     1      32.508   3.192  46.430  1.00  0.00     0.085 C 
HETATM    9  C17 UNL     1      31.494   4.828  47.782  1.00  0.00     0.060 C 
ENDROOT
BRANCH   6  10
HETATM   10  N3  UNL     1      34.242   5.892  46.079  1.00  0.00    -0.376 N 
HETATM   11  H10 UNL     1      34.793   6.752  46.377  1.00  0.00     0.160 HD
BRANCH  10  12
HETATM   12  C9  UNL     1      33.704   5.912  44.773  1.00  0.00     0.030 A 
HETATM   13  C10 UNL     1      32.802   6.901  44.374  1.00  0.00     0.032 A 
HETATM   14  C11 UNL     1      32.259   6.943  43.111  1.00  0.00     0.046 A 
HETATM   15  C12 UNL     1      32.601   5.990  42.190  1.00  0.00     0.138 A 
HETATM   16  F1  UNL     1      32.067   6.029  40.945  1.00  0.00    -0.204 F 
HETATM   17  C13 UNL     1      33.492   4.983  42.525  1.00  0.00     0.074 A 
HETATM   18 CL1  UNL     1      33.937   3.752  41.349  1.00  0.00    -0.081 Cl
HETATM   19  C14 UNL     1      33.991   5.003  43.798  1.00  0.00     0.056 A 
ENDBRANCH  10  12
ENDBRANCH   6  10
BRANCH   5  20
HETATM   20  N2  UNL     1      35.433   4.807  49.333  1.00  0.00    -0.399 N 
HETATM   21  H7  UNL     1      36.344   4.830  48.796  1.00  0.00     0.156 HD
HETATM   22  H8  UNL     1      34.989   4.546  50.254  1.00  0.00     0.156 HD
ENDBRANCH   5  20
BRANCH   8  23
HETATM   23  N4  UNL     1      31.461   2.277  46.127  1.00  0.00    -0.408 N 
HETATM   24  H15 UNL     1      30.735   1.920  46.783  1.00  0.00     0.155 HD
HETATM   25  H16 UNL     1      31.535   2.006  45.103  1.00  0.00     0.155 HD
ENDBRANCH   8  23
BRANCH   1  26
HETATM   26  C3  UNL     1      29.666   6.340  47.800  1.00  0.00    -0.066 C 
HETATM   27  C2  UNL     1      28.512   6.457  48.175  1.00  0.00     0.054 C 
BRANCH  27  28
HETATM   28  O1  UNL     1      27.231   6.589  48.615  1.00  0.00    -0.309 OA
HETATM   29  C1  UNL     1      26.416   5.475  48.945  1.00  0.00     0.223 C 
ENDBRANCH  27  28
ENDBRANCH   1  26
TORSDOF 6
ENDMDL
MODEL 7
REMARK VINA RESULT:      -6.8      2.568      4.417
REMARK  6 active torsions:
REMARK  status: ('A' for Active; 'I' for Inactive)
REMARK    1  A    between atoms: O1_2  and  C2_3 
REMARK    2  A    between atoms: C3_4  and  C4_5 
REMARK    3  A    between atoms: C7_9  and  N2_10 
REMARK    4  A    between atoms: C8_11  and  N3_12 
REMARK    5  A    between atoms: N3_12  and  C9_13 
REMARK    6  A    between atoms: C16_22  and  N4_23 
ROOT
HETATM    1  C4  UNL     1      24.826   2.264  52.318  1.00  0.00     0.112 C 
HETATM    2  C5  UNL     1      24.070   1.153  51.649  1.00  0.00     0.106 C 
HETATM    3  N1  UNL     1      22.846   0.913  51.240  1.00  0.00    -0.274 NA
HETATM    4  C6  UNL     1      21.661   1.741  51.303  1.00  0.00     0.142 C 
HETATM    5  C7  UNL     1      21.449   3.063  51.171  1.00  0.00     0.047 C 
HETATM    6  C8  UNL     1      22.451   4.160  50.901  1.00  0.00     0.163 C 
HETATM    7  C15 UNL     1      23.335   4.268  52.110  1.00  0.00    -0.035 C 
HETATM    8  C16 UNL     1      23.645   5.510  52.455  1.00  0.00     0.085 C 
HETATM    9  C17 UNL     1      23.934   3.240  53.002  1.00  0.00     0.060 C 
ENDROOT
BRANCH   6  10
HETATM   10  N3  UNL     1      23.220   3.838  49.727  1.00  0.00    -0.376 N 
HETATM   11  H10 UNL     1      22.806   3.115  49.066  1.00  0.00     0.160 HD
BRANCH  10  12
HETATM   12  C9  UNL     1      24.470   4.383  49.360  1.00  0.00     0.030 A 
HETATM   13  C10 UNL     1      25.648   3.642  49.477  1.00  0.00     0.032 A 
HETATM   14  C11 UNL     1      26.880   4.149  49.131  1.00  0.00     0.046 A 
HETATM   15  C12 UNL     1      26.981   5.426  48.651  1.00  0.00     0.138 A 
HETATM   16  F1  UNL     1      28.193   5.927  48.311  1.00  0.00    -0.204 F 
HETATM   17  C13 UNL     1      25.848   6.212  48.512  1.00  0.00     0.074 A 
HETATM   18 CL1  UNL     1      25.968   7.856  47.897  1.00  0.00    -0.081 Cl
HETATM   19  C14 UNL     1      24.658   5.644  48.875  1.00  0.00     0.056 A 
ENDBRANCH  10  12
ENDBRANCH   6  10
BRANCH   5  20
HETATM   20  N2  UNL     1      20.036   3.199  51.350  1.00  0.00    -0.399 N 
HETATM   21  H7  UNL     1      19.915   3.278  52.398  1.00  0.00     0.156 HD
HETATM   22  H8  UNL     1      19.522   3.183  50.427  1.00  0.00     0.156 HD
ENDBRANCH   5  20
BRANCH   8  23
HETATM   23  N4  UNL     1      24.394   6.214  53.439  1.00  0.00    -0.408 N 
HETATM   24  H15 UNL     1      25.190   5.845  54.001  1.00  0.00     0.155 HD
HETATM   25  H16 UNL     1      24.007   7.200  53.516  1.00  0.00     0.155 HD
ENDBRANCH   8  23
BRANCH   1  26
HETATM   26  C3  UNL     1      25.635   1.633  53.390  1.00  0.00    -0.066 C 
HETATM   27  C2  UNL     1      26.317   1.115  54.257  1.00  0.00     0.054 C 
BRANCH  27  28
HETATM   28  O1  UNL     1      27.096   0.538  55.213  1.00  0.00    -0.309 OA
HETATM   29  C1  UNL     1      28.432   0.129  54.966  1.00  0.00     0.223 C 
ENDBRANCH  27  28
ENDBRANCH   1  26
TORSDOF 6
ENDMDL
MODEL 8
REMARK VINA RESULT:      -6.7      3.581      5.406
REMARK  6 active torsions:
REMARK  status: ('A' for Active; 'I' for Inactive)
REMARK    1  A    between atoms: O1_2  and  C2_3 
REMARK    2  A    between atoms: C3_4  and  C4_5 
REMARK    3  A    between atoms: C7_9  and  N2_10 
REMARK    4  A    between atoms: C8_11  and  N3_12 
REMARK    5  A    between atoms: N3_12  and  C9_13 
REMARK    6  A    between atoms: C16_22  and  N4_23 
ROOT
HETATM    1  C4  UNL     1      24.946   2.356  52.214  1.00  0.00     0.112 C 
HETATM    2  C5  UNL     1      24.189   1.066  52.084  1.00  0.00     0.106 C 
HETATM    3  N1  UNL     1      22.942   0.659  52.121  1.00  0.00    -0.274 NA
HETATM    4  C6  UNL     1      21.720   1.407  52.327  1.00  0.00     0.142 C 
HETATM    5  C7  UNL     1      21.312   2.632  51.947  1.00  0.00     0.047 C 
HETATM    6  C8  UNL     1      22.054   3.669  51.140  1.00  0.00     0.163 C 
HETATM    7  C15 UNL     1      23.208   4.146  51.975  1.00  0.00    -0.035 C 
HETATM    8  C16 UNL     1      23.437   5.450  51.904  1.00  0.00     0.085 C 
HETATM    9  C17 UNL     1      24.152   3.429  52.873  1.00  0.00     0.060 C 
ENDROOT
BRANCH   6  10
HETATM   10  N3  UNL     1      22.516   3.088  49.907  1.00  0.00    -0.376 N 
HETATM   11  H10 UNL     1      23.019   2.153  49.976  1.00  0.00     0.160 HD
BRANCH  10  12
HETATM   12  C9  UNL     1      22.369   3.628  48.611  1.00  0.00     0.030 A 
HETATM   13  C10 UNL     1      21.990   2.830  47.529  1.00  0.00     0.032 A 
HETATM   14  C11 UNL     1      21.844   3.329  46.255  1.00  0.00     0.046 A 
HETATM   15  C12 UNL     1      22.072   4.656  46.012  1.00  0.00     0.138 A 
HETATM   16  F1  UNL     1      21.929   5.149  44.759  1.00  0.00    -0.204 F 
HETATM   17  C13 UNL     1      22.450   5.500  47.044  1.00  0.00     0.074 A 
HETATM   18 CL1  UNL     1      22.747   7.208  46.742  1.00  0.00    -0.081 Cl
HETATM   19  C14 UNL     1      22.577   4.936  48.284  1.00  0.00     0.056 A 
ENDBRANCH  10  12
ENDBRANCH   6  10
BRANCH   5  20
HETATM   20  N2  UNL     1      19.993   2.733  52.494  1.00  0.00    -0.399 N 
HETATM   21  H7  UNL     1      19.377   2.905  51.652  1.00  0.00     0.156 HD
HETATM   22  H8  UNL     1      19.995   2.611  53.543  1.00  0.00     0.156 HD
ENDBRANCH   5  20
BRANCH   8  23
HETATM   23  N4  UNL     1      24.324   6.432  52.426  1.00  0.00    -0.408 N 
HETATM   24  H15 UNL     1      24.167   7.037  53.259  1.00  0.00     0.155 HD
HETATM   25  H16 UNL     1      25.196   6.456  51.820  1.00  0.00     0.155 HD
ENDBRANCH   8  23
BRANCH   1  26
HETATM   26  C3  UNL     1      26.088   2.081  53.122  1.00  0.00    -0.066 C 
HETATM   27  C2  UNL     1      27.037   1.851  53.850  1.00  0.00     0.054 C 
BRANCH  27  28
HETATM   28  O1  UNL     1      28.112   1.592  54.646  1.00  0.00    -0.309 OA
HETATM   29  C1  UNL     1      28.685   0.299  54.760  1.00  0.00     0.223 C 
ENDBRANCH  27  28
ENDBRANCH   1  26
TORSDOF 6
ENDMDL
MODEL 9
REMARK VINA RESULT:      -6.7      3.827      5.467
REMARK  6 active torsions:
REMARK  status: ('A' for Active; 'I' for Inactive)
REMARK    1  A    between atoms: O1_2  and  C2_3 
REMARK    2  A    between atoms: C3_4  and  C4_5 
REMARK    3  A    between atoms: C7_9  and  N2_10 
REMARK    4  A    between atoms: C8_11  and  N3_12 
REMARK    5  A    between atoms: N3_12  and  C9_13 
REMARK    6  A    between atoms: C16_22  and  N4_23 
ROOT
HETATM    1  C4  UNL     1      22.286   2.870  49.223  1.00  0.00     0.112 C 
HETATM    2  C5  UNL     1      23.630   3.530  49.111  1.00  0.00     0.106 C 
HETATM    3  N1  UNL     1      24.406   4.293  49.846  1.00  0.00    -0.274 NA
HETATM    4  C6  UNL     1      24.206   4.822  51.178  1.00  0.00     0.142 C 
HETATM    5  C7  UNL     1      23.631   4.330  52.291  1.00  0.00     0.047 C 
HETATM    6  C8  UNL     1      22.972   2.989  52.502  1.00  0.00     0.163 C 
HETATM    7  C15 UNL     1      21.726   2.963  51.663  1.00  0.00    -0.035 C 
HETATM    8  C16 UNL     1      20.682   2.390  52.247  1.00  0.00     0.085 C 
HETATM    9  C17 UNL     1      21.437   3.461  50.293  1.00  0.00     0.060 C 
ENDROOT
BRANCH   6  10
HETATM   10  N3  UNL     1      23.876   1.937  52.115  1.00  0.00    -0.376 N 
HETATM   11  H10 UNL     1      23.706   1.482  51.169  1.00  0.00     0.160 HD
BRANCH  10  12
HETATM   12  C9  UNL     1      24.968   1.443  52.863  1.00  0.00     0.030 A 
HETATM   13  C10 UNL     1      24.876   0.249  53.582  1.00  0.00     0.032 A 
HETATM   14  C11 UNL     1      25.921  -0.253  54.321  1.00  0.00     0.046 A 
HETATM   15  C12 UNL     1      27.109   0.424  54.370  1.00  0.00     0.138 A 
HETATM   16  F1  UNL     1      28.140  -0.068  55.098  1.00  0.00    -0.204 F 
HETATM   17  C13 UNL     1      27.263   1.615  53.678  1.00  0.00     0.074 A 
HETATM   18 CL1  UNL     1      28.786   2.495  53.735  1.00  0.00    -0.081 Cl
HETATM   19  C14 UNL     1      26.183   2.055  52.964  1.00  0.00     0.056 A 
ENDBRANCH  10  12
ENDBRANCH   6  10
BRANCH   5  20
HETATM   20  N2  UNL     1      23.784   5.386  53.244  1.00  0.00    -0.399 N 
HETATM   21  H7  UNL     1      24.819   5.601  53.227  1.00  0.00     0.156 HD
HETATM   22  H8  UNL     1      22.862   5.651  53.685  1.00  0.00     0.156 HD
ENDBRANCH   5  20
BRANCH   8  23
HETATM   23  N4  UNL     1      19.319   2.081  51.983  1.00  0.00    -0.408 N 
HETATM   24  H15 UNL     1      18.738   1.360  52.460  1.00  0.00     0.155 HD
HETATM   25  H16 UNL     1      18.974   2.715  51.204  1.00  0.00     0.155 HD
ENDBRANCH   8  23
BRANCH   1  26
HETATM   26  C3  UNL     1      21.579   3.143  47.946  1.00  0.00    -0.066 C 
HETATM   27  C2  UNL     1      21.011   3.385  46.896  1.00  0.00     0.054 C 
BRANCH  27  28
HETATM   28  O1  UNL     1      20.390   3.673  45.719  1.00  0.00    -0.309 OA
HETATM   29  C1  UNL     1      19.036   4.091  45.650  1.00  0.00     0.223 C 
ENDBRANCH  27  28
ENDBRANCH   1  26
TORSDOF 6
ENDMDL
