MODEL 1
REMARK VINA RESULT:      -8.3      0.000      0.000
REMARK  3 active torsions:
REMARK  status: ('A' for Active; 'I' for Inactive)
REMARK    1  A    between atoms: N1_1  and  C1_2 
REMARK    2  A    between atoms: N2_5  and  C4_6 
REMARK    3  A    between atoms: C4_6  and  C5_7 
ROOT
HETATM    1  C5  UNL     1      24.201   1.654  52.148  1.00  0.00    -0.023 A 
HETATM    2  C6  UNL     1      23.177   0.675  52.311  1.00  0.00     0.013 A 
HETATM    3  C7  UNL     1      22.508   0.915  51.138  1.00  0.00     0.096 A 
HETATM    4  N3  UNL     1      22.700   1.738  50.151  1.00  0.00    -0.207 NA
HETATM    5  N4  UNL     1      23.274   2.704  49.496  1.00  0.00     0.000 N 
HETATM    6  C8  UNL     1      22.915   3.176  48.352  1.00  0.00     0.093 A 
HETATM    7  N5  UNL     1      24.008   3.731  49.032  1.00  0.00    -0.190 NA
HETATM    8  C9  UNL     1      24.284   3.134  50.233  1.00  0.00     0.145 A 
HETATM    9  C10 UNL     1      23.707   2.059  50.947  1.00  0.00     0.122 A 
HETATM   10  N6  UNL     1      25.094   4.151  50.997  1.00  0.00    -0.274 NA
HETATM   11  C11 UNL     1      23.747   4.049  51.569  1.00  0.00     0.110 A 
HETATM   12  C12 UNL     1      22.605   3.944  52.037  1.00  0.00    -0.119 C 
HETATM   13  C13 UNL     1      21.309   3.809  52.545  1.00  0.00     0.243 A 
HETATM   14  C14 UNL     1      20.950   2.636  52.053  1.00  0.00     0.182 A 
HETATM   15  F1  UNL     1      19.919   3.171  52.798  1.00  0.00    -0.366 F 
HETATM   16  C15 UNL     1      20.347   1.418  51.572  1.00  0.00     0.054 C 
HETATM   17 CL1  UNL     1      18.692   0.884  51.502  1.00  0.00    -0.086 Cl
HETATM   18  C16 UNL     1      21.115   0.410  51.042  1.00  0.00     0.029 C 
HETATM   19  H12 UNL     1      24.734   4.693  51.759  1.00  0.00     0.168 HD
ENDROOT
BRANCH   1  20
HETATM   20  C4  UNL     1      25.250   1.904  53.106  1.00  0.00     0.308 C 
BRANCH  20  21
HETATM   21  N2  UNL     1      26.609   1.755  52.695  1.00  0.00     0.092 NA
HETATM   22  C3  UNL     1      26.791   0.374  52.304  1.00  0.00     0.275 C 
HETATM   23  C2  UNL     1      27.294  -0.517  53.416  1.00  0.00     0.065 C 
HETATM   24  C1  UNL     1      28.656  -0.048  53.905  1.00  0.00     0.221 C 
HETATM   25  C18 UNL     1      28.845   1.422  53.480  1.00  0.00     0.065 C 
HETATM   26  C17 UNL     1      27.529   2.082  53.800  1.00  0.00     0.275 C 
BRANCH  24  27
HETATM   27  N1  UNL     1      29.749  -0.811  53.360  1.00  0.00     0.083 N 
HETATM   28  H1  UNL     1      29.487  -1.780  53.121  1.00  0.00     0.313 HD
HETATM   29  H2  UNL     1      30.161  -0.249  52.603  1.00  0.00     0.313 HD
ENDBRANCH  24  27
ENDBRANCH  20  21
ENDBRANCH   1  20
TORSDOF 3
ENDMDL
MODEL 2
REMARK VINA RESULT:      -8.2      2.468      3.714
REMARK  3 active torsions:
REMARK  status: ('A' for Active; 'I' for Inactive)
REMARK    1  A    between atoms: N1_1  and  C1_2 
REMARK    2  A    between atoms: N2_5  and  C4_6 
REMARK    3  A    between atoms: C4_6  and  C5_7 
ROOT
HETATM    1  C5  UNL     1      23.712   1.955  51.577  1.00  0.00    -0.023 A 
HETATM    2  C6  UNL     1      24.210   2.799  50.542  1.00  0.00     0.013 A 
HETATM    3  C7  UNL     1      23.096   3.585  50.396  1.00  0.00     0.096 A 
HETATM    4  N3  UNL     1      21.939   3.616  50.985  1.00  0.00    -0.207 NA
HETATM    5  N4  UNL     1      21.003   3.224  51.799  1.00  0.00     0.000 N 
HETATM    6  C8  UNL     1      19.834   3.748  51.934  1.00  0.00     0.093 A 
HETATM    7  N5  UNL     1      20.193   2.622  52.688  1.00  0.00    -0.190 NA
HETATM    8  C9  UNL     1      21.463   2.169  52.451  1.00  0.00     0.145 A 
HETATM    9  C10 UNL     1      22.513   2.598  51.607  1.00  0.00     0.122 A 
HETATM   10  N6  UNL     1      21.462   0.738  52.925  1.00  0.00    -0.274 NA
HETATM   11  C11 UNL     1      21.500   0.781  51.460  1.00  0.00     0.110 A 
HETATM   12  C12 UNL     1      21.535   0.842  50.223  1.00  0.00    -0.119 C 
HETATM   13  C13 UNL     1      21.571   0.938  48.828  1.00  0.00     0.243 A 
HETATM   14  C14 UNL     1      21.990   2.179  48.657  1.00  0.00     0.182 A 
HETATM   15  F1  UNL     1      21.777   1.579  47.433  1.00  0.00    -0.366 F 
HETATM   16  C15 UNL     1      22.375   3.509  48.254  1.00  0.00     0.054 C 
HETATM   17 CL1  UNL     1      22.222   4.362  46.744  1.00  0.00    -0.086 Cl
HETATM   18  C16 UNL     1      22.984   4.366  49.137  1.00  0.00     0.029 C 
HETATM   19  H12 UNL     1      21.453  -0.053  52.312  1.00  0.00     0.168 HD
ENDROOT
BRANCH   1  20
HETATM   20  C4  UNL     1      24.451   0.869  52.171  1.00  0.00     0.308 C 
BRANCH  20  21
HETATM   21  N2  UNL     1      25.056   1.065  53.449  1.00  0.00     0.092 NA
HETATM   22  C3  UNL     1      26.128   2.021  53.275  1.00  0.00     0.275 C 
HETATM   23  C2  UNL     1      27.476   1.391  53.015  1.00  0.00     0.065 C 
HETATM   24  C1  UNL     1      27.895   0.516  54.187  1.00  0.00     0.221 C 
HETATM   25  C18 UNL     1      26.636   0.163  55.004  1.00  0.00     0.065 C 
HETATM   26  C17 UNL     1      25.603  -0.202  53.970  1.00  0.00     0.275 C 
BRANCH  24  27
HETATM   27  N1  UNL     1      28.830   1.161  55.072  1.00  0.00     0.083 N 
HETATM   28  H1  UNL     1      28.430   1.979  55.557  1.00  0.00     0.313 HD
HETATM   29  H2  UNL     1      29.235   0.428  55.670  1.00  0.00     0.313 HD
ENDBRANCH  24  27
ENDBRANCH  20  21
ENDBRANCH   1  20
TORSDOF 3
ENDMDL
MODEL 3
REMARK VINA RESULT:      -8.1      2.520      3.675
REMARK  3 active torsions:
REMARK  status: ('A' for Active; 'I' for Inactive)
REMARK    1  A    between atoms: N1_1  and  C1_2 
REMARK    2  A    between atoms: N2_5  and  C4_6 
REMARK    3  A    between atoms: C4_6  and  C5_7 
ROOT
HETATM    1  C5  UNL     1      23.643   2.158  52.693  1.00  0.00    -0.023 A 
HETATM    2  C6  UNL     1      24.140   3.486  52.543  1.00  0.00     0.013 A 
HETATM    3  C7  UNL     1      22.944   4.097  52.268  1.00  0.00     0.096 A 
HETATM    4  N3  UNL     1      21.720   3.671  52.176  1.00  0.00    -0.207 NA
HETATM    5  N4  UNL     1      20.759   2.794  52.163  1.00  0.00     0.000 N 
HETATM    6  C8  UNL     1      19.511   3.026  51.951  1.00  0.00     0.093 A 
HETATM    7  N5  UNL     1      19.956   1.714  52.167  1.00  0.00    -0.190 NA
HETATM    8  C9  UNL     1      21.305   1.608  52.383  1.00  0.00     0.145 A 
HETATM    9  C10 UNL     1      22.362   2.545  52.445  1.00  0.00     0.122 A 
HETATM   10  N6  UNL     1      21.636   0.170  52.077  1.00  0.00    -0.274 NA
HETATM   11  C11 UNL     1      22.153   1.040  51.016  1.00  0.00     0.110 A 
HETATM   12  C12 UNL     1      22.583   1.795  50.133  1.00  0.00    -0.119 C 
HETATM   13  C13 UNL     1      23.057   2.668  49.148  1.00  0.00     0.243 A 
HETATM   14  C14 UNL     1      23.052   3.823  49.791  1.00  0.00     0.182 A 
HETATM   15  F1  UNL     1      23.490   4.005  48.495  1.00  0.00    -0.366 F 
HETATM   16  C15 UNL     1      23.067   5.177  50.285  1.00  0.00     0.054 C 
HETATM   17 CL1  UNL     1      23.152   6.715  49.474  1.00  0.00    -0.086 Cl
HETATM   18  C16 UNL     1      23.004   5.438  51.632  1.00  0.00     0.029 C 
HETATM   19  H12 UNL     1      22.110  -0.130  51.248  1.00  0.00     0.168 HD
ENDROOT
BRANCH   1  20
HETATM   20  C4  UNL     1      24.462   1.008  52.988  1.00  0.00     0.308 C 
BRANCH  20  21
HETATM   21  N2  UNL     1      25.837   1.207  53.314  1.00  0.00     0.092 NA
HETATM   22  C3  UNL     1      26.619   0.720  52.197  1.00  0.00     0.275 C 
HETATM   23  C2  UNL     1      27.055  -0.720  52.337  1.00  0.00     0.065 C 
HETATM   24  C1  UNL     1      27.939  -0.897  53.562  1.00  0.00     0.221 C 
HETATM   25  C18 UNL     1      27.696   0.294  54.512  1.00  0.00     0.065 C 
HETATM   26  C17 UNL     1      26.200   0.463  54.534  1.00  0.00     0.275 C 
BRANCH  24  27
HETATM   27  N1  UNL     1      29.344  -0.934  53.249  1.00  0.00     0.083 N 
HETATM   28  H1  UNL     1      29.740  -0.002  53.051  1.00  0.00     0.313 HD
HETATM   29  H2  UNL     1      29.805  -1.477  53.992  1.00  0.00     0.313 HD
ENDBRANCH  24  27
ENDBRANCH  20  21
ENDBRANCH   1  20
TORSDOF 3
ENDMDL
MODEL 4
REMARK VINA RESULT:      -7.5      2.002      2.810
REMARK  3 active torsions:
REMARK  status: ('A' for Active; 'I' for Inactive)
REMARK    1  A    between atoms: N1_1  and  C1_2 
REMARK    2  A    between atoms: N2_5  and  C4_6 
REMARK    3  A    between atoms: C4_6  and  C5_7 
ROOT
HETATM    1  C5  UNL     1      23.999   3.672  50.424  1.00  0.00    -0.023 A 
HETATM    2  C6  UNL     1      23.248   2.844  49.539  1.00  0.00     0.013 A 
HETATM    3  C7  UNL     1      22.312   3.776  49.170  1.00  0.00     0.096 A 
HETATM    4  N3  UNL     1      22.124   5.025  49.474  1.00  0.00    -0.207 NA
HETATM    5  N4  UNL     1      22.343   6.150  50.089  1.00  0.00     0.000 N 
HETATM    6  C8  UNL     1      21.664   7.238  49.964  1.00  0.00     0.093 A 
HETATM    7  N5  UNL     1      22.744   7.179  50.857  1.00  0.00    -0.190 NA
HETATM    8  C9  UNL     1      23.381   5.967  50.889  1.00  0.00     0.145 A 
HETATM    9  C10 UNL     1      23.192   4.745  50.203  1.00  0.00     0.122 A 
HETATM   10  N6  UNL     1      24.115   5.946  52.205  1.00  0.00    -0.274 NA
HETATM   11  C11 UNL     1      22.967   5.035  52.256  1.00  0.00     0.110 A 
HETATM   12  C12 UNL     1      21.994   4.269  52.275  1.00  0.00    -0.119 C 
HETATM   13  C13 UNL     1      20.887   3.413  52.272  1.00  0.00     0.243 A 
HETATM   14  C14 UNL     1      20.673   3.258  50.978  1.00  0.00     0.182 A 
HETATM   15  F1  UNL     1      19.738   2.546  51.700  1.00  0.00    -0.366 F 
HETATM   16  C15 UNL     1      20.236   3.008  49.627  1.00  0.00     0.054 C 
HETATM   17 CL1  UNL     1      18.742   2.391  48.979  1.00  0.00    -0.086 Cl
HETATM   18  C16 UNL     1      21.059   3.266  48.558  1.00  0.00     0.029 C 
HETATM   19  H12 UNL     1      23.824   5.408  52.998  1.00  0.00     0.168 HD
ENDROOT
BRANCH   1  20
HETATM   20  C4  UNL     1      25.156   3.234  51.166  1.00  0.00     0.308 C 
BRANCH  20  21
HETATM   21  N2  UNL     1      25.209   1.884  51.627  1.00  0.00     0.092 NA
HETATM   22  C3  UNL     1      24.833   1.891  53.024  1.00  0.00     0.275 C 
HETATM   23  C2  UNL     1      26.004   1.995  53.974  1.00  0.00     0.065 C 
HETATM   24  C1  UNL     1      26.936   0.805  53.808  1.00  0.00     0.221 C 
HETATM   25  C18 UNL     1      26.670   0.167  52.429  1.00  0.00     0.065 C 
HETATM   26  C17 UNL     1      26.570   1.335  51.484  1.00  0.00     0.275 C 
BRANCH  24  27
HETATM   27  N1  UNL     1      26.746  -0.211  54.811  1.00  0.00     0.083 N 
HETATM   28  H1  UNL     1      26.587  -1.149  54.411  1.00  0.00     0.313 HD
HETATM   29  H2  UNL     1      27.523  -0.124  55.480  1.00  0.00     0.313 HD
ENDBRANCH  24  27
ENDBRANCH  20  21
ENDBRANCH   1  20
TORSDOF 3
ENDMDL
MODEL 5
REMARK VINA RESULT:      -7.5      3.261      4.487
REMARK  3 active torsions:
REMARK  status: ('A' for Active; 'I' for Inactive)
REMARK    1  A    between atoms: N1_1  and  C1_2 
REMARK    2  A    between atoms: N2_5  and  C4_6 
REMARK    3  A    between atoms: C4_6  and  C5_7 
ROOT
HETATM    1  C5  UNL     1      23.389   3.936  51.779  1.00  0.00    -0.023 A 
HETATM    2  C6  UNL     1      23.792   5.215  52.260  1.00  0.00     0.013 A 
HETATM    3  C7  UNL     1      23.284   5.965  51.231  1.00  0.00     0.096 A 
HETATM    4  N3  UNL     1      22.626   5.672  50.150  1.00  0.00    -0.207 NA
HETATM    5  N4  UNL     1      22.068   4.900  49.264  1.00  0.00     0.000 N 
HETATM    6  C8  UNL     1      21.482   5.274  48.180  1.00  0.00     0.093 A 
HETATM    7  N5  UNL     1      21.594   3.910  48.487  1.00  0.00    -0.190 NA
HETATM    8  C9  UNL     1      22.235   3.651  49.669  1.00  0.00     0.145 A 
HETATM    9  C10 UNL     1      22.811   4.468  50.668  1.00  0.00     0.122 A 
HETATM   10  N6  UNL     1      22.695   2.220  49.558  1.00  0.00    -0.274 NA
HETATM   11  C11 UNL     1      23.843   3.126  49.451  1.00  0.00     0.110 A 
HETATM   12  C12 UNL     1      24.798   3.910  49.366  1.00  0.00    -0.119 C 
HETATM   13  C13 UNL     1      25.859   4.817  49.272  1.00  0.00     0.243 A 
HETATM   14  C14 UNL     1      25.331   5.904  49.805  1.00  0.00     0.182 A 
HETATM   15  F1  UNL     1      26.626   6.157  49.404  1.00  0.00    -0.366 F 
HETATM   16  C15 UNL     1      24.929   7.200  50.292  1.00  0.00     0.054 C 
HETATM   17 CL1  UNL     1      25.610   8.788  50.081  1.00  0.00    -0.086 Cl
HETATM   18  C16 UNL     1      23.813   7.345  51.078  1.00  0.00     0.029 C 
HETATM   19  H12 UNL     1      23.646   1.950  49.399  1.00  0.00     0.168 HD
ENDROOT
BRANCH   1  20
HETATM   20  C4  UNL     1      23.660   2.688  52.451  1.00  0.00     0.308 C 
BRANCH  20  21
HETATM   21  N2  UNL     1      25.003   2.210  52.501  1.00  0.00     0.092 NA
HETATM   22  C3  UNL     1      24.965   0.789  52.226  1.00  0.00     0.275 C 
HETATM   23  C2  UNL     1      24.879  -0.072  53.465  1.00  0.00     0.065 C 
HETATM   24  C1  UNL     1      26.097   0.140  54.351  1.00  0.00     0.221 C 
HETATM   25  C18 UNL     1      26.748   1.485  53.969  1.00  0.00     0.065 C 
HETATM   26  C17 UNL     1      25.593   2.441  53.832  1.00  0.00     0.275 C 
BRANCH  24  27
HETATM   27  N1  UNL     1      27.092  -0.891  54.206  1.00  0.00     0.083 N 
HETATM   28  H1  UNL     1      26.814  -1.632  53.545  1.00  0.00     0.313 HD
HETATM   29  H2  UNL     1      27.988  -0.421  54.016  1.00  0.00     0.313 HD
ENDBRANCH  24  27
ENDBRANCH  20  21
ENDBRANCH   1  20
TORSDOF 3
ENDMDL
MODEL 6
REMARK VINA RESULT:      -7.4     10.099     12.290
REMARK  3 active torsions:
REMARK  status: ('A' for Active; 'I' for Inactive)
REMARK    1  A    between atoms: N1_1  and  C1_2 
REMARK    2  A    between atoms: N2_5  and  C4_6 
REMARK    3  A    between atoms: C4_6  and  C5_7 
ROOT
HETATM    1  C5  UNL     1      31.888   7.539  47.935  1.00  0.00    -0.023 A 
HETATM    2  C6  UNL     1      31.209   6.289  48.038  1.00  0.00     0.013 A 
HETATM    3  C7  UNL     1      32.291   5.523  48.385  1.00  0.00     0.096 A 
HETATM    4  N3  UNL     1      33.548   5.786  48.588  1.00  0.00    -0.207 NA
HETATM    5  N4  UNL     1      34.621   6.519  48.635  1.00  0.00     0.000 N 
HETATM    6  C8  UNL     1      35.808   6.123  48.941  1.00  0.00     0.093 A 
HETATM    7  N5  UNL     1      35.581   7.460  48.582  1.00  0.00    -0.190 NA
HETATM    8  C9  UNL     1      34.276   7.747  48.285  1.00  0.00     0.145 A 
HETATM    9  C10 UNL     1      33.086   6.984  48.267  1.00  0.00     0.122 A 
HETATM   10  N6  UNL     1      34.332   9.009  47.462  1.00  0.00    -0.274 NA
HETATM   11  C11 UNL     1      33.988   7.868  46.607  1.00  0.00     0.110 A 
HETATM   12  C12 UNL     1      33.696   6.890  45.906  1.00  0.00    -0.119 C 
HETATM   13  C13 UNL     1      33.369   5.769  45.135  1.00  0.00     0.243 A 
HETATM   14  C14 UNL     1      32.963   4.918  46.060  1.00  0.00     0.182 A 
HETATM   15  F1  UNL     1      32.895   4.329  44.814  1.00  0.00    -0.366 F 
HETATM   16  C15 UNL     1      32.543   3.830  46.908  1.00  0.00     0.054 C 
HETATM   17 CL1  UNL     1      32.402   2.118  46.626  1.00  0.00    -0.086 Cl
HETATM   18  C16 UNL     1      32.161   4.054  48.207  1.00  0.00     0.029 C 
HETATM   19  H12 UNL     1      34.187   9.037  46.471  1.00  0.00     0.168 HD
ENDROOT
BRANCH   1  20
HETATM   20  C4  UNL     1      31.257   8.783  47.570  1.00  0.00     0.308 C 
BRANCH  20  21
HETATM   21  N2  UNL     1      31.286   9.869  48.496  1.00  0.00     0.092 NA
HETATM   22  C3  UNL     1      30.042   9.837  49.235  1.00  0.00     0.275 C 
HETATM   23  C2  UNL     1      28.954  10.702  48.642  1.00  0.00     0.065 C 
HETATM   24  C1  UNL     1      29.381  12.162  48.622  1.00  0.00     0.221 C 
HETATM   25  C18 UNL     1      30.918  12.221  48.735  1.00  0.00     0.065 C 
HETATM   26  C17 UNL     1      31.409  11.157  47.789  1.00  0.00     0.275 C 
BRANCH  24  27
HETATM   27  N1  UNL     1      28.827  12.931  49.708  1.00  0.00     0.083 N 
HETATM   28  H1  UNL     1      28.296  12.357  50.381  1.00  0.00     0.313 HD
HETATM   29  H2  UNL     1      29.593  13.500  50.095  1.00  0.00     0.313 HD
ENDBRANCH  24  27
ENDBRANCH  20  21
ENDBRANCH   1  20
TORSDOF 3
ENDMDL
MODEL 7
REMARK VINA RESULT:      -7.2      2.892      5.377
REMARK  3 active torsions:
REMARK  status: ('A' for Active; 'I' for Inactive)
REMARK    1  A    between atoms: N1_1  and  C1_2 
REMARK    2  A    between atoms: N2_5  and  C4_6 
REMARK    3  A    between atoms: C4_6  and  C5_7 
ROOT
HETATM    1  C5  UNL     1      22.144   3.485  52.381  1.00  0.00    -0.023 A 
HETATM    2  C6  UNL     1      20.727   3.364  52.283  1.00  0.00     0.013 A 
HETATM    3  C7  UNL     1      20.641   2.021  52.545  1.00  0.00     0.096 A 
HETATM    4  N3  UNL     1      21.519   1.103  52.817  1.00  0.00    -0.207 NA
HETATM    5  N4  UNL     1      22.706   0.603  52.999  1.00  0.00     0.000 N 
HETATM    6  C8  UNL     1      22.989  -0.622  53.276  1.00  0.00     0.093 A 
HETATM    7  N5  UNL     1      24.016   0.318  53.109  1.00  0.00    -0.190 NA
HETATM    8  C9  UNL     1      23.578   1.583  52.821  1.00  0.00     0.145 A 
HETATM    9  C10 UNL     1      22.298   2.162  52.661  1.00  0.00     0.122 A 
HETATM   10  N6  UNL     1      24.762   2.272  52.192  1.00  0.00    -0.274 NA
HETATM   11  C11 UNL     1      23.748   1.986  51.172  1.00  0.00     0.110 A 
HETATM   12  C12 UNL     1      22.876   1.736  50.328  1.00  0.00    -0.119 C 
HETATM   13  C13 UNL     1      21.877   1.441  49.395  1.00  0.00     0.243 A 
HETATM   14  C14 UNL     1      20.826   1.263  50.175  1.00  0.00     0.182 A 
HETATM   15  F1  UNL     1      20.472   1.070  48.856  1.00  0.00    -0.366 F 
HETATM   16  C15 UNL     1      19.583   0.971  50.844  1.00  0.00     0.054 C 
HETATM   17 CL1  UNL     1      18.131   0.170  50.314  1.00  0.00    -0.086 Cl
HETATM   18  C16 UNL     1      19.381   1.338  52.152  1.00  0.00     0.029 C 
HETATM   19  H12 UNL     1      24.840   2.465  51.212  1.00  0.00     0.168 HD
ENDROOT
BRANCH   1  20
HETATM   20  C4  UNL     1      22.874   4.713  52.183  1.00  0.00     0.308 C 
BRANCH  20  21
HETATM   21  N2  UNL     1      22.774   5.379  50.926  1.00  0.00     0.092 NA
HETATM   22  C3  UNL     1      24.120   5.686  50.492  1.00  0.00     0.275 C 
HETATM   23  C2  UNL     1      24.596   7.062  50.898  1.00  0.00     0.065 C 
HETATM   24  C1  UNL     1      23.714   8.138  50.284  1.00  0.00     0.221 C 
HETATM   25  C18 UNL     1      22.372   7.495  49.881  1.00  0.00     0.065 C 
HETATM   26  C17 UNL     1      21.999   6.628  51.055  1.00  0.00     0.275 C 
BRANCH  24  27
HETATM   27  N1  UNL     1      24.287   8.740  49.108  1.00  0.00     0.083 N 
HETATM   28  H1  UNL     1      24.641   8.047  48.430  1.00  0.00     0.313 HD
HETATM   29  H2  UNL     1      23.601   9.419  48.751  1.00  0.00     0.313 HD
ENDBRANCH  24  27
ENDBRANCH  20  21
ENDBRANCH   1  20
TORSDOF 3
ENDMDL
MODEL 8
REMARK VINA RESULT:      -7.2      3.834      4.993
REMARK  3 active torsions:
REMARK  status: ('A' for Active; 'I' for Inactive)
REMARK    1  A    between atoms: N1_1  and  C1_2 
REMARK    2  A    between atoms: N2_5  and  C4_6 
REMARK    3  A    between atoms: C4_6  and  C5_7 
ROOT
HETATM    1  C5  UNL     1      20.977   2.785  51.056  1.00  0.00    -0.023 A 
HETATM    2  C6  UNL     1      21.115   4.010  51.772  1.00  0.00     0.013 A 
HETATM    3  C7  UNL     1      21.181   4.847  50.688  1.00  0.00     0.096 A 
HETATM    4  N3  UNL     1      21.125   4.656  49.404  1.00  0.00    -0.207 NA
HETATM    5  N4  UNL     1      21.056   3.970  48.301  1.00  0.00     0.000 N 
HETATM    6  C8  UNL     1      21.074   4.440  47.102  1.00  0.00     0.093 A 
HETATM    7  N5  UNL     1      21.003   3.056  47.316  1.00  0.00    -0.190 NA
HETATM    8  C9  UNL     1      20.987   2.692  48.636  1.00  0.00     0.145 A 
HETATM    9  C10 UNL     1      21.018   3.415  49.850  1.00  0.00     0.122 A 
HETATM   10  N6  UNL     1      21.423   1.249  48.647  1.00  0.00    -0.274 NA
HETATM   11  C11 UNL     1      22.491   2.100  49.180  1.00  0.00     0.110 A 
HETATM   12  C12 UNL     1      23.379   2.838  49.629  1.00  0.00    -0.119 C 
HETATM   13  C13 UNL     1      24.366   3.693  50.130  1.00  0.00     0.243 A 
HETATM   14  C14 UNL     1      23.661   4.770  50.426  1.00  0.00     0.182 A 
HETATM   15  F1  UNL     1      24.992   4.982  50.721  1.00  0.00    -0.366 F 
HETATM   16  C15 UNL     1      23.093   6.053  50.760  1.00  0.00     0.054 C 
HETATM   17 CL1  UNL     1      23.813   7.614  51.031  1.00  0.00    -0.086 Cl
HETATM   18  C16 UNL     1      21.737   6.205  50.920  1.00  0.00     0.029 C 
HETATM   19  H12 UNL     1      22.327   0.941  48.946  1.00  0.00     0.168 HD
ENDROOT
BRANCH   1  20
HETATM   20  C4  UNL     1      20.870   1.486  51.674  1.00  0.00     0.308 C 
BRANCH  20  21
HETATM   21  N2  UNL     1      21.255   1.338  53.040  1.00  0.00     0.092 NA
HETATM   22  C3  UNL     1      22.642   0.923  53.054  1.00  0.00     0.275 C 
HETATM   23  C2  UNL     1      22.833  -0.575  53.101  1.00  0.00     0.065 C 
HETATM   24  C1  UNL     1      22.220  -1.154  54.367  1.00  0.00     0.221 C 
HETATM   25  C18 UNL     1      21.198  -0.141  54.920  1.00  0.00     0.065 C 
HETATM   26  C17 UNL     1      20.427   0.319  53.711  1.00  0.00     0.275 C 
BRANCH  24  27
HETATM   27  N1  UNL     1      23.190  -1.414  55.400  1.00  0.00     0.083 N 
HETATM   28  H1  UNL     1      23.402  -2.417  55.513  1.00  0.00     0.313 HD
HETATM   29  H2  UNL     1      23.992  -0.793  55.225  1.00  0.00     0.313 HD
ENDBRANCH  24  27
ENDBRANCH  20  21
ENDBRANCH   1  20
TORSDOF 3
ENDMDL
MODEL 9
REMARK VINA RESULT:      -7.1      9.144     10.672
REMARK  3 active torsions:
REMARK  status: ('A' for Active; 'I' for Inactive)
REMARK    1  A    between atoms: N1_1  and  C1_2 
REMARK    2  A    between atoms: N2_5  and  C4_6 
REMARK    3  A    between atoms: C4_6  and  C5_7 
ROOT
HETATM    1  C5  UNL     1      30.975   8.582  47.958  1.00  0.00    -0.023 A 
HETATM    2  C6  UNL     1      31.466   9.911  48.113  1.00  0.00     0.013 A 
HETATM    3  C7  UNL     1      30.380  10.431  48.770  1.00  0.00     0.096 A 
HETATM    4  N3  UNL     1      29.249   9.928  49.167  1.00  0.00    -0.207 NA
HETATM    5  N4  UNL     1      28.332   9.017  49.309  1.00  0.00     0.000 N 
HETATM    6  C8  UNL     1      27.192   9.159  49.891  1.00  0.00     0.093 A 
HETATM    7  N5  UNL     1      27.534   7.934  49.302  1.00  0.00    -0.190 NA
HETATM    8  C9  UNL     1      28.775   7.917  48.722  1.00  0.00     0.145 A 
HETATM    9  C10 UNL     1      29.806   8.875  48.590  1.00  0.00     0.122 A 
HETATM   10  N6  UNL     1      28.734   6.767  47.747  1.00  0.00    -0.274 NA
HETATM   11  C11 UNL     1      28.714   8.041  47.021  1.00  0.00     0.110 A 
HETATM   12  C12 UNL     1      28.701   9.129  46.429  1.00  0.00    -0.119 C 
HETATM   13  C13 UNL     1      28.685  10.371  45.784  1.00  0.00     0.243 A 
HETATM   14  C14 UNL     1      29.147  11.169  46.731  1.00  0.00     0.182 A 
HETATM   15  F1  UNL     1      28.860  11.899  45.595  1.00  0.00    -0.366 F 
HETATM   16  C15 UNL     1      29.570  12.210  47.634  1.00  0.00     0.054 C 
HETATM   17 CL1  UNL     1      29.391  13.941  47.587  1.00  0.00    -0.086 Cl
HETATM   18  C16 UNL     1      30.249  11.910  48.789  1.00  0.00     0.029 C 
HETATM   19  H12 UNL     1      28.668   6.879  46.754  1.00  0.00     0.168 HD
ENDROOT
BRANCH   1  20
HETATM   20  C4  UNL     1      31.693   7.518  47.299  1.00  0.00     0.308 C 
BRANCH  20  21
HETATM   21  N2  UNL     1      31.912   6.296  48.002  1.00  0.00     0.092 NA
HETATM   22  C3  UNL     1      33.151   6.437  48.737  1.00  0.00     0.275 C 
HETATM   23  C2  UNL     1      34.365   5.933  47.992  1.00  0.00     0.065 C 
HETATM   24  C1  UNL     1      34.234   4.447  47.695  1.00  0.00     0.221 C 
HETATM   25  C18 UNL     1      32.744   4.062  47.791  1.00  0.00     0.065 C 
HETATM   26  C17 UNL     1      32.020   5.164  47.063  1.00  0.00     0.275 C 
BRANCH  24  27
HETATM   27  N1  UNL     1      34.967   3.616  48.615  1.00  0.00     0.083 N 
HETATM   28  H1  UNL     1      34.750   2.612  48.515  1.00  0.00     0.313 HD
HETATM   29  H2  UNL     1      35.958   3.880  48.537  1.00  0.00     0.313 HD
ENDBRANCH  24  27
ENDBRANCH  20  21
ENDBRANCH   1  20
TORSDOF 3
ENDMDL
