MODEL 1
REMARK VINA RESULT:      -9.5      0.000      0.000
REMARK  4 active torsions:
REMARK  status: ('A' for Active; 'I' for Inactive)
REMARK    1  A    between atoms: C5_5  and  C6_6 
REMARK    2  A    between atoms: N2_8  and  C7_9 
REMARK    3  A    between atoms: C13_15  and  C14_16 
REMARK    4  A    between atoms: C15_18  and  O1_19 
ROOT
HETATM    1  C7  UNL     1      23.128   1.478  52.398  1.00  0.00     0.066 A 
HETATM    2  C8  UNL     1      21.791   1.135  52.305  1.00  0.00     0.033 A 
HETATM    3  C9  UNL     1      21.212   0.059  52.936  1.00  0.00     0.009 A 
HETATM    4  C10 UNL     1      22.005  -0.746  53.721  1.00  0.00    -0.061 A 
HETATM    5  C11 UNL     1      21.451  -1.926  54.433  1.00  0.00     0.048 C 
HETATM    6  C12 UNL     1      23.337  -0.422  53.825  1.00  0.00     0.023 A 
HETATM    7  C13 UNL     1      23.897   0.654  53.188  1.00  0.00     0.029 A 
ENDROOT
BRANCH   1   8
HETATM    8  N2  UNL     1      23.603   2.635  51.729  1.00  0.00    -0.268 N 
HETATM    9  N1  UNL     1      24.786   3.221  51.350  1.00  0.00    -0.176 NA
HETATM   10  C6  UNL     1      24.750   3.936  50.300  1.00  0.00     0.066 C 
HETATM   11  C18 UNL     1      23.316   3.879  49.845  1.00  0.00     0.084 C 
HETATM   12  C17 UNL     1      22.678   3.666  51.233  1.00  0.00     0.157 C 
BRANCH  10  13
HETATM   13  C5  UNL     1      25.760   4.703  49.588  1.00  0.00    -0.010 A 
HETATM   14  C4  UNL     1      26.973   4.168  49.209  1.00  0.00     0.014 A 
HETATM   15  C3  UNL     1      27.931   4.886  48.530  1.00  0.00     0.007 A 
HETATM   16  C2  UNL     1      27.702   6.205  48.196  1.00  0.00    -0.062 A 
HETATM   17  C1  UNL     1      28.734   6.982  47.464  1.00  0.00     0.048 C 
HETATM   18  C20 UNL     1      26.506   6.795  48.548  1.00  0.00     0.007 A 
HETATM   19  C19 UNL     1      25.589   6.020  49.227  1.00  0.00     0.014 A 
ENDBRANCH  10  13
ENDBRANCH   1   8
BRANCH   7  20
HETATM   20  C14 UNL     1      25.361   1.006  53.271  1.00  0.00     0.113 A 
HETATM   21  N3  UNL     1      26.102   1.718  53.702  1.00  0.00    -0.216 NA
HETATM   22  C15 UNL     1      27.406   1.836  53.622  1.00  0.00     0.169 A 
HETATM   23  C16 UNL     1      28.003   0.815  52.791  1.00  0.00     0.109 A 
HETATM   24  S1  UNL     1      26.463  -0.141  52.282  1.00  0.00    -0.077 SA
BRANCH  22  25
HETATM   25  O1  UNL     1      28.127   2.833  54.264  1.00  0.00    -0.344 OA
HETATM   26  H12 UNL     1      27.719   3.752  54.466  1.00  0.00     0.219 HD
ENDBRANCH  22  25
ENDBRANCH   7  20
TORSDOF 4
ENDMDL
MODEL 2
REMARK VINA RESULT:      -8.7      3.256      5.925
REMARK  4 active torsions:
REMARK  status: ('A' for Active; 'I' for Inactive)
REMARK    1  A    between atoms: C5_5  and  C6_6 
REMARK    2  A    between atoms: N2_8  and  C7_9 
REMARK    3  A    between atoms: C13_15  and  C14_16 
REMARK    4  A    between atoms: C15_18  and  O1_19 
ROOT
HETATM    1  C7  UNL     1      20.613  -0.135  52.786  1.00  0.00     0.066 A 
HETATM    2  C8  UNL     1      19.496  -0.923  52.995  1.00  0.00     0.033 A 
HETATM    3  C9  UNL     1      18.221  -0.596  52.598  1.00  0.00     0.009 A 
HETATM    4  C10 UNL     1      18.023   0.601  51.946  1.00  0.00    -0.061 A 
HETATM    5  C11 UNL     1      16.675   1.023  51.488  1.00  0.00     0.048 C 
HETATM    6  C12 UNL     1      19.121   1.398  51.730  1.00  0.00     0.023 A 
HETATM    7  C13 UNL     1      20.386   1.055  52.133  1.00  0.00     0.029 A 
ENDROOT
BRANCH   1   8
HETATM    8  N2  UNL     1      21.885  -0.598  53.209  1.00  0.00    -0.268 N 
HETATM    9  N1  UNL     1      23.203  -0.554  52.823  1.00  0.00    -0.176 NA
HETATM   10  C6  UNL     1      24.065  -0.602  53.755  1.00  0.00     0.066 C 
HETATM   11  C18 UNL     1      23.258  -0.711  55.021  1.00  0.00     0.084 C 
HETATM   12  C17 UNL     1      22.037  -1.430  54.412  1.00  0.00     0.157 C 
BRANCH  10  13
HETATM   13  C5  UNL     1      25.520  -0.580  53.762  1.00  0.00    -0.010 A 
HETATM   14  C4  UNL     1      26.281  -1.276  52.846  1.00  0.00     0.014 A 
HETATM   15  C3  UNL     1      27.656  -1.256  52.844  1.00  0.00     0.007 A 
HETATM   16  C2  UNL     1      28.342  -0.517  53.786  1.00  0.00    -0.062 A 
HETATM   17  C1  UNL     1      29.826  -0.495  53.785  1.00  0.00     0.048 C 
HETATM   18  C20 UNL     1      27.635   0.200  54.728  1.00  0.00     0.007 A 
HETATM   19  C19 UNL     1      26.258   0.138  54.676  1.00  0.00     0.014 A 
ENDBRANCH  10  13
ENDBRANCH   1   8
BRANCH   7  20
HETATM   20  C14 UNL     1      21.595   1.931  51.928  1.00  0.00     0.113 A 
HETATM   21  N3  UNL     1      22.272   2.674  52.409  1.00  0.00    -0.216 NA
HETATM   22  C15 UNL     1      23.321   3.350  52.003  1.00  0.00     0.169 A 
HETATM   23  C16 UNL     1      23.666   3.061  50.629  1.00  0.00     0.109 A 
HETATM   24  S1  UNL     1      22.325   1.808  50.207  1.00  0.00    -0.077 SA
BRANCH  22  25
HETATM   25  O1  UNL     1      24.016   4.243  52.806  1.00  0.00    -0.344 OA
HETATM   26  H12 UNL     1      23.982   5.255  52.645  1.00  0.00     0.219 HD
ENDBRANCH  22  25
ENDBRANCH   7  20
TORSDOF 4
ENDMDL
MODEL 3
REMARK VINA RESULT:      -8.5      3.071      7.164
REMARK  4 active torsions:
REMARK  status: ('A' for Active; 'I' for Inactive)
REMARK    1  A    between atoms: C5_5  and  C6_6 
REMARK    2  A    between atoms: N2_8  and  C7_9 
REMARK    3  A    between atoms: C13_15  and  C14_16 
REMARK    4  A    between atoms: C15_18  and  O1_19 
ROOT
HETATM    1  C7  UNL     1      24.983   0.372  53.413  1.00  0.00     0.066 A 
HETATM    2  C8  UNL     1      25.786  -0.690  53.784  1.00  0.00     0.033 A 
HETATM    3  C9  UNL     1      27.161  -0.658  53.819  1.00  0.00     0.009 A 
HETATM    4  C10 UNL     1      27.799   0.508  53.461  1.00  0.00    -0.061 A 
HETATM    5  C11 UNL     1      29.280   0.618  53.474  1.00  0.00     0.048 C 
HETATM    6  C12 UNL     1      27.017   1.574  53.088  1.00  0.00     0.023 A 
HETATM    7  C13 UNL     1      25.648   1.524  53.059  1.00  0.00     0.029 A 
ENDROOT
BRANCH   1   8
HETATM    8  N2  UNL     1      23.572   0.230  53.452  1.00  0.00    -0.268 N 
HETATM    9  N1  UNL     1      22.454   0.631  52.762  1.00  0.00    -0.176 NA
HETATM   10  C6  UNL     1      21.462  -0.163  52.784  1.00  0.00     0.066 C 
HETATM   11  C18 UNL     1      21.915  -1.321  53.632  1.00  0.00     0.084 C 
HETATM   12  C17 UNL     1      22.909  -0.539  54.517  1.00  0.00     0.157 C 
BRANCH  10  13
HETATM   13  C5  UNL     1      20.133  -0.107  52.196  1.00  0.00    -0.010 A 
HETATM   14  C4  UNL     1      19.024  -0.655  52.804  1.00  0.00     0.014 A 
HETATM   15  C3  UNL     1      17.763  -0.601  52.256  1.00  0.00     0.007 A 
HETATM   16  C2  UNL     1      17.560   0.024  51.043  1.00  0.00    -0.062 A 
HETATM   17  C1  UNL     1      16.200   0.084  50.450  1.00  0.00     0.048 C 
HETATM   18  C20 UNL     1      18.632   0.593  50.387  1.00  0.00     0.007 A 
HETATM   19  C19 UNL     1      19.869   0.504  50.990  1.00  0.00     0.014 A 
ENDBRANCH  10  13
ENDBRANCH   1   8
BRANCH   7  20
HETATM   20  C14 UNL     1      24.778   2.676  52.626  1.00  0.00     0.113 A 
HETATM   21  N3  UNL     1      24.139   3.518  52.981  1.00  0.00    -0.216 NA
HETATM   22  C15 UNL     1      23.431   4.442  52.379  1.00  0.00     0.169 A 
HETATM   23  C16 UNL     1      23.499   4.340  50.939  1.00  0.00     0.109 A 
HETATM   24  S1  UNL     1      24.634   2.847  50.766  1.00  0.00    -0.077 SA
BRANCH  22  25
HETATM   25  O1  UNL     1      22.697   5.408  53.054  1.00  0.00    -0.344 OA
HETATM   26  H12 UNL     1      21.707   5.274  53.284  1.00  0.00     0.219 HD
ENDBRANCH  22  25
ENDBRANCH   7  20
TORSDOF 4
ENDMDL
MODEL 4
REMARK VINA RESULT:      -8.4      1.445      1.839
REMARK  4 active torsions:
REMARK  status: ('A' for Active; 'I' for Inactive)
REMARK    1  A    between atoms: C5_5  and  C6_6 
REMARK    2  A    between atoms: N2_8  and  C7_9 
REMARK    3  A    between atoms: C13_15  and  C14_16 
REMARK    4  A    between atoms: C15_18  and  O1_19 
ROOT
HETATM    1  C7  UNL     1      22.607   1.374  52.125  1.00  0.00     0.066 A 
HETATM    2  C8  UNL     1      21.298   0.944  52.246  1.00  0.00     0.033 A 
HETATM    3  C9  UNL     1      20.890  -0.113  53.025  1.00  0.00     0.009 A 
HETATM    4  C10 UNL     1      21.840  -0.806  53.741  1.00  0.00    -0.061 A 
HETATM    5  C11 UNL     1      21.475  -1.960  54.603  1.00  0.00     0.048 C 
HETATM    6  C12 UNL     1      23.146  -0.394  53.632  1.00  0.00     0.023 A 
HETATM    7  C13 UNL     1      23.535   0.663  52.850  1.00  0.00     0.029 A 
ENDROOT
BRANCH   1   8
HETATM    8  N2  UNL     1      22.901   2.503  51.318  1.00  0.00    -0.268 N 
HETATM    9  N1  UNL     1      23.260   3.823  51.446  1.00  0.00    -0.176 NA
HETATM   10  C6  UNL     1      23.964   4.309  50.507  1.00  0.00     0.066 C 
HETATM   11  C18 UNL     1      24.139   3.176  49.531  1.00  0.00     0.084 C 
HETATM   12  C17 UNL     1      22.823   2.438  49.850  1.00  0.00     0.157 C 
BRANCH  10  13
HETATM   13  C5  UNL     1      24.533   5.627  50.274  1.00  0.00    -0.010 A 
HETATM   14  C4  UNL     1      25.713   5.821  49.587  1.00  0.00     0.014 A 
HETATM   15  C3  UNL     1      26.254   7.065  49.358  1.00  0.00     0.007 A 
HETATM   16  C2  UNL     1      25.613   8.196  49.821  1.00  0.00    -0.062 A 
HETATM   17  C1  UNL     1      26.195   9.539  49.575  1.00  0.00     0.048 C 
HETATM   18  C20 UNL     1      24.428   8.066  50.515  1.00  0.00     0.007 A 
HETATM   19  C19 UNL     1      23.940   6.791  50.710  1.00  0.00     0.014 A 
ENDBRANCH  10  13
ENDBRANCH   1   8
BRANCH   7  20
HETATM   20  C14 UNL     1      24.967   1.109  52.699  1.00  0.00     0.113 A 
HETATM   21  N3  UNL     1      25.642   1.852  52.217  1.00  0.00    -0.216 NA
HETATM   22  C15 UNL     1      26.939   2.049  52.228  1.00  0.00     0.169 A 
HETATM   23  C16 UNL     1      27.637   1.086  53.049  1.00  0.00     0.109 A 
HETATM   24  S1  UNL     1      26.184   0.053  53.655  1.00  0.00    -0.077 SA
BRANCH  22  25
HETATM   25  O1  UNL     1      27.566   3.069  51.526  1.00  0.00    -0.344 OA
HETATM   26  H12 UNL     1      28.526   2.977  51.179  1.00  0.00     0.219 HD
ENDBRANCH  22  25
ENDBRANCH   7  20
TORSDOF 4
ENDMDL
MODEL 5
REMARK VINA RESULT:      -8.3      2.884      7.952
REMARK  4 active torsions:
REMARK  status: ('A' for Active; 'I' for Inactive)
REMARK    1  A    between atoms: C5_5  and  C6_6 
REMARK    2  A    between atoms: N2_8  and  C7_9 
REMARK    3  A    between atoms: C13_15  and  C14_16 
REMARK    4  A    between atoms: C15_18  and  O1_19 
ROOT
HETATM    1  C7  UNL     1      25.824   4.535  49.229  1.00  0.00     0.066 A 
HETATM    2  C8  UNL     1      27.145   4.306  48.890  1.00  0.00     0.033 A 
HETATM    3  C9  UNL     1      28.042   5.283  48.527  1.00  0.00     0.009 A 
HETATM    4  C10 UNL     1      27.610   6.590  48.491  1.00  0.00    -0.061 A 
HETATM    5  C11 UNL     1      28.520   7.699  48.108  1.00  0.00     0.048 C 
HETATM    6  C12 UNL     1      26.300   6.837  48.824  1.00  0.00     0.023 A 
HETATM    7  C13 UNL     1      25.420   5.850  49.183  1.00  0.00     0.029 A 
ENDROOT
BRANCH   1   8
HETATM    8  N2  UNL     1      25.003   3.448  49.623  1.00  0.00    -0.268 N 
HETATM    9  N1  UNL     1      24.858   2.561  50.662  1.00  0.00    -0.176 NA
HETATM   10  C6  UNL     1      23.680   2.139  50.882  1.00  0.00     0.066 C 
HETATM   11  C18 UNL     1      22.830   2.805  49.835  1.00  0.00     0.084 C 
HETATM   12  C17 UNL     1      23.924   2.948  48.756  1.00  0.00     0.157 C 
BRANCH  10  13
HETATM   13  C5  UNL     1      23.124   1.219  51.862  1.00  0.00    -0.010 A 
HETATM   14  C4  UNL     1      21.778   0.927  51.931  1.00  0.00     0.014 A 
HETATM   15  C3  UNL     1      21.245   0.053  52.851  1.00  0.00     0.007 A 
HETATM   16  C2  UNL     1      22.065  -0.580  53.763  1.00  0.00    -0.062 A 
HETATM   17  C1  UNL     1      21.492  -1.522  54.756  1.00  0.00     0.048 C 
HETATM   18  C20 UNL     1      23.421  -0.328  53.742  1.00  0.00     0.007 A 
HETATM   19  C19 UNL     1      23.890   0.557  52.795  1.00  0.00     0.014 A 
ENDBRANCH  10  13
ENDBRANCH   1   8
BRANCH   7  20
HETATM   20  C14 UNL     1      23.973   6.103  49.524  1.00  0.00     0.113 A 
HETATM   21  N3  UNL     1      22.958   6.287  49.102  1.00  0.00    -0.216 NA
HETATM   22  C15 UNL     1      21.776   6.501  49.629  1.00  0.00     0.169 A 
HETATM   23  C16 UNL     1      21.806   6.492  51.074  1.00  0.00     0.109 A 
HETATM   24  S1  UNL     1      23.637   6.160  51.366  1.00  0.00    -0.077 SA
BRANCH  22  25
HETATM   25  O1  UNL     1      20.628   6.712  48.879  1.00  0.00    -0.344 OA
HETATM   26  H12 UNL     1      20.383   6.114  48.083  1.00  0.00     0.219 HD
ENDBRANCH  22  25
ENDBRANCH   7  20
TORSDOF 4
ENDMDL
MODEL 6
REMARK VINA RESULT:      -8.2      2.667      4.007
REMARK  4 active torsions:
REMARK  status: ('A' for Active; 'I' for Inactive)
REMARK    1  A    between atoms: C5_5  and  C6_6 
REMARK    2  A    between atoms: N2_8  and  C7_9 
REMARK    3  A    between atoms: C13_15  and  C14_16 
REMARK    4  A    between atoms: C15_18  and  O1_19 
ROOT
HETATM    1  C7  UNL     1      23.857   0.881  52.162  1.00  0.00     0.066 A 
HETATM    2  C8  UNL     1      24.316   0.116  53.219  1.00  0.00     0.033 A 
HETATM    3  C9  UNL     1      23.520  -0.662  54.027  1.00  0.00     0.009 A 
HETATM    4  C10 UNL     1      22.166  -0.693  53.780  1.00  0.00    -0.061 A 
HETATM    5  C11 UNL     1      21.243  -1.510  54.610  1.00  0.00     0.048 C 
HETATM    6  C12 UNL     1      21.691   0.062  52.735  1.00  0.00     0.023 A 
HETATM    7  C13 UNL     1      22.500   0.832  51.940  1.00  0.00     0.029 A 
ENDROOT
BRANCH   1   8
HETATM    8  N2  UNL     1      24.781   1.615  51.376  1.00  0.00    -0.268 N 
HETATM    9  N1  UNL     1      24.807   2.648  50.472  1.00  0.00    -0.176 NA
HETATM   10  C6  UNL     1      25.865   3.352  50.449  1.00  0.00     0.066 C 
HETATM   11  C18 UNL     1      26.762   2.732  51.486  1.00  0.00     0.084 C 
HETATM   12  C17 UNL     1      26.217   1.292  51.381  1.00  0.00     0.157 C 
BRANCH  10  13
HETATM   13  C5  UNL     1      26.273   4.502  49.659  1.00  0.00    -0.010 A 
HETATM   14  C4  UNL     1      25.478   5.617  49.497  1.00  0.00     0.014 A 
HETATM   15  C3  UNL     1      25.859   6.711  48.755  1.00  0.00     0.007 A 
HETATM   16  C2  UNL     1      27.089   6.732  48.131  1.00  0.00    -0.062 A 
HETATM   17  C1  UNL     1      27.504   7.912  47.331  1.00  0.00     0.048 C 
HETATM   18  C20 UNL     1      27.930   5.646  48.257  1.00  0.00     0.007 A 
HETATM   19  C19 UNL     1      27.487   4.581  49.014  1.00  0.00     0.014 A 
ENDBRANCH  10  13
ENDBRANCH   1   8
BRANCH   7  20
HETATM   20  C14 UNL     1      21.990   1.687  50.808  1.00  0.00     0.113 A 
HETATM   21  N3  UNL     1      21.816   1.730  49.708  1.00  0.00    -0.216 NA
HETATM   22  C15 UNL     1      21.339   2.643  48.895  1.00  0.00     0.169 A 
HETATM   23  C16 UNL     1      20.957   3.853  49.586  1.00  0.00     0.109 A 
HETATM   24  S1  UNL     1      21.397   3.378  51.355  1.00  0.00    -0.077 SA
BRANCH  22  25
HETATM   25  O1  UNL     1      21.217   2.461  47.525  1.00  0.00    -0.344 OA
HETATM   26  H12 UNL     1      20.798   1.615  47.125  1.00  0.00     0.219 HD
ENDBRANCH  22  25
ENDBRANCH   7  20
TORSDOF 4
ENDMDL
MODEL 7
REMARK VINA RESULT:      -8.2      3.853      7.960
REMARK  4 active torsions:
REMARK  status: ('A' for Active; 'I' for Inactive)
REMARK    1  A    between atoms: C5_5  and  C6_6 
REMARK    2  A    between atoms: N2_8  and  C7_9 
REMARK    3  A    between atoms: C13_15  and  C14_16 
REMARK    4  A    between atoms: C15_18  and  O1_19 
ROOT
HETATM    1  C7  UNL     1      23.779   0.158  53.294  1.00  0.00     0.066 A 
HETATM    2  C8  UNL     1      24.577  -0.613  54.119  1.00  0.00     0.033 A 
HETATM    3  C9  UNL     1      25.953  -0.601  54.113  1.00  0.00     0.009 A 
HETATM    4  C10 UNL     1      26.598   0.233  53.227  1.00  0.00    -0.061 A 
HETATM    5  C11 UNL     1      28.080   0.300  53.162  1.00  0.00     0.048 C 
HETATM    6  C12 UNL     1      25.821   1.006  52.399  1.00  0.00     0.023 A 
HETATM    7  C13 UNL     1      24.451   0.981  52.419  1.00  0.00     0.029 A 
ENDROOT
BRANCH   1   8
HETATM    8  N2  UNL     1      22.368   0.086  53.419  1.00  0.00    -0.268 N 
HETATM    9  N1  UNL     1      21.234   0.255  52.662  1.00  0.00    -0.176 NA
HETATM   10  C6  UNL     1      20.227  -0.446  52.991  1.00  0.00     0.066 C 
HETATM   11  C18 UNL     1      20.686  -1.244  54.181  1.00  0.00     0.084 C 
HETATM   12  C17 UNL     1      21.728  -0.234  54.704  1.00  0.00     0.157 C 
BRANCH  10  13
HETATM   13  C5  UNL     1      18.879  -0.557  52.456  1.00  0.00    -0.010 A 
HETATM   14  C4  UNL     1      18.500   0.021  51.263  1.00  0.00     0.014 A 
HETATM   15  C3  UNL     1      17.228  -0.084  50.748  1.00  0.00     0.007 A 
HETATM   16  C2  UNL     1      16.260  -0.794  51.429  1.00  0.00    -0.062 A 
HETATM   17  C1  UNL     1      14.887  -0.908  50.876  1.00  0.00     0.048 C 
HETATM   18  C20 UNL     1      16.581  -1.395  52.628  1.00  0.00     0.007 A 
HETATM   19  C19 UNL     1      17.873  -1.252  53.089  1.00  0.00     0.014 A 
ENDBRANCH  10  13
ENDBRANCH   1   8
BRANCH   7  20
HETATM   20  C14 UNL     1      23.585   1.803  51.498  1.00  0.00     0.113 A 
HETATM   21  N3  UNL     1      23.082   1.828  50.504  1.00  0.00    -0.216 NA
HETATM   22  C15 UNL     1      22.343   2.712  49.878  1.00  0.00     0.169 A 
HETATM   23  C16 UNL     1      22.143   3.914  50.654  1.00  0.00     0.109 A 
HETATM   24  S1  UNL     1      23.121   3.476  52.202  1.00  0.00    -0.077 SA
BRANCH  22  25
HETATM   25  O1  UNL     1      21.816   2.511  48.609  1.00  0.00    -0.344 OA
HETATM   26  H12 UNL     1      21.419   1.610  48.324  1.00  0.00     0.219 HD
ENDBRANCH  22  25
ENDBRANCH   7  20
TORSDOF 4
ENDMDL
MODEL 8
REMARK VINA RESULT:      -8.0      3.039      4.190
REMARK  4 active torsions:
REMARK  status: ('A' for Active; 'I' for Inactive)
REMARK    1  A    between atoms: C5_5  and  C6_6 
REMARK    2  A    between atoms: N2_8  and  C7_9 
REMARK    3  A    between atoms: C13_15  and  C14_16 
REMARK    4  A    between atoms: C15_18  and  O1_19 
ROOT
HETATM    1  C7  UNL     1      22.318   1.927  52.223  1.00  0.00     0.066 A 
HETATM    2  C8  UNL     1      22.425   1.176  53.380  1.00  0.00     0.033 A 
HETATM    3  C9  UNL     1      21.559   0.172  53.745  1.00  0.00     0.009 A 
HETATM    4  C10 UNL     1      20.503  -0.119  52.911  1.00  0.00    -0.061 A 
HETATM    5  C11 UNL     1      19.526  -1.190  53.238  1.00  0.00     0.048 C 
HETATM    6  C12 UNL     1      20.380   0.617  51.757  1.00  0.00     0.023 A 
HETATM    7  C13 UNL     1      21.253   1.615  51.410  1.00  0.00     0.029 A 
ENDROOT
BRANCH   1   8
HETATM    8  N2  UNL     1      23.296   2.913  51.937  1.00  0.00    -0.268 N 
HETATM    9  N1  UNL     1      24.377   3.115  51.114  1.00  0.00    -0.176 NA
HETATM   10  C6  UNL     1      24.613   4.318  50.778  1.00  0.00     0.066 C 
HETATM   11  C18 UNL     1      23.550   5.127  51.471  1.00  0.00     0.084 C 
HETATM   12  C17 UNL     1      23.341   4.185  52.675  1.00  0.00     0.157 C 
BRANCH  10  13
HETATM   13  C5  UNL     1      25.634   4.932  49.944  1.00  0.00    -0.010 A 
HETATM   14  C4  UNL     1      25.638   6.277  49.638  1.00  0.00     0.014 A 
HETATM   15  C3  UNL     1      26.603   6.866  48.854  1.00  0.00     0.007 A 
HETATM   16  C2  UNL     1      27.631   6.108  48.332  1.00  0.00    -0.062 A 
HETATM   17  C1  UNL     1      28.673   6.742  47.486  1.00  0.00     0.048 C 
HETATM   18  C20 UNL     1      27.680   4.757  48.603  1.00  0.00     0.007 A 
HETATM   19  C19 UNL     1      26.683   4.229  49.395  1.00  0.00     0.014 A 
ENDBRANCH  10  13
ENDBRANCH   1   8
BRANCH   7  20
HETATM   20  C14 UNL     1      21.115   2.449  50.162  1.00  0.00     0.113 A 
HETATM   21  N3  UNL     1      20.792   3.436  49.759  1.00  0.00    -0.216 NA
HETATM   22  C15 UNL     1      20.756   3.964  48.559  1.00  0.00     0.169 A 
HETATM   23  C16 UNL     1      21.244   3.060  47.542  1.00  0.00     0.109 A 
HETATM   24  S1  UNL     1      21.670   1.565  48.606  1.00  0.00    -0.077 SA
BRANCH  22  25
HETATM   25  O1  UNL     1      20.298   5.248  48.298  1.00  0.00    -0.344 OA
HETATM   26  H12 UNL     1      20.920   5.985  47.950  1.00  0.00     0.219 HD
ENDBRANCH  22  25
ENDBRANCH   7  20
TORSDOF 4
ENDMDL
MODEL 9
REMARK VINA RESULT:      -8.0      3.744      6.237
REMARK  4 active torsions:
REMARK  status: ('A' for Active; 'I' for Inactive)
REMARK    1  A    between atoms: C5_5  and  C6_6 
REMARK    2  A    between atoms: N2_8  and  C7_9 
REMARK    3  A    between atoms: C13_15  and  C14_16 
REMARK    4  A    between atoms: C15_18  and  O1_19 
ROOT
HETATM    1  C7  UNL     1      21.954   2.318  50.363  1.00  0.00     0.066 A 
HETATM    2  C8  UNL     1      22.180   3.057  49.216  1.00  0.00     0.033 A 
HETATM    3  C9  UNL     1      21.218   3.372  48.285  1.00  0.00     0.009 A 
HETATM    4  C10 UNL     1      19.932   2.927  48.494  1.00  0.00    -0.061 A 
HETATM    5  C11 UNL     1      18.840   3.227  47.533  1.00  0.00     0.048 C 
HETATM    6  C12 UNL     1      19.689   2.190  49.628  1.00  0.00     0.023 A 
HETATM    7  C13 UNL     1      20.661   1.885  50.545  1.00  0.00     0.029 A 
ENDROOT
BRANCH   1   8
HETATM    8  N2  UNL     1      23.021   2.089  51.269  1.00  0.00    -0.268 N 
HETATM    9  N1  UNL     1      23.942   1.120  51.588  1.00  0.00    -0.176 NA
HETATM   10  C6  UNL     1      25.051   1.529  52.055  1.00  0.00     0.066 C 
HETATM   11  C18 UNL     1      24.920   3.028  52.101  1.00  0.00     0.084 C 
HETATM   12  C17 UNL     1      23.390   3.085  52.287  1.00  0.00     0.157 C 
BRANCH  10  13
HETATM   13  C5  UNL     1      26.253   0.841  52.500  1.00  0.00    -0.010 A 
HETATM   14  C4  UNL     1      27.340   1.505  53.029  1.00  0.00     0.014 A 
HETATM   15  C3  UNL     1      28.478   0.862  53.457  1.00  0.00     0.007 A 
HETATM   16  C2  UNL     1      28.572  -0.512  53.371  1.00  0.00    -0.062 A 
HETATM   17  C1  UNL     1      29.799  -1.209  53.833  1.00  0.00     0.048 C 
HETATM   18  C20 UNL     1      27.516  -1.231  52.852  1.00  0.00     0.007 A 
HETATM   19  C19 UNL     1      26.405  -0.526  52.440  1.00  0.00     0.014 A 
ENDBRANCH  10  13
ENDBRANCH   1   8
BRANCH   7  20
HETATM   20  C14 UNL     1      20.415   1.054  51.779  1.00  0.00     0.113 A 
HETATM   21  N3  UNL     1      20.793   0.804  52.797  1.00  0.00    -0.216 NA
HETATM   22  C15 UNL     1      20.390  -0.008  53.745  1.00  0.00     0.169 A 
HETATM   23  C16 UNL     1      19.193  -0.731  53.382  1.00  0.00     0.109 A 
HETATM   24  S1  UNL     1      18.900  -0.040  51.655  1.00  0.00    -0.077 SA
BRANCH  22  25
HETATM   25  O1  UNL     1      21.045  -0.153  54.960  1.00  0.00    -0.344 OA
HETATM   26  H12 UNL     1      20.537  -0.173  55.851  1.00  0.00     0.219 HD
ENDBRANCH  22  25
ENDBRANCH   7  20
TORSDOF 4
ENDMDL
