MODEL 1
REMARK VINA RESULT:      -7.8      0.000      0.000
REMARK  0 active torsions:
REMARK  status: ('A' for Active; 'I' for Inactive)
ROOT
HETATM    1  O1  UNL     1      22.977   5.273  50.327  1.00  0.00    -0.227 OA
HETATM    2  S1  UNL     1      24.015   4.201  50.634  1.00  0.00     0.151 S 
HETATM    3  O2  UNL     1      25.311   4.927  50.752  1.00  0.00    -0.227 OA
HETATM    4  C1  UNL     1      24.011   3.059  49.325  1.00  0.00     0.170 C 
HETATM    5  C2  UNL     1      22.726   2.511  48.839  1.00  0.00     0.284 C 
HETATM    6  N1  UNL     1      21.761   2.084  49.833  1.00  0.00     0.090 N 
HETATM    7  C3  UNL     1      20.741   1.364  49.063  1.00  0.00     0.333 C 
HETATM    8  C4  UNL     1      19.497   1.144  49.813  1.00  0.00     0.072 C 
HETATM    9  C5  UNL     1      18.417   0.914  50.555  1.00  0.00     0.010 C 
HETATM   10  C6  UNL     1      18.509  -0.199  51.551  1.00  0.00     0.072 C 
HETATM   11  C7  UNL     1      19.958   0.131  51.894  1.00  0.00     0.111 C 
HETATM   12  C8  UNL     1      20.998   0.214  52.659  1.00  0.00     0.057 C 
HETATM   13  C9  UNL     1      21.829   0.116  53.821  1.00  0.00    -0.017 C 
HETATM   14  C10 UNL     1      23.079   0.546  53.636  1.00  0.00     0.010 C 
HETATM   15  C11 UNL     1      24.321   1.087  53.061  1.00  0.00    -0.009 C 
HETATM   16  C12 UNL     1      24.307   2.334  52.507  1.00  0.00     0.060 C 
HETATM   17  C13 UNL     1      23.478   3.493  52.188  1.00  0.00     0.200 C 
HETATM   18  N2  UNL     1      25.669   2.533  52.359  1.00  0.00    -0.245 NA
HETATM   19  C14 UNL     1      26.801   2.176  52.001  1.00  0.00     0.234 C 
HETATM   20  N3  UNL     1      26.579   0.830  51.440  1.00  0.00    -0.240 NA
HETATM   21  C15 UNL     1      26.270  -0.174  52.226  1.00  0.00     0.087 C 
HETATM   22  C16 UNL     1      25.305  -0.066  53.127  1.00  0.00     0.047 C 
HETATM   23  O3  UNL     1      20.438   0.614  50.758  1.00  0.00    -0.339 OA
HETATM   24  H5  UNL     1      21.281   2.999  50.127  1.00  0.00     0.316 HD
ENDROOT
TORSDOF 0
ENDMDL
MODEL 2
REMARK VINA RESULT:      -7.6      3.219      6.189
REMARK  0 active torsions:
REMARK  status: ('A' for Active; 'I' for Inactive)
ROOT
HETATM    1  O1  UNL     1      20.870   4.205  49.634  1.00  0.00    -0.227 OA
HETATM    2  S1  UNL     1      21.864   3.552  50.587  1.00  0.00     0.151 S 
HETATM    3  O2  UNL     1      21.199   2.305  51.059  1.00  0.00    -0.227 OA
HETATM    4  C1  UNL     1      22.177   4.669  51.881  1.00  0.00     0.170 C 
HETATM    5  C2  UNL     1      22.502   6.077  51.568  1.00  0.00     0.284 C 
HETATM    6  N1  UNL     1      23.450   6.324  50.499  1.00  0.00     0.090 N 
HETATM    7  C3  UNL     1      23.757   7.755  50.608  1.00  0.00     0.333 C 
HETATM    8  C4  UNL     1      24.424   8.297  49.419  1.00  0.00     0.072 C 
HETATM    9  C5  UNL     1      25.084   8.725  48.345  1.00  0.00     0.010 C 
HETATM   10  C6  UNL     1      26.538   8.378  48.266  1.00  0.00     0.072 C 
HETATM   11  C7  UNL     1      26.315   6.995  48.869  1.00  0.00     0.111 C 
HETATM   12  C8  UNL     1      26.550   5.735  49.047  1.00  0.00     0.057 C 
HETATM   13  C9  UNL     1      27.160   4.446  48.919  1.00  0.00    -0.017 C 
HETATM   14  C10 UNL     1      26.597   3.500  49.675  1.00  0.00     0.010 C 
HETATM   15  C11 UNL     1      25.743   2.762  50.619  1.00  0.00    -0.009 C 
HETATM   16  C12 UNL     1      24.394   2.747  50.419  1.00  0.00     0.060 C 
HETATM   17  C13 UNL     1      23.303   3.225  49.575  1.00  0.00     0.200 C 
HETATM   18  N2  UNL     1      24.040   1.760  51.325  1.00  0.00    -0.245 NA
HETATM   19  C14 UNL     1      24.075   1.232  52.445  1.00  0.00     0.234 C 
HETATM   20  N3  UNL     1      24.962   2.120  53.220  1.00  0.00    -0.240 NA
HETATM   21  C15 UNL     1      26.247   2.168  52.960  1.00  0.00     0.087 C 
HETATM   22  C16 UNL     1      26.688   2.317  51.720  1.00  0.00     0.047 C 
HETATM   23  O3  UNL     1      25.285   7.179  49.681  1.00  0.00    -0.339 OA
HETATM   24  H5  UNL     1      22.853   6.244  49.609  1.00  0.00     0.316 HD
ENDROOT
TORSDOF 0
ENDMDL
MODEL 3
REMARK VINA RESULT:      -7.5      3.276      5.105
REMARK  0 active torsions:
REMARK  status: ('A' for Active; 'I' for Inactive)
ROOT
HETATM    1  O1  UNL     1      17.845   3.893  52.178  1.00  0.00    -0.227 OA
HETATM    2  S1  UNL     1      18.616   3.733  50.873  1.00  0.00     0.151 S 
HETATM    3  O2  UNL     1      18.099   4.803  49.975  1.00  0.00    -0.227 OA
HETATM    4  C1  UNL     1      18.301   2.139  50.256  1.00  0.00     0.170 C 
HETATM    5  C2  UNL     1      18.420   0.972  51.156  1.00  0.00     0.284 C 
HETATM    6  N1  UNL     1      19.577   0.914  52.028  1.00  0.00     0.090 N 
HETATM    7  C3  UNL     1      19.549  -0.446  52.580  1.00  0.00     0.333 C 
HETATM    8  C4  UNL     1      20.423  -0.615  53.748  1.00  0.00     0.072 C 
HETATM    9  C5  UNL     1      21.276  -0.734  54.762  1.00  0.00     0.010 C 
HETATM   10  C6  UNL     1      22.725  -0.863  54.410  1.00  0.00     0.072 C 
HETATM   11  C7  UNL     1      22.608   0.129  53.258  1.00  0.00     0.111 C 
HETATM   12  C8  UNL     1      23.022   1.051  52.450  1.00  0.00     0.057 C 
HETATM   13  C9  UNL     1      23.883   2.010  51.826  1.00  0.00    -0.017 C 
HETATM   14  C10 UNL     1      23.318   2.673  50.813  1.00  0.00     0.010 C 
HETATM   15  C11 UNL     1      22.383   3.171  49.792  1.00  0.00    -0.009 C 
HETATM   16  C12 UNL     1      21.186   3.692  50.189  1.00  0.00     0.060 C 
HETATM   17  C13 UNL     1      20.327   3.985  51.332  1.00  0.00     0.200 C 
HETATM   18  N2  UNL     1      20.779   4.261  48.993  1.00  0.00    -0.245 NA
HETATM   19  C14 UNL     1      20.579   4.226  47.770  1.00  0.00     0.234 C 
HETATM   20  N3  UNL     1      21.000   2.865  47.387  1.00  0.00    -0.240 NA
HETATM   21  C15 UNL     1      22.268   2.531  47.413  1.00  0.00     0.087 C 
HETATM   22  C16 UNL     1      23.023   2.787  48.471  1.00  0.00     0.047 C 
HETATM   23  O3  UNL     1      21.367  -0.046  52.829  1.00  0.00    -0.339 OA
HETATM   24  H5  UNL     1      19.302   1.545  52.853  1.00  0.00     0.316 HD
ENDROOT
TORSDOF 0
ENDMDL
MODEL 4
REMARK VINA RESULT:      -7.4      2.471      6.073
REMARK  0 active torsions:
REMARK  status: ('A' for Active; 'I' for Inactive)
ROOT
HETATM    1  O1  UNL     1      20.793   1.357  54.268  1.00  0.00    -0.227 OA
HETATM    2  S1  UNL     1      20.781   1.324  52.744  1.00  0.00     0.151 S 
HETATM    3  O2  UNL     1      19.356   1.513  52.356  1.00  0.00    -0.227 OA
HETATM    4  C1  UNL     1      21.409  -0.215  52.237  1.00  0.00     0.170 C 
HETATM    5  C2  UNL     1      22.668  -0.720  52.826  1.00  0.00     0.284 C 
HETATM    6  N1  UNL     1      23.770   0.214  52.953  1.00  0.00     0.090 N 
HETATM    7  C3  UNL     1      24.920  -0.626  53.307  1.00  0.00     0.333 C 
HETATM    8  C4  UNL     1      26.061   0.140  53.823  1.00  0.00     0.072 C 
HETATM    9  C5  UNL     1      27.088   0.885  54.223  1.00  0.00     0.010 C 
HETATM   10  C6  UNL     1      27.872   1.580  53.154  1.00  0.00     0.072 C 
HETATM   11  C7  UNL     1      26.624   1.883  52.334  1.00  0.00     0.111 C 
HETATM   12  C8  UNL     1      25.885   2.566  51.519  1.00  0.00     0.057 C 
HETATM   13  C9  UNL     1      25.465   3.607  50.631  1.00  0.00    -0.017 C 
HETATM   14  C10 UNL     1      24.238   3.437  50.132  1.00  0.00     0.010 C 
HETATM   15  C11 UNL     1      22.902   2.915  49.804  1.00  0.00    -0.009 C 
HETATM   16  C12 UNL     1      22.018   2.675  50.816  1.00  0.00     0.060 C 
HETATM   17  C13 UNL     1      21.817   2.701  52.261  1.00  0.00     0.200 C 
HETATM   18  N2  UNL     1      20.868   2.477  50.070  1.00  0.00    -0.245 NA
HETATM   19  C14 UNL     1      20.237   1.961  49.136  1.00  0.00     0.234 C 
HETATM   20  N3  UNL     1      21.242   1.117  48.463  1.00  0.00    -0.240 NA
HETATM   21  C15 UNL     1      22.225   1.663  47.789  1.00  0.00     0.087 C 
HETATM   22  C16 UNL     1      22.959   2.634  48.314  1.00  0.00     0.047 C 
HETATM   23  O3  UNL     1      25.826   0.861  52.604  1.00  0.00    -0.339 OA
HETATM   24  H5  UNL     1      23.542   0.751  53.855  1.00  0.00     0.316 HD
ENDROOT
TORSDOF 0
ENDMDL
MODEL 5
REMARK VINA RESULT:      -7.4      3.959      7.129
REMARK  0 active torsions:
REMARK  status: ('A' for Active; 'I' for Inactive)
ROOT
HETATM    1  O1  UNL     1      22.252   7.657  47.926  1.00  0.00    -0.227 OA
HETATM    2  S1  UNL     1      22.314   6.876  49.233  1.00  0.00     0.151 S 
HETATM    3  O2  UNL     1      20.895   6.679  49.643  1.00  0.00    -0.227 OA
HETATM    4  C1  UNL     1      23.211   7.822  50.380  1.00  0.00     0.170 C 
HETATM    5  C2  UNL     1      24.509   8.410  49.985  1.00  0.00     0.284 C 
HETATM    6  N1  UNL     1      25.433   7.565  49.255  1.00  0.00     0.090 N 
HETATM    7  C3  UNL     1      26.690   8.321  49.246  1.00  0.00     0.333 C 
HETATM    8  C4  UNL     1      27.663   7.818  48.269  1.00  0.00     0.072 C 
HETATM    9  C5  UNL     1      28.533   7.285  47.414  1.00  0.00     0.010 C 
HETATM   10  C6  UNL     1      29.237   6.041  47.859  1.00  0.00     0.072 C 
HETATM   11  C7  UNL     1      27.993   5.499  48.554  1.00  0.00     0.111 C 
HETATM   12  C8  UNL     1      27.188   4.580  48.981  1.00  0.00     0.057 C 
HETATM   13  C9  UNL     1      26.640   3.284  49.246  1.00  0.00    -0.017 C 
HETATM   14  C10 UNL     1      25.482   3.307  49.911  1.00  0.00     0.010 C 
HETATM   15  C11 UNL     1      24.268   3.728  50.628  1.00  0.00    -0.009 C 
HETATM   16  C12 UNL     1      23.393   4.571  50.008  1.00  0.00     0.060 C 
HETATM   17  C13 UNL     1      23.125   5.342  48.797  1.00  0.00     0.200 C 
HETATM   18  N2  UNL     1      22.325   4.476  50.886  1.00  0.00    -0.245 NA
HETATM   19  C14 UNL     1      21.832   4.487  52.023  1.00  0.00     0.234 C 
HETATM   20  N3  UNL     1      22.992   4.719  52.903  1.00  0.00    -0.240 NA
HETATM   21  C15 UNL     1      23.900   3.786  53.066  1.00  0.00     0.087 C 
HETATM   22  C16 UNL     1      24.437   3.165  52.026  1.00  0.00     0.047 C 
HETATM   23  O3  UNL     1      27.366   6.594  48.955  1.00  0.00    -0.339 OA
HETATM   24  H5  UNL     1      25.079   7.621  48.242  1.00  0.00     0.316 HD
ENDROOT
TORSDOF 0
ENDMDL
MODEL 6
REMARK VINA RESULT:      -7.1      2.780      5.653
REMARK  0 active torsions:
REMARK  status: ('A' for Active; 'I' for Inactive)
ROOT
HETATM    1  O1  UNL     1      27.095   2.426  53.893  1.00  0.00    -0.227 OA
HETATM    2  S1  UNL     1      25.848   1.649  53.488  1.00  0.00     0.151 S 
HETATM    3  O2  UNL     1      25.652   0.631  54.559  1.00  0.00    -0.227 OA
HETATM    4  C1  UNL     1      26.145   0.930  51.935  1.00  0.00     0.170 C 
HETATM    5  C2  UNL     1      26.703   1.757  50.843  1.00  0.00     0.284 C 
HETATM    6  N1  UNL     1      26.135   3.077  50.645  1.00  0.00     0.090 N 
HETATM    7  C3  UNL     1      26.693   3.524  49.364  1.00  0.00     0.333 C 
HETATM    8  C4  UNL     1      26.531   4.965  49.133  1.00  0.00     0.072 C 
HETATM    9  C5  UNL     1      26.303   6.263  48.943  1.00  0.00     0.010 C 
HETATM   10  C6  UNL     1      24.920   6.648  48.523  1.00  0.00     0.072 C 
HETATM   11  C7  UNL     1      24.276   5.598  49.421  1.00  0.00     0.111 C 
HETATM   12  C8  UNL     1      23.353   5.104  50.182  1.00  0.00     0.057 C 
HETATM   13  C9  UNL     1      22.127   4.986  50.912  1.00  0.00    -0.017 C 
HETATM   14  C10 UNL     1      21.999   3.838  51.583  1.00  0.00     0.010 C 
HETATM   15  C11 UNL     1      22.218   2.502  52.159  1.00  0.00    -0.009 C 
HETATM   16  C12 UNL     1      23.328   2.283  52.921  1.00  0.00     0.060 C 
HETATM   17  C13 UNL     1      24.548   2.878  53.459  1.00  0.00     0.200 C 
HETATM   18  N2  UNL     1      22.997   1.048  53.455  1.00  0.00    -0.245 NA
HETATM   19  C14 UNL     1      22.596  -0.121  53.358  1.00  0.00     0.234 C 
HETATM   20  N3  UNL     1      22.326  -0.276  51.916  1.00  0.00    -0.240 NA
HETATM   21  C15 UNL     1      21.318   0.349  51.358  1.00  0.00     0.087 C 
HETATM   22  C16 UNL     1      21.121   1.644  51.557  1.00  0.00     0.047 C 
HETATM   23  O3  UNL     1      25.172   4.623  49.442  1.00  0.00    -0.339 OA
HETATM   24  H5  UNL     1      26.635   3.679  51.381  1.00  0.00     0.316 HD
ENDROOT
TORSDOF 0
ENDMDL
MODEL 7
REMARK VINA RESULT:      -7.0      7.469     10.427
REMARK  0 active torsions:
REMARK  status: ('A' for Active; 'I' for Inactive)
ROOT
HETATM    1  O1  UNL     1      28.108  10.980  45.917  1.00  0.00    -0.227 OA
HETATM    2  S1  UNL     1      27.162  10.389  46.956  1.00  0.00     0.151 S 
HETATM    3  O2  UNL     1      25.822  10.959  46.640  1.00  0.00    -0.227 OA
HETATM    4  C1  UNL     1      27.731  10.862  48.528  1.00  0.00     0.170 C 
HETATM    5  C2  UNL     1      29.159  10.691  48.870  1.00  0.00     0.284 C 
HETATM    6  N1  UNL     1      29.790   9.438  48.503  1.00  0.00     0.090 N 
HETATM    7  C3  UNL     1      31.085   9.467  49.194  1.00  0.00     0.333 C 
HETATM    8  C4  UNL     1      32.032   8.463  48.692  1.00  0.00     0.072 C 
HETATM    9  C5  UNL     1      32.830   7.496  48.246  1.00  0.00     0.010 C 
HETATM   10  C6  UNL     1      32.550   6.112  48.741  1.00  0.00     0.072 C 
HETATM   11  C7  UNL     1      31.041   6.321  48.694  1.00  0.00     0.111 C 
HETATM   12  C8  UNL     1      29.805   5.965  48.547  1.00  0.00     0.057 C 
HETATM   13  C9  UNL     1      28.659   5.141  48.310  1.00  0.00    -0.017 C 
HETATM   14  C10 UNL     1      27.496   5.794  48.373  1.00  0.00     0.010 C 
HETATM   15  C11 UNL     1      26.455   6.823  48.523  1.00  0.00    -0.009 C 
HETATM   16  C12 UNL     1      26.501   7.932  47.729  1.00  0.00     0.060 C 
HETATM   17  C13 UNL     1      27.244   8.623  46.679  1.00  0.00     0.200 C 
HETATM   18  N2  UNL     1      25.247   8.456  47.998  1.00  0.00    -0.245 NA
HETATM   19  C14 UNL     1      24.346   8.810  48.772  1.00  0.00     0.234 C 
HETATM   20  N3  UNL     1      24.898   8.512  50.107  1.00  0.00    -0.240 NA
HETATM   21  C15 UNL     1      25.051   7.270  50.501  1.00  0.00     0.087 C 
HETATM   22  C16 UNL     1      25.648   6.376  49.727  1.00  0.00     0.047 C 
HETATM   23  O3  UNL     1      30.904   7.614  48.949  1.00  0.00    -0.339 OA
HETATM   24  H5  UNL     1      30.036   9.573  47.466  1.00  0.00     0.316 HD
ENDROOT
TORSDOF 0
ENDMDL
MODEL 8
REMARK VINA RESULT:      -7.0      7.840     10.076
REMARK  0 active torsions:
REMARK  status: ('A' for Active; 'I' for Inactive)
ROOT
HETATM    1  O1  UNL     1      28.054  11.227  49.355  1.00  0.00    -0.227 OA
HETATM    2  S1  UNL     1      28.820  10.894  48.080  1.00  0.00     0.151 S 
HETATM    3  O2  UNL     1      29.576  12.132  47.738  1.00  0.00    -0.227 OA
HETATM    4  C1  UNL     1      27.663  10.463  46.857  1.00  0.00     0.170 C 
HETATM    5  C2  UNL     1      26.596   9.490  47.172  1.00  0.00     0.284 C 
HETATM    6  N1  UNL     1      26.974   8.293  47.898  1.00  0.00     0.090 N 
HETATM    7  C3  UNL     1      25.789   7.431  47.822  1.00  0.00     0.333 C 
HETATM    8  C4  UNL     1      25.820   6.317  48.778  1.00  0.00     0.072 C 
HETATM    9  C5  UNL     1      25.925   5.289  49.617  1.00  0.00     0.010 C 
HETATM   10  C6  UNL     1      26.819   4.166  49.195  1.00  0.00     0.072 C 
HETATM   11  C7  UNL     1      27.840   5.114  48.577  1.00  0.00     0.111 C 
HETATM   12  C8  UNL     1      29.022   5.506  48.222  1.00  0.00     0.057 C 
HETATM   13  C9  UNL     1      30.441   5.510  48.035  1.00  0.00    -0.017 C 
HETATM   14  C10 UNL     1      30.907   6.599  47.419  1.00  0.00     0.010 C 
HETATM   15  C11 UNL     1      31.032   7.897  46.737  1.00  0.00    -0.009 C 
HETATM   16  C12 UNL     1      30.562   9.019  47.357  1.00  0.00     0.060 C 
HETATM   17  C13 UNL     1      29.891   9.538  48.545  1.00  0.00     0.200 C 
HETATM   18  N2  UNL     1      31.113   9.983  46.530  1.00  0.00    -0.245 NA
HETATM   19  C14 UNL     1      31.357  10.467  45.415  1.00  0.00     0.234 C 
HETATM   20  N3  UNL     1      30.741   9.510  44.478  1.00  0.00    -0.240 NA
HETATM   21  C15 UNL     1      31.255   8.314  44.316  1.00  0.00     0.087 C 
HETATM   22  C16 UNL     1      31.560   7.553  45.357  1.00  0.00     0.047 C 
HETATM   23  O3  UNL     1      27.099   6.128  48.156  1.00  0.00    -0.339 OA
HETATM   24  H5  UNL     1      27.005   8.618  48.922  1.00  0.00     0.316 HD
ENDROOT
TORSDOF 0
ENDMDL
MODEL 9
REMARK VINA RESULT:      -6.9      3.989      7.267
REMARK  0 active torsions:
REMARK  status: ('A' for Active; 'I' for Inactive)
ROOT
HETATM    1  O1  UNL     1      19.251   2.236  48.637  1.00  0.00    -0.227 OA
HETATM    2  S1  UNL     1      17.972   2.308  49.463  1.00  0.00     0.151 S 
HETATM    3  O2  UNL     1      16.930   2.827  48.533  1.00  0.00    -0.227 OA
HETATM    4  C1  UNL     1      18.259   3.377  50.802  1.00  0.00     0.170 C 
HETATM    5  C2  UNL     1      19.478   3.209  51.622  1.00  0.00     0.284 C 
HETATM    6  N1  UNL     1      19.842   1.862  52.015  1.00  0.00     0.090 N 
HETATM    7  C3  UNL     1      20.904   2.047  53.009  1.00  0.00     0.333 C 
HETATM    8  C4  UNL     1      21.658   0.818  53.287  1.00  0.00     0.072 C 
HETATM    9  C5  UNL     1      22.269  -0.335  53.551  1.00  0.00     0.010 C 
HETATM   10  C6  UNL     1      21.543  -1.292  54.443  1.00  0.00     0.072 C 
HETATM   11  C7  UNL     1      20.189  -0.945  53.835  1.00  0.00     0.111 C 
HETATM   12  C8  UNL     1      18.973  -1.176  53.457  1.00  0.00     0.057 C 
HETATM   13  C9  UNL     1      17.744  -1.871  53.219  1.00  0.00    -0.017 C 
HETATM   14  C10 UNL     1      16.800  -1.126  52.636  1.00  0.00     0.010 C 
HETATM   15  C11 UNL     1      16.046  -0.025  52.017  1.00  0.00    -0.009 C 
HETATM   16  C12 UNL     1      16.553   0.580  50.904  1.00  0.00     0.060 C 
HETATM   17  C13 UNL     1      17.669   0.617  49.964  1.00  0.00     0.200 C 
HETATM   18  N2  UNL     1      15.444   1.318  50.522  1.00  0.00    -0.245 NA
HETATM   19  C14 UNL     1      14.507   2.095  50.754  1.00  0.00     0.234 C 
HETATM   20  N3  UNL     1      14.639   2.378  52.196  1.00  0.00    -0.240 NA
HETATM   21  C15 UNL     1      14.379   1.447  53.083  1.00  0.00     0.087 C 
HETATM   22  C16 UNL     1      14.896   0.232  52.971  1.00  0.00     0.047 C 
HETATM   23  O3  UNL     1      20.326   0.326  53.489  1.00  0.00    -0.339 OA
HETATM   24  H5  UNL     1      20.347   1.475  51.150  1.00  0.00     0.316 HD
ENDROOT
TORSDOF 0
ENDMDL
