MODEL 1
REMARK VINA RESULT:      -9.1      0.000      0.000
REMARK  2 active torsions:
REMARK  status: ('A' for Active; 'I' for Inactive)
REMARK    1  A    between atoms: C5_5  and  C6_6 
REMARK    2  A    between atoms: C8_11  and  O1_12 
ROOT
HETATM    1  C6  UNL     1      24.502   1.191  53.372  1.00  0.00     0.069 C 
HETATM    2  N1  UNL     1      23.328   0.803  53.711  1.00  0.00    -0.177 NA
HETATM    3  N2  UNL     1      22.981  -0.435  54.230  1.00  0.00    -0.271 N 
HETATM    4  C7  UNL     1      21.552  -0.265  54.122  1.00  0.00     0.228 C 
HETATM    5  N3  UNL     1      20.812  -0.699  53.146  1.00  0.00    -0.219 NA
HETATM    6  C8  UNL     1      19.405  -0.514  53.069  1.00  0.00     0.163 C 
HETATM    7  C9  UNL     1      18.835   0.448  52.321  1.00  0.00     0.069 C 
HETATM    8  C10 UNL     1      19.996   1.105  51.730  1.00  0.00    -0.032 A 
HETATM    9  C11 UNL     1      20.781   0.428  50.813  1.00  0.00     0.012 A 
HETATM   10  C12 UNL     1      21.882   1.052  50.253  1.00  0.00     0.008 A 
HETATM   11  C13 UNL     1      22.191   2.350  50.614  1.00  0.00    -0.054 A 
HETATM   12  C14 UNL     1      21.407   3.024  51.529  1.00  0.00     0.008 A 
HETATM   13  C15 UNL     1      20.306   2.402  52.090  1.00  0.00     0.012 A 
HETATM   14  C16 UNL     1      23.374   3.021  50.016  1.00  0.00     0.070 C 
HETATM   15  P1  UNL     1      24.900   2.684  51.039  1.00  0.00    -0.119 P 
HETATM   16  C17 UNL     1      24.467   2.573  52.847  1.00  0.00     0.093 C 
HETATM   17  H6  UNL     1      22.830  -1.377  54.626  1.00  0.00     0.190 HD
HETATM   18  H16 UNL     1      25.361   1.354  50.660  1.00  0.00     0.058 HD
ENDROOT
BRANCH   1  19
HETATM   19  C5  UNL     1      25.801   0.526  53.403  1.00  0.00    -0.009 A 
HETATM   20  C4  UNL     1      26.849   1.013  54.154  1.00  0.00     0.014 A 
HETATM   21  C3  UNL     1      28.070   0.380  54.172  1.00  0.00     0.007 A 
HETATM   22  C2  UNL     1      28.327  -0.760  53.457  1.00  0.00    -0.062 A 
HETATM   23  C1  UNL     1      29.655  -1.406  53.507  1.00  0.00     0.048 C 
HETATM   24  C19 UNL     1      27.297  -1.271  52.696  1.00  0.00     0.007 A 
HETATM   25  C18 UNL     1      26.082  -0.621  52.693  1.00  0.00     0.014 A 
ENDBRANCH   1  19
BRANCH   6  26
HETATM   26  O1  UNL     1      18.682  -1.427  53.846  1.00  0.00    -0.345 OA
HETATM   27  H8  UNL     1      19.200  -1.788  54.655  1.00  0.00     0.219 HD
ENDBRANCH   6  26
TORSDOF 2
ENDMDL
MODEL 2
REMARK VINA RESULT:      -8.2      3.185      4.873
REMARK  2 active torsions:
REMARK  status: ('A' for Active; 'I' for Inactive)
REMARK    1  A    between atoms: C5_5  and  C6_6 
REMARK    2  A    between atoms: C8_11  and  O1_12 
ROOT
HETATM    1  C6  UNL     1      24.191   4.621  50.988  1.00  0.00     0.069 C 
HETATM    2  N1  UNL     1      24.105   3.721  51.897  1.00  0.00    -0.177 NA
HETATM    3  N2  UNL     1      25.131   2.914  52.364  1.00  0.00    -0.271 N 
HETATM    4  C7  UNL     1      24.299   2.018  53.132  1.00  0.00     0.228 C 
HETATM    5  N3  UNL     1      23.857   0.866  52.725  1.00  0.00    -0.219 NA
HETATM    6  C8  UNL     1      23.038   0.006  53.506  1.00  0.00     0.163 C 
HETATM    7  C9  UNL     1      21.704  -0.067  53.356  1.00  0.00     0.069 C 
HETATM    8  C10 UNL     1      21.463   0.895  52.284  1.00  0.00    -0.032 A 
HETATM    9  C11 UNL     1      21.931   0.638  51.007  1.00  0.00     0.012 A 
HETATM   10  C12 UNL     1      21.703   1.551  49.993  1.00  0.00     0.008 A 
HETATM   11  C13 UNL     1      21.008   2.715  50.262  1.00  0.00    -0.054 A 
HETATM   12  C14 UNL     1      20.543   2.969  51.536  1.00  0.00     0.008 A 
HETATM   13  C15 UNL     1      20.769   2.059  52.552  1.00  0.00     0.012 A 
HETATM   14  C16 UNL     1      20.764   3.697  49.174  1.00  0.00     0.070 C 
HETATM   15  P1  UNL     1      22.178   4.912  49.065  1.00  0.00    -0.119 P 
HETATM   16  C17 UNL     1      22.877   5.260  50.757  1.00  0.00     0.093 C 
HETATM   17  H6  UNL     1      25.963   2.376  52.655  1.00  0.00     0.190 HD
HETATM   18  H16 UNL     1      23.242   4.239  48.329  1.00  0.00     0.058 HD
ENDROOT
BRANCH   1  19
HETATM   19  C5  UNL     1      25.309   5.090  50.175  1.00  0.00    -0.009 A 
HETATM   20  C4  UNL     1      25.563   6.432  49.993  1.00  0.00     0.014 A 
HETATM   21  C3  UNL     1      26.617   6.860  49.220  1.00  0.00     0.007 A 
HETATM   22  C2  UNL     1      27.475   6.000  48.588  1.00  0.00    -0.062 A 
HETATM   23  C1  UNL     1      28.594   6.506  47.768  1.00  0.00     0.048 C 
HETATM   24  C19 UNL     1      27.246   4.650  48.752  1.00  0.00     0.007 A 
HETATM   25  C18 UNL     1      26.184   4.242  49.530  1.00  0.00     0.014 A 
ENDBRANCH   1  19
BRANCH   6  26
HETATM   26  O1  UNL     1      23.758  -0.749  54.440  1.00  0.00    -0.345 OA
HETATM   27  H8  UNL     1      23.632  -0.443  55.411  1.00  0.00     0.219 HD
ENDBRANCH   6  26
TORSDOF 2
ENDMDL
MODEL 3
REMARK VINA RESULT:      -8.0      4.566      6.308
REMARK  2 active torsions:
REMARK  status: ('A' for Active; 'I' for Inactive)
REMARK    1  A    between atoms: C5_5  and  C6_6 
REMARK    2  A    between atoms: C8_11  and  O1_12 
ROOT
HETATM    1  C6  UNL     1      25.672   2.588  50.798  1.00  0.00     0.069 C 
HETATM    2  N1  UNL     1      25.918   3.493  49.924  1.00  0.00    -0.177 NA
HETATM    3  N2  UNL     1      27.158   4.026  49.608  1.00  0.00    -0.271 N 
HETATM    4  C7  UNL     1      26.669   5.111  48.792  1.00  0.00     0.228 C 
HETATM    5  N3  UNL     1      26.479   6.332  49.196  1.00  0.00    -0.219 NA
HETATM    6  C8  UNL     1      25.994   7.379  48.367  1.00  0.00     0.163 C 
HETATM    7  C9  UNL     1      24.711   7.780  48.372  1.00  0.00     0.069 C 
HETATM    8  C10 UNL     1      24.117   6.894  49.369  1.00  0.00    -0.032 A 
HETATM    9  C11 UNL     1      24.480   7.009  50.700  1.00  0.00     0.012 A 
HETATM   10  C12 UNL     1      23.917   6.168  51.643  1.00  0.00     0.008 A 
HETATM   11  C13 UNL     1      22.994   5.217  51.249  1.00  0.00    -0.054 A 
HETATM   12  C14 UNL     1      22.633   5.105  49.922  1.00  0.00     0.008 A 
HETATM   13  C15 UNL     1      23.194   5.944  48.976  1.00  0.00     0.012 A 
HETATM   14  C16 UNL     1      22.389   4.311  52.261  1.00  0.00     0.070 C 
HETATM   15  P1  UNL     1      23.438   2.781  52.473  1.00  0.00    -0.119 P 
HETATM   16  C17 UNL     1      24.223   2.293  50.856  1.00  0.00     0.093 C 
HETATM   17  H6  UNL     1      28.125   4.343  49.434  1.00  0.00     0.190 HD
HETATM   18  H16 UNL     1      24.540   3.158  53.350  1.00  0.00     0.058 HD
ENDROOT
BRANCH   1  19
HETATM   19  C5  UNL     1      26.537   1.844  51.709  1.00  0.00    -0.009 A 
HETATM   20  C4  UNL     1      26.484   0.471  51.803  1.00  0.00     0.014 A 
HETATM   21  C3  UNL     1      27.301  -0.218  52.669  1.00  0.00     0.007 A 
HETATM   22  C2  UNL     1      28.210   0.401  53.485  1.00  0.00    -0.062 A 
HETATM   23  C1  UNL     1      29.068  -0.380  54.400  1.00  0.00     0.048 C 
HETATM   24  C19 UNL     1      28.286   1.776  53.413  1.00  0.00     0.007 A 
HETATM   25  C18 UNL     1      27.458   2.446  52.539  1.00  0.00     0.014 A 
ENDBRANCH   1  19
BRANCH   6  26
HETATM   26  O1  UNL     1      26.982   7.944  47.552  1.00  0.00    -0.345 OA
HETATM   27  H8  UNL     1      26.641   8.697  46.943  1.00  0.00     0.219 HD
ENDBRANCH   6  26
TORSDOF 2
ENDMDL
MODEL 4
REMARK VINA RESULT:      -7.6      4.313      6.740
REMARK  2 active torsions:
REMARK  status: ('A' for Active; 'I' for Inactive)
REMARK    1  A    between atoms: C5_5  and  C6_6 
REMARK    2  A    between atoms: C8_11  and  O1_12 
ROOT
HETATM    1  C6  UNL     1      23.035   2.486  50.450  1.00  0.00     0.069 C 
HETATM    2  N1  UNL     1      24.111   2.861  49.862  1.00  0.00    -0.177 NA
HETATM    3  N2  UNL     1      25.397   2.412  50.121  1.00  0.00    -0.271 N 
HETATM    4  C7  UNL     1      26.080   3.403  49.325  1.00  0.00     0.228 C 
HETATM    5  N3  UNL     1      26.599   4.506  49.777  1.00  0.00    -0.219 NA
HETATM    6  C8  UNL     1      27.267   5.463  48.966  1.00  0.00     0.163 C 
HETATM    7  C9  UNL     1      26.674   6.588  48.526  1.00  0.00     0.069 C 
HETATM    8  C10 UNL     1      25.334   6.471  49.094  1.00  0.00    -0.032 A 
HETATM    9  C11 UNL     1      25.156   6.545  50.464  1.00  0.00     0.012 A 
HETATM   10  C12 UNL     1      23.885   6.434  51.001  1.00  0.00     0.008 A 
HETATM   11  C13 UNL     1      22.801   6.248  50.163  1.00  0.00    -0.054 A 
HETATM   12  C14 UNL     1      22.982   6.174  48.797  1.00  0.00     0.008 A 
HETATM   13  C15 UNL     1      24.251   6.286  48.257  1.00  0.00     0.012 A 
HETATM   14  C16 UNL     1      21.436   6.126  50.738  1.00  0.00     0.070 C 
HETATM   15  P1  UNL     1      21.058   4.342  51.142  1.00  0.00    -0.119 P 
HETATM   16  C17 UNL     1      21.862   3.204  49.905  1.00  0.00     0.093 C 
HETATM   17  H6  UNL     1      26.308   2.000  50.375  1.00  0.00     0.190 HD
HETATM   18  H16 UNL     1      21.708   4.063  52.417  1.00  0.00     0.058 HD
ENDROOT
BRANCH   1  19
HETATM   19  C5  UNL     1      22.786   1.526  51.521  1.00  0.00    -0.009 A 
HETATM   20  C4  UNL     1      21.764   0.605  51.449  1.00  0.00     0.014 A 
HETATM   21  C3  UNL     1      21.537  -0.291  52.468  1.00  0.00     0.007 A 
HETATM   22  C2  UNL     1      22.298  -0.333  53.605  1.00  0.00    -0.062 A 
HETATM   23  C1  UNL     1      22.017  -1.314  54.674  1.00  0.00     0.048 C 
HETATM   24  C19 UNL     1      23.330   0.577  53.706  1.00  0.00     0.007 A 
HETATM   25  C18 UNL     1      23.539   1.466  52.674  1.00  0.00     0.014 A 
ENDBRANCH   1  19
BRANCH   6  26
HETATM   26  O1  UNL     1      28.591   5.117  48.675  1.00  0.00    -0.345 OA
HETATM   27  H8  UNL     1      28.705   4.608  47.791  1.00  0.00     0.219 HD
ENDBRANCH   6  26
TORSDOF 2
ENDMDL
MODEL 5
REMARK VINA RESULT:      -7.6      2.523      6.504
REMARK  2 active torsions:
REMARK  status: ('A' for Active; 'I' for Inactive)
REMARK    1  A    between atoms: C5_5  and  C6_6 
REMARK    2  A    between atoms: C8_11  and  O1_12 
ROOT
HETATM    1  C6  UNL     1      21.997   0.465  51.482  1.00  0.00     0.069 C 
HETATM    2  N1  UNL     1      23.103   0.083  52.007  1.00  0.00    -0.177 NA
HETATM    3  N2  UNL     1      23.255  -0.775  53.086  1.00  0.00    -0.271 N 
HETATM    4  C7  UNL     1      24.667  -0.548  53.279  1.00  0.00     0.228 C 
HETATM    5  N3  UNL     1      25.186   0.282  54.133  1.00  0.00    -0.219 NA
HETATM    6  C8  UNL     1      26.584   0.484  54.299  1.00  0.00     0.163 C 
HETATM    7  C9  UNL     1      27.242   1.520  53.751  1.00  0.00     0.069 C 
HETATM    8  C10 UNL     1      26.174   2.227  53.051  1.00  0.00    -0.032 A 
HETATM    9  C11 UNL     1      25.168   2.848  53.772  1.00  0.00     0.012 A 
HETATM   10  C12 UNL     1      24.156   3.517  53.106  1.00  0.00     0.008 A 
HETATM   11  C13 UNL     1      24.155   3.560  51.725  1.00  0.00    -0.054 A 
HETATM   12  C14 UNL     1      25.159   2.939  51.009  1.00  0.00     0.008 A 
HETATM   13  C15 UNL     1      26.172   2.270  51.670  1.00  0.00     0.012 A 
HETATM   14  C16 UNL     1      23.067   4.276  51.009  1.00  0.00     0.070 C 
HETATM   15  P1  UNL     1      21.635   3.123  50.682  1.00  0.00    -0.119 P 
HETATM   16  C17 UNL     1      22.245   1.393  50.356  1.00  0.00     0.093 C 
HETATM   17  H6  UNL     1      23.261  -1.435  53.880  1.00  0.00     0.190 HD
HETATM   18  H16 UNL     1      20.877   3.047  51.926  1.00  0.00     0.058 HD
ENDROOT
BRANCH   1  19
HETATM   19  C5  UNL     1      20.605   0.164  51.798  1.00  0.00    -0.009 A 
HETATM   20  C4  UNL     1      19.596   0.337  50.876  1.00  0.00     0.014 A 
HETATM   21  C3  UNL     1      18.286   0.053  51.189  1.00  0.00     0.007 A 
HETATM   22  C2  UNL     1      17.899  -0.414  52.417  1.00  0.00    -0.062 A 
HETATM   23  C1  UNL     1      16.480  -0.704  52.708  1.00  0.00     0.048 C 
HETATM   24  C19 UNL     1      18.887  -0.597  53.361  1.00  0.00     0.007 A 
HETATM   25  C18 UNL     1      20.192  -0.307  53.027  1.00  0.00     0.014 A 
ENDBRANCH   1  19
BRANCH   6  26
HETATM   26  O1  UNL     1      27.197  -0.500  55.085  1.00  0.00    -0.345 OA
HETATM   27  H8  UNL     1      27.762  -0.126  55.856  1.00  0.00     0.219 HD
ENDBRANCH   6  26
TORSDOF 2
ENDMDL
MODEL 6
REMARK VINA RESULT:      -7.5      8.487     11.418
REMARK  2 active torsions:
REMARK  status: ('A' for Active; 'I' for Inactive)
REMARK    1  A    between atoms: C5_5  and  C6_6 
REMARK    2  A    between atoms: C8_11  and  O1_12 
ROOT
HETATM    1  C6  UNL     1      27.114   7.530  47.977  1.00  0.00     0.069 C 
HETATM    2  N1  UNL     1      28.134   6.757  47.908  1.00  0.00    -0.177 NA
HETATM    3  N2  UNL     1      28.304   5.548  48.566  1.00  0.00    -0.271 N 
HETATM    4  C7  UNL     1      29.703   5.385  48.252  1.00  0.00     0.228 C 
HETATM    5  N3  UNL     1      30.693   5.709  49.029  1.00  0.00    -0.219 NA
HETATM    6  C8  UNL     1      32.063   5.536  48.690  1.00  0.00     0.163 C 
HETATM    7  C9  UNL     1      32.834   6.538  48.234  1.00  0.00     0.069 C 
HETATM    8  C10 UNL     1      31.903   7.662  48.223  1.00  0.00    -0.032 A 
HETATM    9  C11 UNL     1      31.415   8.167  49.416  1.00  0.00     0.012 A 
HETATM   10  C12 UNL     1      30.532   9.232  49.404  1.00  0.00     0.008 A 
HETATM   11  C13 UNL     1      30.141   9.785  48.199  1.00  0.00    -0.054 A 
HETATM   12  C14 UNL     1      30.628   9.279  47.010  1.00  0.00     0.008 A 
HETATM   13  C15 UNL     1      31.512   8.215  47.019  1.00  0.00     0.012 A 
HETATM   14  C16 UNL     1      29.190  10.927  48.184  1.00  0.00     0.070 C 
HETATM   15  P1  UNL     1      27.429  10.307  48.136  1.00  0.00    -0.119 P 
HETATM   16  C17 UNL     1      27.313   8.736  47.142  1.00  0.00     0.093 C 
HETATM   17  H6  UNL     1      28.326   4.655  49.083  1.00  0.00     0.190 HD
HETATM   18  H16 UNL     1      27.088   9.936  49.504  1.00  0.00     0.058 HD
ENDROOT
BRANCH   1  19
HETATM   19  C5  UNL     1      25.857   7.433  48.713  1.00  0.00    -0.009 A 
HETATM   20  C4  UNL     1      24.644   7.331  48.069  1.00  0.00     0.014 A 
HETATM   21  C3  UNL     1      23.466   7.244  48.774  1.00  0.00     0.007 A 
HETATM   22  C2  UNL     1      23.416   7.253  50.143  1.00  0.00    -0.062 A 
HETATM   23  C1  UNL     1      22.127   7.157  50.858  1.00  0.00     0.048 C 
HETATM   24  C19 UNL     1      24.616   7.354  50.816  1.00  0.00     0.007 A 
HETATM   25  C18 UNL     1      25.784   7.439  50.089  1.00  0.00     0.014 A 
ENDBRANCH   1  19
BRANCH   6  26
HETATM   26  O1  UNL     1      32.519   4.226  48.877  1.00  0.00    -0.345 OA
HETATM   27  H8  UNL     1      33.281   3.955  48.245  1.00  0.00     0.219 HD
ENDBRANCH   6  26
TORSDOF 2
ENDMDL
MODEL 7
REMARK VINA RESULT:      -7.4      4.873      6.922
REMARK  2 active torsions:
REMARK  status: ('A' for Active; 'I' for Inactive)
REMARK    1  A    between atoms: C5_5  and  C6_6 
REMARK    2  A    between atoms: C8_11  and  O1_12 
ROOT
HETATM    1  C6  UNL     1      24.467   3.041  50.576  1.00  0.00     0.069 C 
HETATM    2  N1  UNL     1      25.293   3.583  49.761  1.00  0.00    -0.177 NA
HETATM    3  N2  UNL     1      26.668   3.404  49.731  1.00  0.00    -0.271 N 
HETATM    4  C7  UNL     1      26.952   4.463  48.793  1.00  0.00     0.228 C 
HETATM    5  N3  UNL     1      27.326   5.668  49.108  1.00  0.00    -0.219 NA
HETATM    6  C8  UNL     1      27.598   6.691  48.159  1.00  0.00     0.163 C 
HETATM    7  C9  UNL     1      26.713   7.656  47.852  1.00  0.00     0.069 C 
HETATM    8  C10 UNL     1      25.579   7.314  48.704  1.00  0.00    -0.032 A 
HETATM    9  C11 UNL     1      25.689   7.426  50.079  1.00  0.00     0.012 A 
HETATM   10  C12 UNL     1      24.613   7.102  50.886  1.00  0.00     0.008 A 
HETATM   11  C13 UNL     1      23.433   6.667  50.313  1.00  0.00    -0.054 A 
HETATM   12  C14 UNL     1      23.325   6.556  48.941  1.00  0.00     0.008 A 
HETATM   13  C15 UNL     1      24.399   6.880  48.132  1.00  0.00     0.012 A 
HETATM   14  C16 UNL     1      22.277   6.316  51.178  1.00  0.00     0.070 C 
HETATM   15  P1  UNL     1      22.357   4.517  51.673  1.00  0.00    -0.119 P 
HETATM   16  C17 UNL     1      23.085   3.490  50.300  1.00  0.00     0.093 C 
HETATM   17  H6  UNL     1      27.676   3.189  49.780  1.00  0.00     0.190 HD
HETATM   18  H16 UNL     1      23.309   4.437  52.774  1.00  0.00     0.058 HD
ENDROOT
BRANCH   1  19
HETATM   19  C5  UNL     1      24.651   2.110  51.685  1.00  0.00    -0.009 A 
HETATM   20  C4  UNL     1      25.642   2.287  52.626  1.00  0.00     0.014 A 
HETATM   21  C3  UNL     1      25.808   1.400  53.664  1.00  0.00     0.007 A 
HETATM   22  C2  UNL     1      25.015   0.297  53.835  1.00  0.00    -0.062 A 
HETATM   23  C1  UNL     1      25.231  -0.629  54.966  1.00  0.00     0.048 C 
HETATM   24  C19 UNL     1      24.014   0.093  52.908  1.00  0.00     0.007 A 
HETATM   25  C18 UNL     1      23.865   0.994  51.876  1.00  0.00     0.014 A 
ENDBRANCH   1  19
BRANCH   6  26
HETATM   26  O1  UNL     1      28.870   6.590  47.584  1.00  0.00    -0.345 OA
HETATM   27  H8  UNL     1      28.897   6.824  46.585  1.00  0.00     0.219 HD
ENDBRANCH   6  26
TORSDOF 2
ENDMDL
MODEL 8
REMARK VINA RESULT:      -7.2      2.220      6.643
REMARK  2 active torsions:
REMARK  status: ('A' for Active; 'I' for Inactive)
REMARK    1  A    between atoms: C5_5  and  C6_6 
REMARK    2  A    between atoms: C8_11  and  O1_12 
ROOT
HETATM    1  C6  UNL     1      21.760   1.206  50.845  1.00  0.00     0.069 C 
HETATM    2  N1  UNL     1      22.395   0.406  51.619  1.00  0.00    -0.177 NA
HETATM    3  N2  UNL     1      21.873  -0.297  52.694  1.00  0.00    -0.271 N 
HETATM    4  C7  UNL     1      23.137  -0.748  53.225  1.00  0.00     0.228 C 
HETATM    5  N3  UNL     1      23.797  -0.175  54.188  1.00  0.00    -0.219 NA
HETATM    6  C8  UNL     1      25.042  -0.644  54.689  1.00  0.00     0.163 C 
HETATM    7  C9  UNL     1      26.222  -0.112  54.326  1.00  0.00     0.069 C 
HETATM    8  C10 UNL     1      25.814   0.935  53.394  1.00  0.00    -0.032 A 
HETATM    9  C11 UNL     1      25.110   2.034  53.856  1.00  0.00     0.012 A 
HETATM   10  C12 UNL     1      24.723   3.025  52.972  1.00  0.00     0.008 A 
HETATM   11  C13 UNL     1      25.041   2.911  51.631  1.00  0.00    -0.054 A 
HETATM   12  C14 UNL     1      25.742   1.814  51.174  1.00  0.00     0.008 A 
HETATM   13  C15 UNL     1      26.131   0.821  52.055  1.00  0.00     0.012 A 
HETATM   14  C16 UNL     1      24.624   3.974  50.680  1.00  0.00     0.070 C 
HETATM   15  P1  UNL     1      22.920   3.611  50.006  1.00  0.00    -0.119 P 
HETATM   16  C17 UNL     1      22.664   1.775  49.821  1.00  0.00     0.093 C 
HETATM   17  H6  UNL     1      21.386  -0.789  53.460  1.00  0.00     0.190 HD
HETATM   18  H16 UNL     1      21.974   4.041  51.028  1.00  0.00     0.058 HD
ENDROOT
BRANCH   1  19
HETATM   19  C5  UNL     1      20.366   1.639  50.812  1.00  0.00    -0.009 A 
HETATM   20  C4  UNL     1      19.484   1.179  49.859  1.00  0.00     0.014 A 
HETATM   21  C3  UNL     1      18.174   1.598  49.837  1.00  0.00     0.007 A 
HETATM   22  C2  UNL     1      17.662   2.486  50.745  1.00  0.00    -0.062 A 
HETATM   23  C1  UNL     1      16.247   2.908  50.682  1.00  0.00     0.048 C 
HETATM   24  C19 UNL     1      18.521   2.965  51.711  1.00  0.00     0.007 A 
HETATM   25  C18 UNL     1      19.830   2.531  51.715  1.00  0.00     0.014 A 
ENDBRANCH   1  19
BRANCH   6  26
HETATM   26  O1  UNL     1      24.912  -1.707  55.590  1.00  0.00    -0.345 OA
HETATM   27  H8  UNL     1      24.625  -1.422  56.533  1.00  0.00     0.219 HD
ENDBRANCH   6  26
TORSDOF 2
ENDMDL
MODEL 9
REMARK VINA RESULT:      -6.9     12.321     14.357
REMARK  2 active torsions:
REMARK  status: ('A' for Active; 'I' for Inactive)
REMARK    1  A    between atoms: C5_5  and  C6_6 
REMARK    2  A    between atoms: C8_11  and  O1_12 
ROOT
HETATM    1  C6  UNL     1      32.980   5.437  44.603  1.00  0.00     0.069 C 
HETATM    2  N1  UNL     1      32.289   6.330  45.209  1.00  0.00    -0.177 NA
HETATM    3  N2  UNL     1      32.052   7.628  44.780  1.00  0.00    -0.271 N 
HETATM    4  C7  UNL     1      31.467   8.104  46.011  1.00  0.00     0.228 C 
HETATM    5  N3  UNL     1      32.099   8.749  46.946  1.00  0.00    -0.219 NA
HETATM    6  C8  UNL     1      31.494   9.204  48.148  1.00  0.00     0.163 C 
HETATM    7  C9  UNL     1      31.603   8.545  49.316  1.00  0.00     0.069 C 
HETATM    8  C10 UNL     1      32.426   7.399  48.945  1.00  0.00    -0.032 A 
HETATM    9  C11 UNL     1      33.747   7.587  48.573  1.00  0.00     0.012 A 
HETATM   10  C12 UNL     1      34.525   6.499  48.222  1.00  0.00     0.008 A 
HETATM   11  C13 UNL     1      33.980   5.230  48.242  1.00  0.00    -0.054 A 
HETATM   12  C14 UNL     1      32.663   5.044  48.613  1.00  0.00     0.008 A 
HETATM   13  C15 UNL     1      31.881   6.129  48.966  1.00  0.00     0.012 A 
HETATM   14  C16 UNL     1      34.815   4.060  47.863  1.00  0.00     0.070 C 
HETATM   15  P1  UNL     1      34.710   3.757  46.023  1.00  0.00    -0.119 P 
HETATM   16  C17 UNL     1      33.013   4.180  45.383  1.00  0.00     0.093 C 
HETATM   17  H6  UNL     1      31.920   8.564  44.366  1.00  0.00     0.190 HD
HETATM   18  H16 UNL     1      35.618   4.711  45.398  1.00  0.00     0.058 HD
ENDROOT
BRANCH   1  19
HETATM   19  C5  UNL     1      33.715   5.454  43.341  1.00  0.00    -0.009 A 
HETATM   20  C4  UNL     1      33.372   4.635  42.289  1.00  0.00     0.014 A 
HETATM   21  C3  UNL     1      34.075   4.657  41.107  1.00  0.00     0.007 A 
HETATM   22  C2  UNL     1      35.148   5.482  40.895  1.00  0.00    -0.062 A 
HETATM   23  C1  UNL     1      35.874   5.472  39.608  1.00  0.00     0.048 C 
HETATM   24  C19 UNL     1      35.515   6.315  41.931  1.00  0.00     0.007 A 
HETATM   25  C18 UNL     1      34.797   6.276  43.107  1.00  0.00     0.014 A 
ENDBRANCH   1  19
BRANCH   6  26
HETATM   26  O1  UNL     1      30.779  10.398  47.993  1.00  0.00    -0.345 OA
HETATM   27  H8  UNL     1      31.241  11.085  47.387  1.00  0.00     0.219 HD
ENDBRANCH   6  26
TORSDOF 2
ENDMDL
