MODEL 1
REMARK VINA RESULT:      -7.8      0.000      0.000
REMARK  3 active torsions:
REMARK  status: ('A' for Active; 'I' for Inactive)
REMARK       I    between atoms: N1_1  and  C1_2 
REMARK       I    between atoms: C1_2  and  N2_4 
REMARK    1  A    between atoms: N2_4  and  C2_5 
REMARK    2  A    between atoms: C9_14  and  N5_15 
REMARK    3  A    between atoms: N5_15  and  C10_16 
ROOT
HETATM    1  C2  UNL     1      25.542   2.123  53.245  1.00  0.00     0.042 C 
HETATM    2  C3  UNL     1      26.761   2.512  52.780  1.00  0.00     0.029 C 
HETATM    3  C4  UNL     1      27.953   1.597  52.782  1.00  0.00     0.029 C 
HETATM    4  C5  UNL     1      27.967   0.434  53.453  1.00  0.00     0.041 C 
HETATM    5  C6  UNL     1      27.130   0.213  54.750  1.00  0.00     0.116 C 
HETATM    6  C7  UNL     1      25.930  -0.235  53.892  1.00  0.00     0.048 C 
HETATM    7  N3  UNL     1      26.194  -1.477  53.568  1.00  0.00    -0.248 NA
HETATM    8  C8  UNL     1      27.583  -1.837  53.174  1.00  0.00     0.233 C 
HETATM    9  N4  UNL     1      28.566  -0.868  53.156  1.00  0.00    -0.246 NA
HETATM   10  C9  UNL     1      24.900   0.784  53.585  1.00  0.00     0.180 C 
ENDROOT
BRANCH  10  11
HETATM   11  N5  UNL     1      24.023   0.378  52.537  1.00  0.00    -0.375 N 
HETATM   12  H10 UNL     1      24.376   0.319  51.558  1.00  0.00     0.160 HD
BRANCH  11  13
HETATM   13  C10 UNL     1      22.661   0.023  52.731  1.00  0.00     0.028 A 
HETATM   14  C11 UNL     1      22.196  -0.703  53.806  1.00  0.00     0.030 A 
HETATM   15  C12 UNL     1      20.882  -1.065  54.014  1.00  0.00     0.021 A 
HETATM   16  C13 UNL     1      19.955  -0.671  53.071  1.00  0.00     0.011 A 
HETATM   17 BR1  UNL     1      18.105  -1.105  53.237  1.00  0.00    -0.051 Br
HETATM   18  C14 UNL     1      20.334   0.059  51.965  1.00  0.00     0.021 A 
HETATM   19  C15 UNL     1      21.669   0.375  51.841  1.00  0.00     0.030 A 
ENDBRANCH  11  13
ENDBRANCH  10  11
BRANCH   1  20
HETATM   20  N2  UNL     1      24.822   3.329  53.414  1.00  0.00    -0.310 N 
HETATM   21  C1  UNL     1      23.760   3.954  52.730  1.00  0.00     0.318 C 
HETATM   22  N1  UNL     1      23.168   5.196  53.075  1.00  0.00    -0.352 N 
HETATM   23  O1  UNL     1      23.162   3.544  51.722  1.00  0.00    -0.247 OA
HETATM   24  H1  UNL     1      22.334   5.220  53.677  1.00  0.00     0.160 HD
HETATM   25  H2  UNL     1      23.391   6.206  52.845  1.00  0.00     0.160 HD
HETATM   26  H3  UNL     1      25.106   3.927  54.225  1.00  0.00     0.170 HD
ENDBRANCH   1  20
TORSDOF 3
ENDMDL
MODEL 2
REMARK VINA RESULT:      -7.7      2.916      4.329
REMARK  3 active torsions:
REMARK  status: ('A' for Active; 'I' for Inactive)
REMARK       I    between atoms: N1_1  and  C1_2 
REMARK       I    between atoms: C1_2  and  N2_4 
REMARK    1  A    between atoms: N2_4  and  C2_5 
REMARK    2  A    between atoms: C9_14  and  N5_15 
REMARK    3  A    between atoms: N5_15  and  C10_16 
ROOT
HETATM    1  C2  UNL     1      24.991  -0.098  53.619  1.00  0.00     0.042 C 
HETATM    2  C3  UNL     1      25.424  -0.269  54.899  1.00  0.00     0.029 C 
HETATM    3  C4  UNL     1      26.794   0.152  55.348  1.00  0.00     0.029 C 
HETATM    4  C5  UNL     1      27.762   0.496  54.484  1.00  0.00     0.041 C 
HETATM    5  C6  UNL     1      27.838  -0.096  53.043  1.00  0.00     0.116 C 
HETATM    6  C7  UNL     1      26.912   1.029  52.539  1.00  0.00     0.048 C 
HETATM    7  N3  UNL     1      27.694   2.072  52.406  1.00  0.00    -0.248 NA
HETATM    8  C8  UNL     1      28.714   2.344  53.455  1.00  0.00     0.233 C 
HETATM    9  N4  UNL     1      28.824   1.501  54.542  1.00  0.00    -0.246 NA
HETATM   10  C9  UNL     1      25.469   0.718  52.425  1.00  0.00     0.180 C 
ENDROOT
BRANCH  10  11
HETATM   11  N5  UNL     1      24.666   1.887  52.275  1.00  0.00    -0.375 N 
HETATM   12  H10 UNL     1      24.587   2.567  53.061  1.00  0.00     0.160 HD
BRANCH  11  13
HETATM   13  C10 UNL     1      23.952   2.216  51.091  1.00  0.00     0.028 A 
HETATM   14  C11 UNL     1      22.803   1.577  50.677  1.00  0.00     0.030 A 
HETATM   15  C12 UNL     1      22.096   1.872  49.531  1.00  0.00     0.021 A 
HETATM   16  C13 UNL     1      22.574   2.889  48.732  1.00  0.00     0.011 A 
HETATM   17 BR1  UNL     1      21.692   3.401  47.119  1.00  0.00    -0.051 Br
HETATM   18  C14 UNL     1      23.716   3.582  49.072  1.00  0.00     0.021 A 
HETATM   19  C15 UNL     1      24.357   3.217  50.235  1.00  0.00     0.030 A 
ENDBRANCH  11  13
ENDBRANCH  10  11
BRANCH   1  20
HETATM   20  N2  UNL     1      23.849  -0.926  53.514  1.00  0.00    -0.310 N 
HETATM   21  C1  UNL     1      22.469  -0.747  53.745  1.00  0.00     0.318 C 
HETATM   22  N1  UNL     1      21.465  -1.732  53.572  1.00  0.00    -0.352 N 
HETATM   23  O1  UNL     1      21.894   0.282  54.133  1.00  0.00    -0.247 OA
HETATM   24  H1  UNL     1      20.954  -1.797  52.681  1.00  0.00     0.160 HD
HETATM   25  H2  UNL     1      21.069  -2.496  54.191  1.00  0.00     0.160 HD
HETATM   26  H3  UNL     1      24.017  -1.906  53.190  1.00  0.00     0.170 HD
ENDBRANCH   1  20
TORSDOF 3
ENDMDL
MODEL 3
REMARK VINA RESULT:      -7.6      3.422      6.189
REMARK  3 active torsions:
REMARK  status: ('A' for Active; 'I' for Inactive)
REMARK       I    between atoms: N1_1  and  C1_2 
REMARK       I    between atoms: C1_2  and  N2_4 
REMARK    1  A    between atoms: N2_4  and  C2_5 
REMARK    2  A    between atoms: C9_14  and  N5_15 
REMARK    3  A    between atoms: N5_15  and  C10_16 
ROOT
HETATM    1  C2  UNL     1      23.994   4.006  51.424  1.00  0.00     0.042 C 
HETATM    2  C3  UNL     1      23.111   5.039  51.505  1.00  0.00     0.029 C 
HETATM    3  C4  UNL     1      21.648   4.828  51.775  1.00  0.00     0.029 C 
HETATM    4  C5  UNL     1      21.071   3.617  51.716  1.00  0.00     0.041 C 
HETATM    5  C6  UNL     1      21.603   2.490  50.778  1.00  0.00     0.116 C 
HETATM    6  C7  UNL     1      22.572   2.033  51.886  1.00  0.00     0.048 C 
HETATM    7  N3  UNL     1      21.834   1.327  52.708  1.00  0.00    -0.248 NA
HETATM    8  C8  UNL     1      20.470   1.816  53.049  1.00  0.00     0.233 C 
HETATM    9  N4  UNL     1      20.005   2.994  52.499  1.00  0.00    -0.246 NA
HETATM   10  C9  UNL     1      23.964   2.534  51.817  1.00  0.00     0.180 C 
ENDROOT
BRANCH  10  11
HETATM   11  N5  UNL     1      24.680   2.335  53.034  1.00  0.00    -0.375 N 
HETATM   12  H10 UNL     1      24.338   2.775  53.915  1.00  0.00     0.160 HD
BRANCH  11  13
HETATM   13  C10 UNL     1      25.856   1.546  53.146  1.00  0.00     0.028 A 
HETATM   14  C11 UNL     1      27.078   2.032  53.558  1.00  0.00     0.030 A 
HETATM   15  C12 UNL     1      28.234   1.289  53.668  1.00  0.00     0.021 A 
HETATM   16  C13 UNL     1      28.165  -0.050  53.341  1.00  0.00     0.011 A 
HETATM   17 BR1  UNL     1      29.690  -1.192  53.450  1.00  0.00    -0.051 Br
HETATM   18  C14 UNL     1      26.982  -0.618  52.921  1.00  0.00     0.021 A 
HETATM   19  C15 UNL     1      25.879   0.202  52.841  1.00  0.00     0.030 A 
ENDBRANCH  11  13
ENDBRANCH  10  11
BRANCH   1  20
HETATM   20  N2  UNL     1      25.141   4.563  50.812  1.00  0.00    -0.310 N 
HETATM   21  C1  UNL     1      26.227   4.041  50.079  1.00  0.00     0.318 C 
HETATM   22  N1  UNL     1      27.300   4.793  49.538  1.00  0.00    -0.352 N 
HETATM   23  O1  UNL     1      26.439   2.855  49.782  1.00  0.00    -0.247 OA
HETATM   24  H1  UNL     1      27.256   5.129  48.566  1.00  0.00     0.160 HD
HETATM   25  H2  UNL     1      28.229   5.130  49.920  1.00  0.00     0.160 HD
HETATM   26  H3  UNL     1      25.250   5.601  50.892  1.00  0.00     0.170 HD
ENDBRANCH   1  20
TORSDOF 3
ENDMDL
MODEL 4
REMARK VINA RESULT:      -7.6      4.214      6.782
REMARK  3 active torsions:
REMARK  status: ('A' for Active; 'I' for Inactive)
REMARK       I    between atoms: N1_1  and  C1_2 
REMARK       I    between atoms: C1_2  and  N2_4 
REMARK    1  A    between atoms: N2_4  and  C2_5 
REMARK    2  A    between atoms: C9_14  and  N5_15 
REMARK    3  A    between atoms: N5_15  and  C10_16 
ROOT
HETATM    1  C2  UNL     1      24.473   1.736  52.619  1.00  0.00     0.042 C 
HETATM    2  C3  UNL     1      24.085   0.514  53.076  1.00  0.00     0.029 C 
HETATM    3  C4  UNL     1      22.741  -0.076  52.755  1.00  0.00     0.029 C 
HETATM    4  C5  UNL     1      21.749   0.645  52.209  1.00  0.00     0.041 C 
HETATM    5  C6  UNL     1      21.608   2.179  52.451  1.00  0.00     0.116 C 
HETATM    6  C7  UNL     1      22.537   2.448  51.251  1.00  0.00     0.048 C 
HETATM    7  N3  UNL     1      21.773   2.305  50.196  1.00  0.00    -0.248 NA
HETATM    8  C8  UNL     1      20.798   1.181  50.162  1.00  0.00     0.233 C 
HETATM    9  N4  UNL     1      20.712   0.313  51.232  1.00  0.00    -0.246 NA
HETATM   10  C9  UNL     1      23.969   2.690  51.544  1.00  0.00     0.180 C 
ENDROOT
BRANCH  10  11
HETATM   11  N5  UNL     1      24.790   2.599  50.381  1.00  0.00    -0.375 N 
HETATM   12  H10 UNL     1      24.931   1.677  49.916  1.00  0.00     0.160 HD
BRANCH  11  13
HETATM   13  C10 UNL     1      25.443   3.708  49.779  1.00  0.00     0.028 A 
HETATM   14  C11 UNL     1      26.760   3.705  49.376  1.00  0.00     0.030 A 
HETATM   15  C12 UNL     1      27.418   4.769  48.796  1.00  0.00     0.021 A 
HETATM   16  C13 UNL     1      26.702   5.932  48.602  1.00  0.00     0.011 A 
HETATM   17 BR1  UNL     1      27.490   7.478  47.809  1.00  0.00    -0.051 Br
HETATM   18  C14 UNL     1      25.377   6.021  48.974  1.00  0.00     0.021 A 
HETATM   19  C15 UNL     1      24.804   4.907  49.547  1.00  0.00     0.030 A 
ENDBRANCH  11  13
ENDBRANCH  10  11
BRANCH   1  20
HETATM   20  N2  UNL     1      25.593   2.076  53.414  1.00  0.00    -0.310 N 
HETATM   21  C1  UNL     1      26.977   2.200  53.176  1.00  0.00     0.318 C 
HETATM   22  N1  UNL     1      27.954   2.564  54.136  1.00  0.00    -0.352 N 
HETATM   23  O1  UNL     1      27.581   2.018  52.106  1.00  0.00    -0.247 OA
HETATM   24  H1  UNL     1      28.237   3.548  54.238  1.00  0.00     0.160 HD
HETATM   25  H2  UNL     1      28.525   2.023  54.847  1.00  0.00     0.160 HD
HETATM   26  H3  UNL     1      25.397   2.299  54.417  1.00  0.00     0.170 HD
ENDBRANCH   1  20
TORSDOF 3
ENDMDL
MODEL 5
REMARK VINA RESULT:      -7.5      3.179      5.915
REMARK  3 active torsions:
REMARK  status: ('A' for Active; 'I' for Inactive)
REMARK       I    between atoms: N1_1  and  C1_2 
REMARK       I    between atoms: C1_2  and  N2_4 
REMARK    1  A    between atoms: N2_4  and  C2_5 
REMARK    2  A    between atoms: C9_14  and  N5_15 
REMARK    3  A    between atoms: N5_15  and  C10_16 
ROOT
HETATM    1  C2  UNL     1      22.851   2.684  51.989  1.00  0.00     0.042 C 
HETATM    2  C3  UNL     1      21.654   3.290  52.218  1.00  0.00     0.029 C 
HETATM    3  C4  UNL     1      20.402   2.513  52.511  1.00  0.00     0.029 C 
HETATM    4  C5  UNL     1      20.318   1.185  52.331  1.00  0.00     0.041 C 
HETATM    5  C6  UNL     1      21.162   0.439  51.252  1.00  0.00     0.116 C 
HETATM    6  C7  UNL     1      22.312   0.284  52.267  1.00  0.00     0.048 C 
HETATM    7  N3  UNL     1      21.957  -0.723  53.026  1.00  0.00    -0.248 NA
HETATM    8  C8  UNL     1      20.539  -0.826  53.466  1.00  0.00     0.233 C 
HETATM    9  N4  UNL     1      19.625   0.131  53.072  1.00  0.00    -0.246 NA
HETATM   10  C9  UNL     1      23.405   1.282  52.209  1.00  0.00     0.180 C 
ENDROOT
BRANCH  10  11
HETATM   11  N5  UNL     1      24.232   1.257  53.371  1.00  0.00    -0.375 N 
HETATM   12  H10 UNL     1      23.885   1.667  54.265  1.00  0.00     0.160 HD
BRANCH  11  13
HETATM   13  C10 UNL     1      25.532   0.686  53.410  1.00  0.00     0.028 A 
HETATM   14  C11 UNL     1      25.919  -0.410  52.670  1.00  0.00     0.030 A 
HETATM   15  C12 UNL     1      27.171  -0.987  52.694  1.00  0.00     0.021 A 
HETATM   16  C13 UNL     1      28.115  -0.424  53.527  1.00  0.00     0.011 A 
HETATM   17 BR1  UNL     1      29.886  -1.122  53.657  1.00  0.00    -0.051 Br
HETATM   18  C14 UNL     1      27.814   0.676  54.302  1.00  0.00     0.021 A 
HETATM   19  C15 UNL     1      26.537   1.183  54.212  1.00  0.00     0.030 A 
ENDBRANCH  11  13
ENDBRANCH  10  11
BRANCH   1  20
HETATM   20  N2  UNL     1      23.656   3.691  51.407  1.00  0.00    -0.310 N 
HETATM   21  C1  UNL     1      24.993   3.760  50.965  1.00  0.00     0.318 C 
HETATM   22  N1  UNL     1      25.620   4.897  50.394  1.00  0.00    -0.352 N 
HETATM   23  O1  UNL     1      25.848   2.861  50.994  1.00  0.00    -0.247 OA
HETATM   24  H1  UNL     1      25.642   5.015  49.373  1.00  0.00     0.160 HD
HETATM   25  H2  UNL     1      26.123   5.739  50.796  1.00  0.00     0.160 HD
HETATM   26  H3  UNL     1      23.194   4.616  51.244  1.00  0.00     0.170 HD
ENDBRANCH   1  20
TORSDOF 3
ENDMDL
MODEL 6
REMARK VINA RESULT:      -7.3      3.275      6.041
REMARK  3 active torsions:
REMARK  status: ('A' for Active; 'I' for Inactive)
REMARK       I    between atoms: N1_1  and  C1_2 
REMARK       I    between atoms: C1_2  and  N2_4 
REMARK    1  A    between atoms: N2_4  and  C2_5 
REMARK    2  A    between atoms: C9_14  and  N5_15 
REMARK    3  A    between atoms: N5_15  and  C10_16 
ROOT
HETATM    1  C2  UNL     1      23.273   3.915  51.920  1.00  0.00     0.042 C 
HETATM    2  C3  UNL     1      22.070   4.523  52.112  1.00  0.00     0.029 C 
HETATM    3  C4  UNL     1      20.765   3.804  51.923  1.00  0.00     0.029 C 
HETATM    4  C5  UNL     1      20.682   2.603  51.329  1.00  0.00     0.041 C 
HETATM    5  C6  UNL     1      21.699   2.146  50.238  1.00  0.00     0.116 C 
HETATM    6  C7  UNL     1      22.626   1.597  51.340  1.00  0.00     0.048 C 
HETATM    7  N3  UNL     1      22.103   0.442  51.674  1.00  0.00    -0.248 NA
HETATM    8  C8  UNL     1      20.625   0.334  51.803  1.00  0.00     0.233 C 
HETATM    9  N4  UNL     1      19.831   1.439  51.572  1.00  0.00    -0.246 NA
HETATM   10  C9  UNL     1      23.735   2.469  51.789  1.00  0.00     0.180 C 
ENDROOT
BRANCH  10  11
HETATM   11  N5  UNL     1      24.321   2.027  53.012  1.00  0.00    -0.375 N 
HETATM   12  H10 UNL     1      23.819   2.180  53.913  1.00  0.00     0.160 HD
BRANCH  11  13
HETATM   13  C10 UNL     1      25.572   1.358  53.100  1.00  0.00     0.028 A 
HETATM   14  C11 UNL     1      25.804   0.085  52.625  1.00  0.00     0.030 A 
HETATM   15  C12 UNL     1      27.005  -0.587  52.703  1.00  0.00     0.021 A 
HETATM   16  C13 UNL     1      28.061   0.064  53.305  1.00  0.00     0.011 A 
HETATM   17 BR1  UNL     1      29.777  -0.752  53.479  1.00  0.00    -0.051 Br
HETATM   18  C14 UNL     1      27.916   1.339  53.807  1.00  0.00     0.021 A 
HETATM   19  C15 UNL     1      26.680   1.932  53.684  1.00  0.00     0.030 A 
ENDBRANCH  11  13
ENDBRANCH  10  11
BRANCH   1  20
HETATM   20  N2  UNL     1      24.203   4.978  51.831  1.00  0.00    -0.310 N 
HETATM   21  C1  UNL     1      24.481   5.974  50.873  1.00  0.00     0.318 C 
HETATM   22  N1  UNL     1      25.481   6.972  50.983  1.00  0.00    -0.352 N 
HETATM   23  O1  UNL     1      23.915   6.155  49.784  1.00  0.00    -0.247 OA
HETATM   24  H1  UNL     1      25.247   7.897  51.367  1.00  0.00     0.160 HD
HETATM   25  H2  UNL     1      26.513   7.009  50.744  1.00  0.00     0.160 HD
HETATM   26  H3  UNL     1      24.852   5.092  52.644  1.00  0.00     0.170 HD
ENDBRANCH   1  20
TORSDOF 3
ENDMDL
MODEL 7
REMARK VINA RESULT:      -7.3      1.455      1.654
REMARK  3 active torsions:
REMARK  status: ('A' for Active; 'I' for Inactive)
REMARK       I    between atoms: N1_1  and  C1_2 
REMARK       I    between atoms: C1_2  and  N2_4 
REMARK    1  A    between atoms: N2_4  and  C2_5 
REMARK    2  A    between atoms: C9_14  and  N5_15 
REMARK    3  A    between atoms: N5_15  and  C10_16 
ROOT
HETATM    1  C2  UNL     1      24.400   2.658  51.683  1.00  0.00     0.042 C 
HETATM    2  C3  UNL     1      25.636   2.841  51.142  1.00  0.00     0.029 C 
HETATM    3  C4  UNL     1      26.798   1.946  51.468  1.00  0.00     0.029 C 
HETATM    4  C5  UNL     1      26.769   1.066  52.480  1.00  0.00     0.041 C 
HETATM    5  C6  UNL     1      25.910   1.302  53.761  1.00  0.00     0.116 C 
HETATM    6  C7  UNL     1      24.706   0.631  53.071  1.00  0.00     0.048 C 
HETATM    7  N3  UNL     1      24.935  -0.655  53.175  1.00  0.00    -0.248 NA
HETATM    8  C8  UNL     1      26.316  -1.161  52.949  1.00  0.00     0.233 C 
HETATM    9  N4  UNL     1      27.329  -0.276  52.637  1.00  0.00    -0.246 NA
HETATM   10  C9  UNL     1      23.712   1.520  52.428  1.00  0.00     0.180 C 
ENDROOT
BRANCH  10  11
HETATM   11  N5  UNL     1      22.835   0.818  51.550  1.00  0.00    -0.375 N 
HETATM   12  H10 UNL     1      23.148   0.578  50.585  1.00  0.00     0.160 HD
BRANCH  11  13
HETATM   13  C10 UNL     1      21.526   0.392  51.905  1.00  0.00     0.028 A 
HETATM   14  C11 UNL     1      21.201  -0.184  53.114  1.00  0.00     0.030 A 
HETATM   15  C12 UNL     1      19.942  -0.610  53.480  1.00  0.00     0.021 A 
HETATM   16  C13 UNL     1      18.923  -0.448  52.565  1.00  0.00     0.011 A 
HETATM   17 BR1  UNL     1      17.135  -0.994  52.944  1.00  0.00    -0.051 Br
HETATM   18  C14 UNL     1      19.161   0.121  51.332  1.00  0.00     0.021 A 
HETATM   19  C15 UNL     1      20.450   0.517  51.054  1.00  0.00     0.030 A 
ENDBRANCH  11  13
ENDBRANCH  10  11
BRANCH   1  20
HETATM   20  N2  UNL     1      23.717   3.871  51.435  1.00  0.00    -0.310 N 
HETATM   21  C1  UNL     1      23.347   4.980  52.223  1.00  0.00     0.318 C 
HETATM   22  N1  UNL     1      22.648   6.126  51.765  1.00  0.00    -0.352 N 
HETATM   23  O1  UNL     1      23.560   5.154  53.433  1.00  0.00    -0.247 OA
HETATM   24  H1  UNL     1      23.169   6.959  51.457  1.00  0.00     0.160 HD
HETATM   25  H2  UNL     1      21.622   6.365  51.650  1.00  0.00     0.160 HD
HETATM   26  H3  UNL     1      23.395   4.027  50.451  1.00  0.00     0.170 HD
ENDBRANCH   1  20
TORSDOF 3
ENDMDL
MODEL 8
REMARK VINA RESULT:      -7.2      3.339      6.470
REMARK  3 active torsions:
REMARK  status: ('A' for Active; 'I' for Inactive)
REMARK       I    between atoms: N1_1  and  C1_2 
REMARK       I    between atoms: C1_2  and  N2_4 
REMARK    1  A    between atoms: N2_4  and  C2_5 
REMARK    2  A    between atoms: C9_14  and  N5_15 
REMARK    3  A    between atoms: N5_15  and  C10_16 
ROOT
HETATM    1  C2  UNL     1      21.687   1.935  52.549  1.00  0.00     0.042 C 
HETATM    2  C3  UNL     1      20.595   2.331  51.840  1.00  0.00     0.029 C 
HETATM    3  C4  UNL     1      20.578   3.592  51.024  1.00  0.00     0.029 C 
HETATM    4  C5  UNL     1      21.535   4.529  51.124  1.00  0.00     0.041 C 
HETATM    5  C6  UNL     1      22.328   4.766  52.446  1.00  0.00     0.116 C 
HETATM    6  C7  UNL     1      23.348   3.692  52.020  1.00  0.00     0.048 C 
HETATM    7  N3  UNL     1      24.134   4.297  51.163  1.00  0.00    -0.248 NA
HETATM    8  C8  UNL     1      23.529   5.211  50.155  1.00  0.00     0.233 C 
HETATM    9  N4  UNL     1      22.162   5.407  50.138  1.00  0.00    -0.246 NA
HETATM   10  C9  UNL     1      23.160   2.326  52.559  1.00  0.00     0.180 C 
ENDROOT
BRANCH  10  11
HETATM   11  N5  UNL     1      23.933   1.350  51.864  1.00  0.00    -0.375 N 
HETATM   12  H10 UNL     1      23.567   0.928  50.984  1.00  0.00     0.160 HD
BRANCH  11  13
HETATM   13  C10 UNL     1      25.215   0.903  52.285  1.00  0.00     0.028 A 
HETATM   14  C11 UNL     1      26.370   1.643  52.164  1.00  0.00     0.030 A 
HETATM   15  C12 UNL     1      27.625   1.230  52.558  1.00  0.00     0.021 A 
HETATM   16  C13 UNL     1      27.736  -0.025  53.119  1.00  0.00     0.011 A 
HETATM   17 BR1  UNL     1      29.413  -0.719  53.708  1.00  0.00    -0.051 Br
HETATM   18  C14 UNL     1      26.630  -0.832  53.278  1.00  0.00     0.021 A 
HETATM   19  C15 UNL     1      25.417  -0.335  52.855  1.00  0.00     0.030 A 
ENDBRANCH  11  13
ENDBRANCH  10  11
BRANCH   1  20
HETATM   20  N2  UNL     1      21.199   0.950  53.439  1.00  0.00    -0.310 N 
HETATM   21  C1  UNL     1      21.443  -0.426  53.627  1.00  0.00     0.318 C 
HETATM   22  N1  UNL     1      20.832  -1.250  54.605  1.00  0.00    -0.352 N 
HETATM   23  O1  UNL     1      22.220  -1.152  52.985  1.00  0.00    -0.247 OA
HETATM   24  H1  UNL     1      21.292  -1.400  55.513  1.00  0.00     0.160 HD
HETATM   25  H2  UNL     1      19.931  -1.808  54.639  1.00  0.00     0.160 HD
HETATM   26  H3  UNL     1      20.493   1.271  54.141  1.00  0.00     0.170 HD
ENDBRANCH   1  20
TORSDOF 3
ENDMDL
MODEL 9
REMARK VINA RESULT:      -6.8      8.220     10.878
REMARK  3 active torsions:
REMARK  status: ('A' for Active; 'I' for Inactive)
REMARK       I    between atoms: N1_1  and  C1_2 
REMARK       I    between atoms: C1_2  and  N2_4 
REMARK    1  A    between atoms: N2_4  and  C2_5 
REMARK    2  A    between atoms: C9_14  and  N5_15 
REMARK    3  A    between atoms: N5_15  and  C10_16 
ROOT
HETATM    1  C2  UNL     1      28.028   8.613  49.143  1.00  0.00     0.042 C 
HETATM    2  C3  UNL     1      27.095   8.868  50.101  1.00  0.00     0.029 C 
HETATM    3  C4  UNL     1      26.004   7.892  50.441  1.00  0.00     0.029 C 
HETATM    4  C5  UNL     1      25.726   6.825  49.676  1.00  0.00     0.041 C 
HETATM    5  C6  UNL     1      25.977   6.819  48.137  1.00  0.00     0.116 C 
HETATM    6  C7  UNL     1      27.421   6.338  48.379  1.00  0.00     0.048 C 
HETATM    7  N3  UNL     1      27.312   5.051  48.605  1.00  0.00    -0.248 NA
HETATM    8  C8  UNL     1      26.197   4.564  49.461  1.00  0.00     0.233 C 
HETATM    9  N4  UNL     1      25.299   5.464  50.000  1.00  0.00    -0.246 NA
HETATM   10  C9  UNL     1      28.485   7.367  48.394  1.00  0.00     0.180 C 
ENDROOT
BRANCH  10  11
HETATM   11  N5  UNL     1      29.709   6.884  48.944  1.00  0.00    -0.375 N 
HETATM   12  H10 UNL     1      29.848   6.879  49.977  1.00  0.00     0.160 HD
BRANCH  11  13
HETATM   13  C10 UNL     1      30.786   6.378  48.167  1.00  0.00     0.028 A 
HETATM   14  C11 UNL     1      31.789   7.158  47.634  1.00  0.00     0.030 A 
HETATM   15  C12 UNL     1      32.840   6.693  46.872  1.00  0.00     0.021 A 
HETATM   16  C13 UNL     1      32.894   5.337  46.622  1.00  0.00     0.011 A 
HETATM   17 BR1  UNL     1      34.295   4.562  45.583  1.00  0.00    -0.051 Br
HETATM   18  C14 UNL     1      31.932   4.484  47.118  1.00  0.00     0.021 A 
HETATM   19  C15 UNL     1      30.919   5.039  47.868  1.00  0.00     0.030 A 
ENDBRANCH  11  13
ENDBRANCH  10  11
BRANCH   1  20
HETATM   20  N2  UNL     1      28.617   9.871  48.873  1.00  0.00    -0.310 N 
HETATM   21  C1  UNL     1      29.901  10.423  49.055  1.00  0.00     0.318 C 
HETATM   22  N1  UNL     1      30.294  11.740  48.705  1.00  0.00    -0.352 N 
HETATM   23  O1  UNL     1      30.901   9.873  49.543  1.00  0.00    -0.247 OA
HETATM   24  H1  UNL     1      30.725  11.923  47.788  1.00  0.00     0.160 HD
HETATM   25  H2  UNL     1      30.251  12.677  49.199  1.00  0.00     0.160 HD
HETATM   26  H3  UNL     1      27.994  10.587  48.434  1.00  0.00     0.170 HD
ENDBRANCH   1  20
TORSDOF 3
ENDMDL
