MODEL 1
REMARK VINA RESULT:      -8.2      0.000      0.000
REMARK  9 active torsions:
REMARK  status: ('A' for Active; 'I' for Inactive)
REMARK    1  A    between atoms: C2_2  and  S1_3 
REMARK    2  A    between atoms: C2_2  and  N2_16 
REMARK    3  A    between atoms: S1_3  and  C3_4 
REMARK    4  A    between atoms: C3_4  and  C4_5 
REMARK       I    between atoms: C4_5  and  N1_7 
REMARK    5  A    between atoms: N1_7  and  C5_8 
REMARK    6  A    between atoms: C14_19  and  N3_20 
REMARK    7  A    between atoms: N4_23  and  C17_24 
REMARK    8  A    between atoms: C17_24  and  O2_25 
REMARK    9  A    between atoms: O2_25  and  N5_26 
ROOT
HETATM    1  N2  UNL     1      22.492   2.749  50.164  1.00  0.00    -0.240 N 
HETATM    2  C12 UNL     1      22.251   1.367  50.338  1.00  0.00     0.118 A 
HETATM    3  C13 UNL     1      22.548   0.928  51.547  1.00  0.00     0.023 A 
HETATM    4  C14 UNL     1      23.089   1.607  52.765  1.00  0.00     0.153 A 
HETATM    5  C20 UNL     1      23.274   3.034  52.406  1.00  0.00     0.055 A 
HETATM    6  C21 UNL     1      23.781   4.094  53.331  1.00  0.00     0.070 C 
HETATM    7  N6  UNL     1      22.992   3.508  51.215  1.00  0.00    -0.174 NA
ENDROOT
BRANCH   1   8
HETATM    8  C2  UNL     1      22.276   3.505  48.960  1.00  0.00     0.085 C 
HETATM    9  C1  UNL     1      22.706   2.766  47.971  1.00  0.00     0.053 C 
BRANCH   8  10
HETATM   10  S1  UNL     1      21.561   5.125  48.750  1.00  0.00    -0.102 SA
BRANCH  10  11
HETATM   11  C3  UNL     1      22.372   6.215  49.940  1.00  0.00     0.184 C 
BRANCH  11  12
HETATM   12  C4  UNL     1      23.816   6.287  49.604  1.00  0.00     0.231 C 
HETATM   13  O1  UNL     1      24.141   6.557  48.400  1.00  0.00    -0.272 OA
HETATM   14  N1  UNL     1      24.914   6.089  50.481  1.00  0.00    -0.325 N 
HETATM   15  H5  UNL     1      24.669   5.868  51.469  1.00  0.00     0.169 HD
BRANCH  14  16
HETATM   16  C5  UNL     1      26.093   6.272  49.672  1.00  0.00     0.062 A 
HETATM   17  C6  UNL     1      26.585   5.027  49.287  1.00  0.00    -0.034 A 
HETATM   18  C7  UNL     1      26.017   3.700  49.633  1.00  0.00     0.050 C 
HETATM   19  C8  UNL     1      27.732   4.978  48.492  1.00  0.00     0.009 A 
HETATM   20  C9  UNL     1      28.332   6.144  48.119  1.00  0.00     0.002 A 
HETATM   21  C10 UNL     1      27.834   7.374  48.510  1.00  0.00     0.026 A 
HETATM   22  C11 UNL     1      26.700   7.437  49.296  1.00  0.00     0.061 A 
HETATM   23 CL1  UNL     1      25.923   8.885  49.886  1.00  0.00    -0.082 Cl
ENDBRANCH  14  16
ENDBRANCH  11  12
ENDBRANCH  10  11
ENDBRANCH   8  10
ENDBRANCH   1   8
BRANCH   4  24
HETATM   24  N3  UNL     1      24.250   0.912  53.146  1.00  0.00    -0.396 N 
HETATM   25  C15 UNL     1      24.178  -0.390  53.673  1.00  0.00     0.148 C 
HETATM   26  C16 UNL     1      25.396  -0.569  54.555  1.00  0.00     0.294 C 
HETATM   27  N4  UNL     1      26.634  -0.435  53.753  1.00  0.00     0.116 N 
HETATM   28  C18 UNL     1      26.314  -0.110  52.410  1.00  0.00     0.294 C 
HETATM   29  C19 UNL     1      25.319   1.010  52.220  1.00  0.00     0.148 C 
BRANCH  27  30
HETATM   30  C17 UNL     1      27.581   0.361  54.449  1.00  0.00     0.472 C 
BRANCH  30  31
HETATM   31  O2  UNL     1      27.276   1.674  54.550  1.00  0.00    -0.257 OA
BRANCH  31  32
HETATM   32  N5  UNL     1      28.001   2.575  53.951  1.00  0.00    -0.309 N 
HETATM   33  H21 UNL     1      28.882   2.229  53.504  1.00  0.00     0.184 HD
HETATM   34  H22 UNL     1      28.147   3.492  54.430  1.00  0.00     0.184 HD
ENDBRANCH  31  32
ENDBRANCH  30  31
ENDBRANCH  27  30
ENDBRANCH   4  24
TORSDOF 9
ENDMDL
MODEL 2
REMARK VINA RESULT:      -8.1      2.604      6.948
REMARK  9 active torsions:
REMARK  status: ('A' for Active; 'I' for Inactive)
REMARK    1  A    between atoms: C2_2  and  S1_3 
REMARK    2  A    between atoms: C2_2  and  N2_16 
REMARK    3  A    between atoms: S1_3  and  C3_4 
REMARK    4  A    between atoms: C3_4  and  C4_5 
REMARK       I    between atoms: C4_5  and  N1_7 
REMARK    5  A    between atoms: N1_7  and  C5_8 
REMARK    6  A    between atoms: C14_19  and  N3_20 
REMARK    7  A    between atoms: N4_23  and  C17_24 
REMARK    8  A    between atoms: C17_24  and  O2_25 
REMARK    9  A    between atoms: O2_25  and  N5_26 
ROOT
HETATM    1  N2  UNL     1      22.852   1.871  50.699  1.00  0.00    -0.240 N 
HETATM    2  C12 UNL     1      22.272   2.480  49.562  1.00  0.00     0.118 A 
HETATM    3  C13 UNL     1      23.114   3.235  48.881  1.00  0.00     0.023 A 
HETATM    4  C14 UNL     1      24.558   3.570  49.077  1.00  0.00     0.153 A 
HETATM    5  C20 UNL     1      24.997   2.849  50.296  1.00  0.00     0.055 A 
HETATM    6  C21 UNL     1      26.382   2.881  50.861  1.00  0.00     0.070 C 
HETATM    7  N6  UNL     1      24.191   2.091  51.002  1.00  0.00    -0.174 NA
ENDROOT
BRANCH   1   8
HETATM    8  C2  UNL     1      22.185   1.006  51.634  1.00  0.00     0.085 C 
HETATM    9  C1  UNL     1      21.312   0.317  50.949  1.00  0.00     0.053 C 
BRANCH   8  10
HETATM   10  S1  UNL     1      22.436   0.827  53.390  1.00  0.00    -0.102 SA
BRANCH  10  11
HETATM   11  C3  UNL     1      23.243  -0.768  53.646  1.00  0.00     0.184 C 
BRANCH  11  12
HETATM   12  C4  UNL     1      24.711  -0.550  53.696  1.00  0.00     0.231 C 
HETATM   13  O1  UNL     1      25.316  -0.788  54.792  1.00  0.00    -0.272 OA
HETATM   14  N1  UNL     1      25.549  -0.099  52.643  1.00  0.00    -0.325 N 
HETATM   15  H5  UNL     1      25.072   0.101  51.740  1.00  0.00     0.169 HD
BRANCH  14  16
HETATM   16  C5  UNL     1      26.879  -0.060  53.198  1.00  0.00     0.062 A 
HETATM   17  C6  UNL     1      27.537  -1.250  52.901  1.00  0.00    -0.034 A 
HETATM   18  C7  UNL     1      26.993  -2.402  52.138  1.00  0.00     0.050 C 
HETATM   19  C8  UNL     1      28.849  -1.420  53.350  1.00  0.00     0.009 A 
HETATM   20  C9  UNL     1      29.441  -0.419  54.062  1.00  0.00     0.002 A 
HETATM   21  C10 UNL     1      28.775   0.758  54.351  1.00  0.00     0.026 A 
HETATM   22  C11 UNL     1      27.479   0.939  53.913  1.00  0.00     0.061 A 
HETATM   23 CL1  UNL     1      26.479   2.346  54.176  1.00  0.00    -0.082 Cl
ENDBRANCH  14  16
ENDBRANCH  11  12
ENDBRANCH  10  11
ENDBRANCH   8  10
ENDBRANCH   1   8
BRANCH   4  24
HETATM   24  N3  UNL     1      24.656   4.973  49.121  1.00  0.00    -0.396 N 
HETATM   25  C15 UNL     1      25.903   5.617  49.058  1.00  0.00     0.148 C 
HETATM   26  C16 UNL     1      25.744   6.943  49.773  1.00  0.00     0.294 C 
HETATM   27  N4  UNL     1      24.730   7.776  49.087  1.00  0.00     0.116 N 
HETATM   28  C18 UNL     1      24.158   7.058  48.005  1.00  0.00     0.294 C 
HETATM   29  C19 UNL     1      23.710   5.649  48.309  1.00  0.00     0.148 C 
BRANCH  27  30
HETATM   30  C17 UNL     1      23.873   8.384  50.042  1.00  0.00     0.472 C 
BRANCH  30  31
HETATM   31  O2  UNL     1      23.618   7.648  51.148  1.00  0.00    -0.257 OA
BRANCH  31  32
HETATM   32  N5  UNL     1      22.441   7.130  51.347  1.00  0.00    -0.309 N 
HETATM   33  H21 UNL     1      22.246   6.231  50.847  1.00  0.00     0.184 HD
HETATM   34  H22 UNL     1      21.611   7.766  51.333  1.00  0.00     0.184 HD
ENDBRANCH  31  32
ENDBRANCH  30  31
ENDBRANCH  27  30
ENDBRANCH   4  24
TORSDOF 9
ENDMDL
MODEL 3
REMARK VINA RESULT:      -8.1      3.506      4.925
REMARK  9 active torsions:
REMARK  status: ('A' for Active; 'I' for Inactive)
REMARK    1  A    between atoms: C2_2  and  S1_3 
REMARK    2  A    between atoms: C2_2  and  N2_16 
REMARK    3  A    between atoms: S1_3  and  C3_4 
REMARK    4  A    between atoms: C3_4  and  C4_5 
REMARK       I    between atoms: C4_5  and  N1_7 
REMARK    5  A    between atoms: N1_7  and  C5_8 
REMARK    6  A    between atoms: C14_19  and  N3_20 
REMARK    7  A    between atoms: N4_23  and  C17_24 
REMARK    8  A    between atoms: C17_24  and  O2_25 
REMARK    9  A    between atoms: O2_25  and  N5_26 
ROOT
HETATM    1  N2  UNL     1      25.713   5.020  50.152  1.00  0.00    -0.240 N 
HETATM    2  C12 UNL     1      26.596   4.103  49.535  1.00  0.00     0.118 A 
HETATM    3  C13 UNL     1      26.441   2.860  49.951  1.00  0.00     0.023 A 
HETATM    4  C14 UNL     1      25.516   2.234  50.947  1.00  0.00     0.153 A 
HETATM    5  C20 UNL     1      24.671   3.328  51.483  1.00  0.00     0.055 A 
HETATM    6  C21 UNL     1      23.587   3.156  52.499  1.00  0.00     0.070 C 
HETATM    7  N6  UNL     1      24.795   4.577  51.096  1.00  0.00    -0.174 NA
ENDROOT
BRANCH   1   8
HETATM    8  C2  UNL     1      25.652   6.436  49.911  1.00  0.00     0.085 C 
HETATM    9  C1  UNL     1      24.720   6.909  50.695  1.00  0.00     0.053 C 
BRANCH   8  10
HETATM   10  S1  UNL     1      26.617   7.440  48.798  1.00  0.00    -0.102 SA
BRANCH  10  11
HETATM   11  C3  UNL     1      27.275   8.815  49.767  1.00  0.00     0.184 C 
BRANCH  11  12
HETATM   12  C4  UNL     1      28.632   9.139  49.262  1.00  0.00     0.231 C 
HETATM   13  O1  UNL     1      28.886   8.917  48.032  1.00  0.00    -0.272 OA
HETATM   14  N1  UNL     1      29.716   9.684  50.000  1.00  0.00    -0.325 N 
HETATM   15  H5  UNL     1      29.528   9.871  51.007  1.00  0.00     0.169 HD
BRANCH  14  16
HETATM   16  C5  UNL     1      30.799   9.812  49.057  1.00  0.00     0.062 A 
HETATM   17  C6  UNL     1      30.840  11.119  48.578  1.00  0.00    -0.034 A 
HETATM   18  C7  UNL     1      29.932  12.233  48.950  1.00  0.00     0.050 C 
HETATM   19  C8  UNL     1      31.824  11.459  47.646  1.00  0.00     0.009 A 
HETATM   20  C9  UNL     1      32.709  10.505  47.237  1.00  0.00     0.002 A 
HETATM   21  C10 UNL     1      32.656   9.211  47.721  1.00  0.00     0.026 A 
HETATM   22  C11 UNL     1      31.689   8.861  48.642  1.00  0.00     0.061 A 
HETATM   23 CL1  UNL     1      31.463   7.288  49.366  1.00  0.00    -0.082 Cl
ENDBRANCH  14  16
ENDBRANCH  11  12
ENDBRANCH  10  11
ENDBRANCH   8  10
ENDBRANCH   1   8
BRANCH   4  24
HETATM   24  N3  UNL     1      26.315   1.556  51.885  1.00  0.00    -0.396 N 
HETATM   25  C15 UNL     1      27.059   2.258  52.848  1.00  0.00     0.148 C 
HETATM   26  C16 UNL     1      28.241   1.382  53.208  1.00  0.00     0.294 C 
HETATM   27  N4  UNL     1      27.773   0.104  53.790  1.00  0.00     0.116 N 
HETATM   28  C18 UNL     1      26.356   0.049  53.774  1.00  0.00     0.294 C 
HETATM   29  C19 UNL     1      25.693   0.424  52.471  1.00  0.00     0.148 C 
BRANCH  27  30
HETATM   30  C17 UNL     1      28.511  -0.980  53.243  1.00  0.00     0.472 C 
BRANCH  30  31
HETATM   31  O2  UNL     1      27.868  -2.169  53.221  1.00  0.00    -0.257 OA
BRANCH  31  32
HETATM   32  N5  UNL     1      28.533  -3.285  53.129  1.00  0.00    -0.309 N 
HETATM   33  H21 UNL     1      28.315  -3.879  52.296  1.00  0.00     0.184 HD
HETATM   34  H22 UNL     1      28.656  -3.861  53.992  1.00  0.00     0.184 HD
ENDBRANCH  31  32
ENDBRANCH  30  31
ENDBRANCH  27  30
ENDBRANCH   4  24
TORSDOF 9
ENDMDL
MODEL 4
REMARK VINA RESULT:      -8.0      3.310      4.568
REMARK  9 active torsions:
REMARK  status: ('A' for Active; 'I' for Inactive)
REMARK    1  A    between atoms: C2_2  and  S1_3 
REMARK    2  A    between atoms: C2_2  and  N2_16 
REMARK    3  A    between atoms: S1_3  and  C3_4 
REMARK    4  A    between atoms: C3_4  and  C4_5 
REMARK       I    between atoms: C4_5  and  N1_7 
REMARK    5  A    between atoms: N1_7  and  C5_8 
REMARK    6  A    between atoms: C14_19  and  N3_20 
REMARK    7  A    between atoms: N4_23  and  C17_24 
REMARK    8  A    between atoms: C17_24  and  O2_25 
REMARK    9  A    between atoms: O2_25  and  N5_26 
ROOT
HETATM    1  N2  UNL     1      25.569   4.942  50.256  1.00  0.00    -0.240 N 
HETATM    2  C12 UNL     1      26.490   4.067  49.634  1.00  0.00     0.118 A 
HETATM    3  C13 UNL     1      26.378   2.814  50.034  1.00  0.00     0.023 A 
HETATM    4  C14 UNL     1      25.470   2.142  51.015  1.00  0.00     0.153 A 
HETATM    5  C20 UNL     1      24.581   3.197  51.558  1.00  0.00     0.055 A 
HETATM    6  C21 UNL     1      23.497   2.972  52.564  1.00  0.00     0.070 C 
HETATM    7  N6  UNL     1      24.661   4.453  51.187  1.00  0.00    -0.174 NA
ENDROOT
BRANCH   1   8
HETATM    8  C2  UNL     1      25.457   6.358  50.032  1.00  0.00     0.085 C 
HETATM    9  C1  UNL     1      24.443   6.771  50.746  1.00  0.00     0.053 C 
BRANCH   8  10
HETATM   10  S1  UNL     1      26.457   7.428  49.015  1.00  0.00    -0.102 SA
BRANCH  10  11
HETATM   11  C3  UNL     1      27.091   8.733  50.091  1.00  0.00     0.184 C 
BRANCH  11  12
HETATM   12  C4  UNL     1      28.327   9.286  49.482  1.00  0.00     0.231 C 
HETATM   13  O1  UNL     1      28.361   9.430  48.216  1.00  0.00    -0.272 OA
HETATM   14  N1  UNL     1      29.511   9.687  50.155  1.00  0.00    -0.325 N 
HETATM   15  H5  UNL     1      29.502   9.577  51.190  1.00  0.00     0.169 HD
BRANCH  14  16
HETATM   16  C5  UNL     1      30.403  10.151  49.122  1.00  0.00     0.062 A 
HETATM   17  C6  UNL     1      31.266   9.119  48.762  1.00  0.00    -0.034 A 
HETATM   18  C7  UNL     1      31.296   7.746  49.326  1.00  0.00     0.050 C 
HETATM   19  C8  UNL     1      32.218   9.359  47.769  1.00  0.00     0.009 A 
HETATM   20  C9  UNL     1      32.274  10.592  47.187  1.00  0.00     0.002 A 
HETATM   21  C10 UNL     1      31.412  11.608  47.556  1.00  0.00     0.026 A 
HETATM   22  C11 UNL     1      30.465  11.384  48.535  1.00  0.00     0.061 A 
HETATM   23 CL1  UNL     1      29.295  12.533  49.133  1.00  0.00    -0.082 Cl
ENDBRANCH  14  16
ENDBRANCH  11  12
ENDBRANCH  10  11
ENDBRANCH   8  10
ENDBRANCH   1   8
BRANCH   4  24
HETATM   24  N3  UNL     1      26.287   1.481  51.950  1.00  0.00    -0.396 N 
HETATM   25  C15 UNL     1      26.985   2.197  52.938  1.00  0.00     0.148 C 
HETATM   26  C16 UNL     1      28.201   1.369  53.297  1.00  0.00     0.294 C 
HETATM   27  N4  UNL     1      27.786   0.058  53.846  1.00  0.00     0.116 N 
HETATM   28  C18 UNL     1      26.372  -0.061  53.809  1.00  0.00     0.294 C 
HETATM   29  C19 UNL     1      25.711   0.310  52.504  1.00  0.00     0.148 C 
BRANCH  27  30
HETATM   30  C17 UNL     1      28.581  -0.978  53.288  1.00  0.00     0.472 C 
BRANCH  30  31
HETATM   31  O2  UNL     1      27.936  -2.142  53.051  1.00  0.00    -0.257 OA
BRANCH  31  32
HETATM   32  N5  UNL     1      28.538  -3.284  53.220  1.00  0.00    -0.309 N 
HETATM   33  H21 UNL     1      28.347  -4.013  52.493  1.00  0.00     0.184 HD
HETATM   34  H22 UNL     1      28.563  -3.694  54.180  1.00  0.00     0.184 HD
ENDBRANCH  31  32
ENDBRANCH  30  31
ENDBRANCH  27  30
ENDBRANCH   4  24
TORSDOF 9
ENDMDL
MODEL 5
REMARK VINA RESULT:      -7.7      2.167      3.277
REMARK  9 active torsions:
REMARK  status: ('A' for Active; 'I' for Inactive)
REMARK    1  A    between atoms: C2_2  and  S1_3 
REMARK    2  A    between atoms: C2_2  and  N2_16 
REMARK    3  A    between atoms: S1_3  and  C3_4 
REMARK    4  A    between atoms: C3_4  and  C4_5 
REMARK       I    between atoms: C4_5  and  N1_7 
REMARK    5  A    between atoms: N1_7  and  C5_8 
REMARK    6  A    between atoms: C14_19  and  N3_20 
REMARK    7  A    between atoms: N4_23  and  C17_24 
REMARK    8  A    between atoms: C17_24  and  O2_25 
REMARK    9  A    between atoms: O2_25  and  N5_26 
ROOT
HETATM    1  N2  UNL     1      24.126   4.162  51.224  1.00  0.00    -0.240 N 
HETATM    2  C12 UNL     1      25.330   3.816  50.568  1.00  0.00     0.118 A 
HETATM    3  C13 UNL     1      25.720   2.577  50.802  1.00  0.00     0.023 A 
HETATM    4  C14 UNL     1      25.140   1.471  51.625  1.00  0.00     0.153 A 
HETATM    5  C20 UNL     1      23.894   2.004  52.228  1.00  0.00     0.055 A 
HETATM    6  C21 UNL     1      22.973   1.232  53.119  1.00  0.00     0.070 C 
HETATM    7  N6  UNL     1      23.473   3.230  52.021  1.00  0.00    -0.174 NA
ENDROOT
BRANCH   1   8
HETATM    8  C2  UNL     1      23.462   5.436  51.168  1.00  0.00     0.085 C 
HETATM    9  C1  UNL     1      22.182   5.196  51.269  1.00  0.00     0.053 C 
BRANCH   8  10
HETATM   10  S1  UNL     1      24.156   7.071  51.007  1.00  0.00    -0.102 SA
BRANCH  10  11
HETATM   11  C3  UNL     1      24.258   7.427  49.240  1.00  0.00     0.184 C 
BRANCH  11  12
HETATM   12  C4  UNL     1      25.688   7.441  48.844  1.00  0.00     0.231 C 
HETATM   13  O1  UNL     1      25.967   7.480  47.600  1.00  0.00    -0.272 OA
HETATM   14  N1  UNL     1      26.818   7.418  49.703  1.00  0.00    -0.325 N 
HETATM   15  H5  UNL     1      26.610   7.386  50.722  1.00  0.00     0.169 HD
BRANCH  14  16
HETATM   16  C5  UNL     1      27.966   7.450  48.831  1.00  0.00     0.062 A 
HETATM   17  C6  UNL     1      28.404   8.765  48.694  1.00  0.00    -0.034 A 
HETATM   18  C7  UNL     1      27.811   9.971  49.325  1.00  0.00     0.050 C 
HETATM   19  C8  UNL     1      29.514   9.020  47.886  1.00  0.00     0.009 A 
HETATM   20  C9  UNL     1      30.131   7.978  47.258  1.00  0.00     0.002 A 
HETATM   21  C10 UNL     1      29.686   6.677  47.403  1.00  0.00     0.026 A 
HETATM   22  C11 UNL     1      28.590   6.411  48.200  1.00  0.00     0.061 A 
HETATM   23 CL1  UNL     1      27.882   4.844  48.505  1.00  0.00    -0.082 Cl
ENDBRANCH  14  16
ENDBRANCH  11  12
ENDBRANCH  10  11
ENDBRANCH   8  10
ENDBRANCH   1   8
BRANCH   4  24
HETATM   24  N3  UNL     1      26.136   1.060  52.529  1.00  0.00    -0.396 N 
HETATM   25  C15 UNL     1      26.797   1.988  53.352  1.00  0.00     0.148 C 
HETATM   26  C16 UNL     1      28.160   1.401  53.659  1.00  0.00     0.294 C 
HETATM   27  N4  UNL     1      28.015   0.120  54.386  1.00  0.00     0.116 N 
HETATM   28  C18 UNL     1      26.642  -0.214  54.519  1.00  0.00     0.294 C 
HETATM   29  C19 UNL     1      25.811  -0.108  53.264  1.00  0.00     0.148 C 
BRANCH  27  30
HETATM   30  C17 UNL     1      28.911  -0.845  53.857  1.00  0.00     0.472 C 
BRANCH  30  31
HETATM   31  O2  UNL     1      28.336  -1.871  53.190  1.00  0.00    -0.257 OA
BRANCH  31  32
HETATM   32  N5  UNL     1      28.785  -3.086  53.318  1.00  0.00    -0.309 N 
HETATM   33  H21 UNL     1      28.991  -3.395  54.297  1.00  0.00     0.184 HD
HETATM   34  H22 UNL     1      29.513  -3.418  52.647  1.00  0.00     0.184 HD
ENDBRANCH  31  32
ENDBRANCH  30  31
ENDBRANCH  27  30
ENDBRANCH   4  24
TORSDOF 9
ENDMDL
MODEL 6
REMARK VINA RESULT:      -7.7      3.493      7.912
REMARK  9 active torsions:
REMARK  status: ('A' for Active; 'I' for Inactive)
REMARK    1  A    between atoms: C2_2  and  S1_3 
REMARK    2  A    between atoms: C2_2  and  N2_16 
REMARK    3  A    between atoms: S1_3  and  C3_4 
REMARK    4  A    between atoms: C3_4  and  C4_5 
REMARK       I    between atoms: C4_5  and  N1_7 
REMARK    5  A    between atoms: N1_7  and  C5_8 
REMARK    6  A    between atoms: C14_19  and  N3_20 
REMARK    7  A    between atoms: N4_23  and  C17_24 
REMARK    8  A    between atoms: C17_24  and  O2_25 
REMARK    9  A    between atoms: O2_25  and  N5_26 
ROOT
HETATM    1  N2  UNL     1      25.047   6.043  48.958  1.00  0.00    -0.240 N 
HETATM    2  C12 UNL     1      24.756   7.224  48.236  1.00  0.00     0.118 A 
HETATM    3  C13 UNL     1      25.798   7.721  47.597  1.00  0.00     0.023 A 
HETATM    4  C14 UNL     1      27.224   7.281  47.490  1.00  0.00     0.153 A 
HETATM    5  C20 UNL     1      27.344   6.041  48.294  1.00  0.00     0.055 A 
HETATM    6  C21 UNL     1      28.598   5.241  48.457  1.00  0.00     0.070 C 
HETATM    7  N6  UNL     1      26.332   5.516  48.945  1.00  0.00    -0.174 NA
ENDROOT
BRANCH   1   8
HETATM    8  C2  UNL     1      24.121   5.282  49.753  1.00  0.00     0.085 C 
HETATM    9  C1  UNL     1      23.622   4.363  48.970  1.00  0.00     0.053 C 
BRANCH   8  10
HETATM   10  S1  UNL     1      23.683   5.468  51.471  1.00  0.00    -0.102 SA
BRANCH  10  11
HETATM   11  C3  UNL     1      22.699   4.022  51.922  1.00  0.00     0.184 C 
BRANCH  11  12
HETATM   12  C4  UNL     1      23.623   2.907  52.249  1.00  0.00     0.231 C 
HETATM   13  O1  UNL     1      24.238   2.944  53.366  1.00  0.00    -0.272 OA
HETATM   14  N1  UNL     1      23.916   1.771  51.450  1.00  0.00    -0.325 N 
HETATM   15  H5  UNL     1      23.424   1.723  50.534  1.00  0.00     0.169 HD
BRANCH  14  16
HETATM   16  C5  UNL     1      24.861   0.995  52.214  1.00  0.00     0.062 A 
HETATM   17  C6  UNL     1      26.155   1.346  51.839  1.00  0.00    -0.034 A 
HETATM   18  C7  UNL     1      26.544   2.352  50.818  1.00  0.00     0.050 C 
HETATM   19  C8  UNL     1      27.229   0.707  52.463  1.00  0.00     0.009 A 
HETATM   20  C9  UNL     1      26.978  -0.236  53.415  1.00  0.00     0.002 A 
HETATM   21  C10 UNL     1      25.687  -0.575  53.778  1.00  0.00     0.026 A 
HETATM   22  C11 UNL     1      24.617   0.049  53.170  1.00  0.00     0.061 A 
HETATM   23 CL1  UNL     1      22.925  -0.241  53.490  1.00  0.00    -0.082 Cl
ENDBRANCH  14  16
ENDBRANCH  11  12
ENDBRANCH  10  11
ENDBRANCH   8  10
ENDBRANCH   1   8
BRANCH   4  24
HETATM   24  N3  UNL     1      28.024   8.363  47.900  1.00  0.00    -0.396 N 
HETATM   25  C15 UNL     1      28.234   9.471  47.061  1.00  0.00     0.148 C 
HETATM   26  C16 UNL     1      29.569  10.068  47.457  1.00  0.00     0.294 C 
HETATM   27  N4  UNL     1      29.529  10.523  48.865  1.00  0.00     0.116 N 
HETATM   28  C18 UNL     1      28.276  10.203  49.448  1.00  0.00     0.294 C 
HETATM   29  C19 UNL     1      27.788   8.791  49.232  1.00  0.00     0.148 C 
BRANCH  27  30
HETATM   30  C17 UNL     1      30.720  10.139  49.536  1.00  0.00     0.472 C 
BRANCH  30  31
HETATM   31  O2  UNL     1      31.296   8.999  49.092  1.00  0.00    -0.257 OA
BRANCH  31  32
HETATM   32  N5  UNL     1      31.223   7.900  49.787  1.00  0.00    -0.309 N 
HETATM   33  H21 UNL     1      31.841   7.851  50.630  1.00  0.00     0.184 HD
HETATM   34  H22 UNL     1      31.198   6.990  49.274  1.00  0.00     0.184 HD
ENDBRANCH  31  32
ENDBRANCH  30  31
ENDBRANCH  27  30
ENDBRANCH   4  24
TORSDOF 9
ENDMDL
MODEL 7
REMARK VINA RESULT:      -7.6      1.740      2.410
REMARK  9 active torsions:
REMARK  status: ('A' for Active; 'I' for Inactive)
REMARK    1  A    between atoms: C2_2  and  S1_3 
REMARK    2  A    between atoms: C2_2  and  N2_16 
REMARK    3  A    between atoms: S1_3  and  C3_4 
REMARK    4  A    between atoms: C3_4  and  C4_5 
REMARK       I    between atoms: C4_5  and  N1_7 
REMARK    5  A    between atoms: N1_7  and  C5_8 
REMARK    6  A    between atoms: C14_19  and  N3_20 
REMARK    7  A    between atoms: N4_23  and  C17_24 
REMARK    8  A    between atoms: C17_24  and  O2_25 
REMARK    9  A    between atoms: O2_25  and  N5_26 
ROOT
HETATM    1  N2  UNL     1      23.233   3.881  51.262  1.00  0.00    -0.240 N 
HETATM    2  C12 UNL     1      24.421   3.563  50.565  1.00  0.00     0.118 A 
HETATM    3  C13 UNL     1      24.882   2.355  50.832  1.00  0.00     0.023 A 
HETATM    4  C14 UNL     1      24.393   1.260  51.726  1.00  0.00     0.153 A 
HETATM    5  C20 UNL     1      23.151   1.760  52.364  1.00  0.00     0.055 A 
HETATM    6  C21 UNL     1      22.309   0.986  53.328  1.00  0.00     0.070 C 
HETATM    7  N6  UNL     1      22.662   2.955  52.127  1.00  0.00    -0.174 NA
ENDROOT
BRANCH   1   8
HETATM    8  C2  UNL     1      22.506   5.119  51.184  1.00  0.00     0.085 C 
HETATM    9  C1  UNL     1      21.272   4.851  51.523  1.00  0.00     0.053 C 
BRANCH   8  10
HETATM   10  S1  UNL     1      23.082   6.746  50.739  1.00  0.00    -0.102 SA
BRANCH  10  11
HETATM   11  C3  UNL     1      23.388   6.727  48.959  1.00  0.00     0.184 C 
BRANCH  11  12
HETATM   12  C4  UNL     1      24.832   6.984  48.727  1.00  0.00     0.231 C 
HETATM   13  O1  UNL     1      25.199   7.338  47.558  1.00  0.00    -0.272 OA
HETATM   14  N1  UNL     1      25.885   6.885  49.673  1.00  0.00    -0.325 N 
HETATM   15  H5  UNL     1      25.605   6.597  50.633  1.00  0.00     0.169 HD
BRANCH  14  16
HETATM   16  C5  UNL     1      27.084   7.239  48.954  1.00  0.00     0.062 A 
HETATM   17  C6  UNL     1      27.734   6.078  48.544  1.00  0.00    -0.034 A 
HETATM   18  C7  UNL     1      27.299   4.680  48.787  1.00  0.00     0.050 C 
HETATM   19  C8  UNL     1      28.926   6.198  47.825  1.00  0.00     0.009 A 
HETATM   20  C9  UNL     1      29.414   7.441  47.550  1.00  0.00     0.002 A 
HETATM   21  C10 UNL     1      28.757   8.586  47.964  1.00  0.00     0.026 A 
HETATM   22  C11 UNL     1      27.578   8.482  48.675  1.00  0.00     0.061 A 
HETATM   23 CL1  UNL     1      26.609   9.803  49.280  1.00  0.00    -0.082 Cl
ENDBRANCH  14  16
ENDBRANCH  11  12
ENDBRANCH  10  11
ENDBRANCH   8  10
ENDBRANCH   1   8
BRANCH   4  24
HETATM   24  N3  UNL     1      25.447   0.936  52.599  1.00  0.00    -0.396 N 
HETATM   25  C15 UNL     1      25.971   1.888  53.490  1.00  0.00     0.148 C 
HETATM   26  C16 UNL     1      27.408   1.489  53.755  1.00  0.00     0.294 C 
HETATM   27  N4  UNL     1      27.461   0.150  54.385  1.00  0.00     0.116 N 
HETATM   28  C18 UNL     1      26.154  -0.393  54.491  1.00  0.00     0.294 C 
HETATM   29  C19 UNL     1      25.305  -0.319  53.245  1.00  0.00     0.148 C 
BRANCH  27  30
HETATM   30  C17 UNL     1      28.486  -0.630  53.787  1.00  0.00     0.472 C 
BRANCH  30  31
HETATM   31  O2  UNL     1      28.113  -1.862  53.374  1.00  0.00    -0.257 OA
BRANCH  31  32
HETATM   32  N5  UNL     1      28.973  -2.838  53.328  1.00  0.00    -0.309 N 
HETATM   33  H21 UNL     1      28.568  -3.801  53.247  1.00  0.00     0.184 HD
HETATM   34  H22 UNL     1      29.784  -2.816  53.986  1.00  0.00     0.184 HD
ENDBRANCH  31  32
ENDBRANCH  30  31
ENDBRANCH  27  30
ENDBRANCH   4  24
TORSDOF 9
ENDMDL
MODEL 8
REMARK VINA RESULT:      -7.4      2.046      2.939
REMARK  9 active torsions:
REMARK  status: ('A' for Active; 'I' for Inactive)
REMARK    1  A    between atoms: C2_2  and  S1_3 
REMARK    2  A    between atoms: C2_2  and  N2_16 
REMARK    3  A    between atoms: S1_3  and  C3_4 
REMARK    4  A    between atoms: C3_4  and  C4_5 
REMARK       I    between atoms: C4_5  and  N1_7 
REMARK    5  A    between atoms: N1_7  and  C5_8 
REMARK    6  A    between atoms: C14_19  and  N3_20 
REMARK    7  A    between atoms: N4_23  and  C17_24 
REMARK    8  A    between atoms: C17_24  and  O2_25 
REMARK    9  A    between atoms: O2_25  and  N5_26 
ROOT
HETATM    1  N2  UNL     1      22.729   2.644  49.969  1.00  0.00    -0.240 N 
HETATM    2  C12 UNL     1      22.313   2.395  51.297  1.00  0.00     0.118 A 
HETATM    3  C13 UNL     1      23.284   2.513  52.184  1.00  0.00     0.023 A 
HETATM    4  C14 UNL     1      24.735   2.856  52.057  1.00  0.00     0.153 A 
HETATM    5  C20 UNL     1      24.988   3.086  50.614  1.00  0.00     0.055 A 
HETATM    6  C21 UNL     1      26.308   3.474  50.026  1.00  0.00     0.070 C 
HETATM    7  N6  UNL     1      24.051   2.978  49.702  1.00  0.00    -0.174 NA
ENDROOT
BRANCH   1   8
HETATM    8  C2  UNL     1      21.903   2.583  48.793  1.00  0.00     0.085 C 
HETATM    9  C1  UNL     1      21.550   1.332  48.649  1.00  0.00     0.053 C 
BRANCH   8  10
HETATM   10  S1  UNL     1      21.394   3.891  47.695  1.00  0.00    -0.102 SA
BRANCH  10  11
HETATM   11  C3  UNL     1      20.924   5.294  48.731  1.00  0.00     0.184 C 
BRANCH  11  12
HETATM   12  C4  UNL     1      22.089   6.208  48.842  1.00  0.00     0.231 C 
HETATM   13  O1  UNL     1      21.882   7.400  49.243  1.00  0.00    -0.272 OA
HETATM   14  N1  UNL     1      23.446   5.910  48.551  1.00  0.00    -0.325 N 
HETATM   15  H5  UNL     1      23.635   4.940  48.222  1.00  0.00     0.169 HD
BRANCH  14  16
HETATM   16  C5  UNL     1      24.175   7.123  48.824  1.00  0.00     0.062 A 
HETATM   17  C6  UNL     1      24.341   7.836  47.639  1.00  0.00    -0.034 A 
HETATM   18  C7  UNL     1      23.862   7.445  46.290  1.00  0.00     0.050 C 
HETATM   19  C8  UNL     1      25.027   9.053  47.681  1.00  0.00     0.009 A 
HETATM   20  C9  UNL     1      25.510   9.502  48.875  1.00  0.00     0.002 A 
HETATM   21  C10 UNL     1      25.338   8.783  50.044  1.00  0.00     0.026 A 
HETATM   22  C11 UNL     1      24.662   7.579  50.017  1.00  0.00     0.061 A 
HETATM   23 CL1  UNL     1      24.346   6.533  51.378  1.00  0.00    -0.082 Cl
ENDBRANCH  14  16
ENDBRANCH  11  12
ENDBRANCH  10  11
ENDBRANCH   8  10
ENDBRANCH   1   8
BRANCH   4  24
HETATM   24  N3  UNL     1      25.461   1.809  52.652  1.00  0.00    -0.396 N 
HETATM   25  C15 UNL     1      26.187   2.011  53.839  1.00  0.00     0.148 C 
HETATM   26  C16 UNL     1      27.316   1.001  53.835  1.00  0.00     0.294 C 
HETATM   27  N4  UNL     1      26.771  -0.376  53.824  1.00  0.00     0.116 N 
HETATM   28  C18 UNL     1      25.355  -0.341  53.751  1.00  0.00     0.294 C 
HETATM   29  C19 UNL     1      24.769   0.573  52.702  1.00  0.00     0.148 C 
BRANCH  27  30
HETATM   30  C17 UNL     1      27.491  -1.177  52.899  1.00  0.00     0.472 C 
BRANCH  30  31
HETATM   31  O2  UNL     1      27.436  -2.510  53.118  1.00  0.00    -0.257 OA
BRANCH  31  32
HETATM   32  N5  UNL     1      28.521  -3.230  53.128  1.00  0.00    -0.309 N 
HETATM   33  H21 UNL     1      29.345  -2.807  53.617  1.00  0.00     0.184 HD
HETATM   34  H22 UNL     1      28.803  -3.714  52.246  1.00  0.00     0.184 HD
ENDBRANCH  31  32
ENDBRANCH  30  31
ENDBRANCH  27  30
ENDBRANCH   4  24
TORSDOF 9
ENDMDL
MODEL 9
REMARK VINA RESULT:      -7.3      3.795      8.604
REMARK  9 active torsions:
REMARK  status: ('A' for Active; 'I' for Inactive)
REMARK    1  A    between atoms: C2_2  and  S1_3 
REMARK    2  A    between atoms: C2_2  and  N2_16 
REMARK    3  A    between atoms: S1_3  and  C3_4 
REMARK    4  A    between atoms: C3_4  and  C4_5 
REMARK       I    between atoms: C4_5  and  N1_7 
REMARK    5  A    between atoms: N1_7  and  C5_8 
REMARK    6  A    between atoms: C14_19  and  N3_20 
REMARK    7  A    between atoms: N4_23  and  C17_24 
REMARK    8  A    between atoms: C17_24  and  O2_25 
REMARK    9  A    between atoms: O2_25  and  N5_26 
ROOT
HETATM    1  N2  UNL     1      26.189   5.164  49.247  1.00  0.00    -0.240 N 
HETATM    2  C12 UNL     1      25.504   6.281  48.715  1.00  0.00     0.118 A 
HETATM    3  C13 UNL     1      26.260   7.052  47.956  1.00  0.00     0.023 A 
HETATM    4  C14 UNL     1      27.698   6.975  47.551  1.00  0.00     0.153 A 
HETATM    5  C20 UNL     1      28.251   5.755  48.188  1.00  0.00     0.055 A 
HETATM    6  C21 UNL     1      29.659   5.272  48.040  1.00  0.00     0.070 C 
HETATM    7  N6  UNL     1      27.532   4.963  48.950  1.00  0.00    -0.174 NA
ENDROOT
BRANCH   1   8
HETATM    8  C2  UNL     1      25.635   4.157  50.111  1.00  0.00     0.085 C 
HETATM    9  C1  UNL     1      26.318   3.064  49.898  1.00  0.00     0.053 C 
BRANCH   8  10
HETATM   10  S1  UNL     1      24.295   4.279  51.281  1.00  0.00    -0.102 SA
BRANCH  10  11
HETATM   11  C3  UNL     1      22.856   3.503  50.515  1.00  0.00     0.184 C 
BRANCH  11  12
HETATM   12  C4  UNL     1      22.425   2.367  51.367  1.00  0.00     0.231 C 
HETATM   13  O1  UNL     1      21.847   2.630  52.473  1.00  0.00    -0.272 OA
HETATM   14  N1  UNL     1      22.578   0.982  51.096  1.00  0.00    -0.325 N 
HETATM   15  H5  UNL     1      23.048   0.747  50.197  1.00  0.00     0.169 HD
BRANCH  14  16
HETATM   16  C5  UNL     1      21.994   0.300  52.224  1.00  0.00     0.062 A 
HETATM   17  C6  UNL     1      22.998  -0.029  53.132  1.00  0.00    -0.034 A 
HETATM   18  C7  UNL     1      24.448   0.256  52.999  1.00  0.00     0.050 C 
HETATM   19  C8  UNL     1      22.644  -0.700  54.305  1.00  0.00     0.009 A 
HETATM   20  C9  UNL     1      21.334  -1.010  54.524  1.00  0.00     0.002 A 
HETATM   21  C10 UNL     1      20.348  -0.677  53.612  1.00  0.00     0.026 A 
HETATM   22  C11 UNL     1      20.683  -0.014  52.449  1.00  0.00     0.061 A 
HETATM   23 CL1  UNL     1      19.588   0.489  51.185  1.00  0.00    -0.082 Cl
ENDBRANCH  14  16
ENDBRANCH  11  12
ENDBRANCH  10  11
ENDBRANCH   8  10
ENDBRANCH   1   8
BRANCH   4  24
HETATM   24  N3  UNL     1      28.299   8.191  47.923  1.00  0.00    -0.396 N 
HETATM   25  C15 UNL     1      28.359   9.274  47.030  1.00  0.00     0.148 C 
HETATM   26  C16 UNL     1      29.566  10.099  47.428  1.00  0.00     0.294 C 
HETATM   27  N4  UNL     1      29.404  10.612  48.808  1.00  0.00     0.116 N 
HETATM   28  C18 UNL     1      28.199  10.122  49.373  1.00  0.00     0.294 C 
HETATM   29  C19 UNL     1      27.951   8.640  49.222  1.00  0.00     0.148 C 
BRANCH  27  30
HETATM   30  C17 UNL     1      30.617  10.459  49.530  1.00  0.00     0.472 C 
BRANCH  30  31
HETATM   31  O2  UNL     1      31.360   9.379  49.198  1.00  0.00    -0.257 OA
BRANCH  31  32
HETATM   32  N5  UNL     1      31.388   8.327  49.965  1.00  0.00    -0.309 N 
HETATM   33  H21 UNL     1      30.527   8.154  50.534  1.00  0.00     0.184 HD
HETATM   34  H22 UNL     1      32.258   8.137  50.512  1.00  0.00     0.184 HD
ENDBRANCH  31  32
ENDBRANCH  30  31
ENDBRANCH  27  30
ENDBRANCH   4  24
TORSDOF 9
ENDMDL
