MODEL 1
REMARK VINA RESULT:      -8.1      0.000      0.000
REMARK  6 active torsions:
REMARK  status: ('A' for Active; 'I' for Inactive)
REMARK    1  A    between atoms: C2_2  and  O1_3 
REMARK    2  A    between atoms: O1_3  and  C3_4 
REMARK    3  A    between atoms: C3_4  and  C19_22 
REMARK    4  A    between atoms: C4_5  and  C5_6 
REMARK    5  A    between atoms: C5_6  and  C6_7 
REMARK    6  A    between atoms: C19_22  and  O3_23 
ROOT
HETATM    1  C5  UNL     1      24.076   0.916  52.297  1.00  0.00    -0.017 C 
HETATM    2  C11 UNL     1      25.158   0.351  52.809  1.00  0.00    -0.056 C 
HETATM    3  C12 UNL     1      25.710  -0.691  53.764  1.00  0.00     0.063 C 
HETATM    4  C13 UNL     1      26.632  -1.517  53.017  1.00  0.00    -0.022 C 
HETATM    5  C14 UNL     1      27.887  -1.843  52.761  1.00  0.00    -0.004 C 
HETATM    6  C15 UNL     1      29.233  -1.465  53.160  1.00  0.00    -0.004 C 
HETATM    7  C16 UNL     1      29.537  -0.548  54.036  1.00  0.00    -0.017 C 
HETATM    8  C17 UNL     1      28.302   0.014  54.590  1.00  0.00     0.101 C 
HETATM    9  S1  UNL     1      27.483   1.358  53.809  1.00  0.00    -0.161 SA
HETATM   10  C18 UNL     1      26.487   0.931  52.361  1.00  0.00     0.109 C 
ENDROOT
BRANCH   1  11
HETATM   11  C4  UNL     1      24.200   2.011  51.286  1.00  0.00     0.047 C 
HETATM   12  C3  UNL     1      24.102   3.293  50.959  1.00  0.00     0.070 C 
BRANCH  12  13
HETATM   13  O1  UNL     1      24.390   3.779  49.707  1.00  0.00    -0.354 OA
BRANCH  13  14
HETATM   14  C2  UNL     1      25.408   4.646  49.334  1.00  0.00     0.171 C 
HETATM   15  C1  UNL     1      26.742   3.887  49.396  1.00  0.00     0.034 C 
ENDBRANCH  13  14
ENDBRANCH  12  13
BRANCH  12  16
HETATM   16  C19 UNL     1      23.700   4.512  51.712  1.00  0.00     0.228 C 
BRANCH  16  17
HETATM   17  O3  UNL     1      24.069   4.462  53.052  1.00  0.00    -0.394 OA
HETATM   18  H24 UNL     1      23.307   4.713  53.637  1.00  0.00     0.209 HD
ENDBRANCH  16  17
ENDBRANCH  12  16
ENDBRANCH   1  11
BRANCH   1  19
HETATM   19  C6  UNL     1      22.666   0.656  52.684  1.00  0.00     0.017 C 
HETATM   20  C7  UNL     1      22.284   0.273  53.926  1.00  0.00    -0.010 C 
HETATM   21  C8  UNL     1      20.809   0.093  54.023  1.00  0.00     0.036 C 
HETATM   22  C9  UNL     1      20.400   1.113  52.925  1.00  0.00     0.087 C 
HETATM   23  C10 UNL     1      21.409   0.643  51.899  1.00  0.00     0.160 C 
HETATM   24  O2  UNL     1      21.367   0.296  50.699  1.00  0.00    -0.292 OA
ENDBRANCH   1  19
TORSDOF 6
ENDMDL
MODEL 2
REMARK VINA RESULT:      -8.0      2.504      6.542
REMARK  6 active torsions:
REMARK  status: ('A' for Active; 'I' for Inactive)
REMARK    1  A    between atoms: C2_2  and  O1_3 
REMARK    2  A    between atoms: O1_3  and  C3_4 
REMARK    3  A    between atoms: C3_4  and  C19_22 
REMARK    4  A    between atoms: C4_5  and  C5_6 
REMARK    5  A    between atoms: C5_6  and  C6_7 
REMARK    6  A    between atoms: C19_22  and  O3_23 
ROOT
HETATM    1  C5  UNL     1      25.070   0.536  52.635  1.00  0.00    -0.017 C 
HETATM    2  C11 UNL     1      24.872   1.675  51.990  1.00  0.00    -0.056 C 
HETATM    3  C12 UNL     1      25.509   2.875  51.315  1.00  0.00     0.063 C 
HETATM    4  C13 UNL     1      24.945   2.975  49.988  1.00  0.00    -0.022 C 
HETATM    5  C14 UNL     1      24.124   3.605  49.164  1.00  0.00    -0.004 C 
HETATM    6  C15 UNL     1      23.186   4.716  49.171  1.00  0.00    -0.004 C 
HETATM    7  C16 UNL     1      22.916   5.477  50.196  1.00  0.00    -0.017 C 
HETATM    8  C17 UNL     1      23.743   5.061  51.333  1.00  0.00     0.101 C 
HETATM    9  S1  UNL     1      23.215   3.794  52.428  1.00  0.00    -0.161 SA
HETATM   10  C18 UNL     1      23.424   2.101  51.823  1.00  0.00     0.109 C 
ENDROOT
BRANCH   1  11
HETATM   11  C4  UNL     1      23.909  -0.287  53.093  1.00  0.00     0.047 C 
HETATM   12  C3  UNL     1      23.265  -0.937  54.054  1.00  0.00     0.070 C 
BRANCH  12  13
HETATM   13  O1  UNL     1      22.076  -1.593  53.858  1.00  0.00    -0.354 OA
BRANCH  13  14
HETATM   14  C2  UNL     1      20.820  -1.265  54.353  1.00  0.00     0.171 C 
HETATM   15  C1  UNL     1      20.469   0.157  53.889  1.00  0.00     0.034 C 
ENDBRANCH  13  14
ENDBRANCH  12  13
BRANCH  12  16
HETATM   16  C19 UNL     1      23.548  -1.169  55.497  1.00  0.00     0.228 C 
BRANCH  16  17
HETATM   17  O3  UNL     1      24.852  -1.596  55.727  1.00  0.00    -0.394 OA
HETATM   18  H24 UNL     1      24.951  -2.559  55.508  1.00  0.00     0.209 HD
ENDBRANCH  16  17
ENDBRANCH  12  16
ENDBRANCH   1  11
BRANCH   1  19
HETATM   19  C6  UNL     1      26.373  -0.024  53.074  1.00  0.00     0.017 C 
HETATM   20  C7  UNL     1      26.970  -1.092  52.491  1.00  0.00    -0.010 C 
HETATM   21  C8  UNL     1      28.269  -1.425  53.139  1.00  0.00     0.036 C 
HETATM   22  C9  UNL     1      28.628   0.003  53.634  1.00  0.00     0.087 C 
HETATM   23  C10 UNL     1      27.263   0.311  54.210  1.00  0.00     0.160 C 
HETATM   24  O2  UNL     1      26.829   0.727  55.307  1.00  0.00    -0.292 OA
ENDBRANCH   1  19
TORSDOF 6
ENDMDL
MODEL 3
REMARK VINA RESULT:      -7.8      1.917      4.365
REMARK  6 active torsions:
REMARK  status: ('A' for Active; 'I' for Inactive)
REMARK    1  A    between atoms: C2_2  and  O1_3 
REMARK    2  A    between atoms: O1_3  and  C3_4 
REMARK    3  A    between atoms: C3_4  and  C19_22 
REMARK    4  A    between atoms: C4_5  and  C5_6 
REMARK    5  A    between atoms: C5_6  and  C6_7 
REMARK    6  A    between atoms: C19_22  and  O3_23 
ROOT
HETATM    1  C5  UNL     1      23.655   1.615  51.739  1.00  0.00    -0.017 C 
HETATM    2  C11 UNL     1      24.921   1.358  52.028  1.00  0.00    -0.056 C 
HETATM    3  C12 UNL     1      26.367   1.465  51.584  1.00  0.00     0.063 C 
HETATM    4  C13 UNL     1      27.104   2.096  52.656  1.00  0.00    -0.022 C 
HETATM    5  C14 UNL     1      27.965   1.965  53.651  1.00  0.00    -0.004 C 
HETATM    6  C15 UNL     1      28.748   0.932  54.308  1.00  0.00    -0.004 C 
HETATM    7  C16 UNL     1      28.774  -0.330  53.978  1.00  0.00    -0.017 C 
HETATM    8  C17 UNL     1      27.918  -0.535  52.805  1.00  0.00     0.101 C 
HETATM    9  S1  UNL     1      26.199  -0.853  52.978  1.00  0.00    -0.161 SA
HETATM   10  C18 UNL     1      25.167   0.594  53.317  1.00  0.00     0.109 C 
ENDROOT
BRANCH   1  11
HETATM   11  C4  UNL     1      22.567   1.220  52.686  1.00  0.00     0.047 C 
HETATM   12  C3  UNL     1      21.302   1.287  53.080  1.00  0.00     0.070 C 
BRANCH  12  13
HETATM   13  O1  UNL     1      20.811   0.611  54.170  1.00  0.00    -0.354 OA
BRANCH  13  14
HETATM   14  C2  UNL     1      21.439  -0.366  54.930  1.00  0.00     0.171 C 
HETATM   15  C1  UNL     1      21.177  -1.734  54.279  1.00  0.00     0.034 C 
ENDBRANCH  13  14
ENDBRANCH  12  13
BRANCH  12  16
HETATM   16  C19 UNL     1      20.109   2.015  52.567  1.00  0.00     0.228 C 
BRANCH  16  17
HETATM   17  O3  UNL     1      20.250   3.397  52.643  1.00  0.00    -0.394 OA
HETATM   18  H24 UNL     1      19.376   3.848  52.507  1.00  0.00     0.209 HD
ENDBRANCH  16  17
ENDBRANCH  12  16
ENDBRANCH   1  11
BRANCH   1  19
HETATM   19  C6  UNL     1      23.128   2.194  50.478  1.00  0.00     0.017 C 
HETATM   20  C7  UNL     1      23.254   3.501  50.138  1.00  0.00    -0.010 C 
HETATM   21  C8  UNL     1      22.635   3.793  48.816  1.00  0.00     0.036 C 
HETATM   22  C9  UNL     1      22.819   2.387  48.183  1.00  0.00     0.087 C 
HETATM   23  C10 UNL     1      22.316   1.614  49.384  1.00  0.00     0.160 C 
HETATM   24  O2  UNL     1      21.466   0.718  49.577  1.00  0.00    -0.292 OA
ENDBRANCH   1  19
TORSDOF 6
ENDMDL
MODEL 4
REMARK VINA RESULT:      -7.8      2.409      5.482
REMARK  6 active torsions:
REMARK  status: ('A' for Active; 'I' for Inactive)
REMARK    1  A    between atoms: C2_2  and  O1_3 
REMARK    2  A    between atoms: O1_3  and  C3_4 
REMARK    3  A    between atoms: C3_4  and  C19_22 
REMARK    4  A    between atoms: C4_5  and  C5_6 
REMARK    5  A    between atoms: C5_6  and  C6_7 
REMARK    6  A    between atoms: C19_22  and  O3_23 
ROOT
HETATM    1  C5  UNL     1      23.986   0.900  53.065  1.00  0.00    -0.017 C 
HETATM    2  C11 UNL     1      23.900   2.022  52.367  1.00  0.00    -0.056 C 
HETATM    3  C12 UNL     1      22.986   3.008  51.665  1.00  0.00     0.063 C 
HETATM    4  C13 UNL     1      23.282   4.322  52.191  1.00  0.00    -0.022 C 
HETATM    5  C14 UNL     1      23.842   5.505  51.999  1.00  0.00    -0.004 C 
HETATM    6  C15 UNL     1      24.597   6.220  50.983  1.00  0.00    -0.004 C 
HETATM    7  C16 UNL     1      24.934   5.751  49.814  1.00  0.00    -0.017 C 
HETATM    8  C17 UNL     1      24.393   4.396  49.667  1.00  0.00     0.101 C 
HETATM    9  S1  UNL     1      25.286   2.993  50.232  1.00  0.00    -0.161 SA
HETATM   10  C18 UNL     1      25.217   2.688  52.014  1.00  0.00     0.109 C 
ENDROOT
BRANCH   1  11
HETATM   11  C4  UNL     1      25.317   0.391  53.519  1.00  0.00     0.047 C 
HETATM   12  C3  UNL     1      26.325  -0.463  53.400  1.00  0.00     0.070 C 
BRANCH  12  13
HETATM   13  O1  UNL     1      27.433  -0.443  54.210  1.00  0.00    -0.354 OA
BRANCH  13  14
HETATM   14  C2  UNL     1      28.420   0.531  54.293  1.00  0.00     0.171 C 
HETATM   15  C1  UNL     1      29.716  -0.037  53.693  1.00  0.00     0.034 C 
ENDBRANCH  13  14
ENDBRANCH  12  13
BRANCH  12  16
HETATM   16  C19 UNL     1      26.596  -1.602  52.482  1.00  0.00     0.228 C 
BRANCH  16  17
HETATM   17  O3  UNL     1      27.327  -2.618  53.087  1.00  0.00    -0.394 OA
HETATM   18  H24 UNL     1      28.252  -2.650  52.727  1.00  0.00     0.209 HD
ENDBRANCH  16  17
ENDBRANCH  12  16
ENDBRANCH   1  11
BRANCH   1  19
HETATM   19  C6  UNL     1      22.878  -0.029  53.399  1.00  0.00     0.017 C 
HETATM   20  C7  UNL     1      22.933  -0.940  54.402  1.00  0.00    -0.010 C 
HETATM   21  C8  UNL     1      21.675  -1.729  54.506  1.00  0.00     0.036 C 
HETATM   22  C9  UNL     1      20.706  -0.655  53.940  1.00  0.00     0.087 C 
HETATM   23  C10 UNL     1      21.569  -0.284  52.753  1.00  0.00     0.160 C 
HETATM   24  O2  UNL     1      21.394  -0.179  51.520  1.00  0.00    -0.292 OA
ENDBRANCH   1  19
TORSDOF 6
ENDMDL
MODEL 5
REMARK VINA RESULT:      -7.4      2.529      6.641
REMARK  6 active torsions:
REMARK  status: ('A' for Active; 'I' for Inactive)
REMARK    1  A    between atoms: C2_2  and  O1_3 
REMARK    2  A    between atoms: O1_3  and  C3_4 
REMARK    3  A    between atoms: C3_4  and  C19_22 
REMARK    4  A    between atoms: C4_5  and  C5_6 
REMARK    5  A    between atoms: C5_6  and  C6_7 
REMARK    6  A    between atoms: C19_22  and  O3_23 
ROOT
HETATM    1  C5  UNL     1      25.297   2.994  50.421  1.00  0.00    -0.017 C 
HETATM    2  C11 UNL     1      23.999   2.733  50.431  1.00  0.00    -0.056 C 
HETATM    3  C12 UNL     1      22.621   3.152  49.958  1.00  0.00     0.063 C 
HETATM    4  C13 UNL     1      22.013   2.004  49.323  1.00  0.00    -0.022 C 
HETATM    5  C14 UNL     1      21.121   1.030  49.389  1.00  0.00    -0.004 C 
HETATM    6  C15 UNL     1      20.119   0.506  50.303  1.00  0.00    -0.004 C 
HETATM    7  C16 UNL     1      19.830   0.995  51.476  1.00  0.00    -0.017 C 
HETATM    8  C17 UNL     1      20.648   2.189  51.713  1.00  0.00     0.101 C 
HETATM    9  S1  UNL     1      22.254   2.068  52.415  1.00  0.00    -0.161 SA
HETATM   10  C18 UNL     1      23.565   1.551  51.280  1.00  0.00     0.109 C 
ENDROOT
BRANCH   1  11
HETATM   11  C4  UNL     1      26.253   2.111  51.158  1.00  0.00     0.047 C 
HETATM   12  C3  UNL     1      26.821   1.722  52.292  1.00  0.00     0.070 C 
BRANCH  12  13
HETATM   13  O1  UNL     1      27.759   0.722  52.364  1.00  0.00    -0.354 OA
BRANCH  13  14
HETATM   14  C2  UNL     1      27.722  -0.440  53.123  1.00  0.00     0.171 C 
HETATM   15  C1  UNL     1      26.737  -1.420  52.466  1.00  0.00     0.034 C 
ENDBRANCH  13  14
ENDBRANCH  12  13
BRANCH  12  16
HETATM   16  C19 UNL     1      26.680   2.159  53.708  1.00  0.00     0.228 C 
BRANCH  16  17
HETATM   17  O3  UNL     1      27.770   2.899  54.152  1.00  0.00    -0.394 OA
HETATM   18  H24 UNL     1      28.615   2.393  54.028  1.00  0.00     0.209 HD
ENDBRANCH  16  17
ENDBRANCH  12  16
ENDBRANCH   1  11
BRANCH   1  19
HETATM   19  C6  UNL     1      25.965   4.173  49.814  1.00  0.00     0.017 C 
HETATM   20  C7  UNL     1      27.145   4.113  49.151  1.00  0.00    -0.010 C 
HETATM   21  C8  UNL     1      27.569   5.449  48.648  1.00  0.00     0.036 C 
HETATM   22  C9  UNL     1      26.154   6.069  48.484  1.00  0.00     0.087 C 
HETATM   23  C10 UNL     1      25.634   5.617  49.832  1.00  0.00     0.160 C 
HETATM   24  O2  UNL     1      25.070   6.167  50.803  1.00  0.00    -0.292 OA
ENDBRANCH   1  19
TORSDOF 6
ENDMDL
MODEL 6
REMARK VINA RESULT:      -7.0      7.230      9.704
REMARK  6 active torsions:
REMARK  status: ('A' for Active; 'I' for Inactive)
REMARK    1  A    between atoms: C2_2  and  O1_3 
REMARK    2  A    between atoms: O1_3  and  C3_4 
REMARK    3  A    between atoms: C3_4  and  C19_22 
REMARK    4  A    between atoms: C4_5  and  C5_6 
REMARK    5  A    between atoms: C5_6  and  C6_7 
REMARK    6  A    between atoms: C19_22  and  O3_23 
ROOT
HETATM    1  C5  UNL     1      30.161   6.662  47.567  1.00  0.00    -0.017 C 
HETATM    2  C11 UNL     1      31.134   5.782  47.390  1.00  0.00    -0.056 C 
HETATM    3  C12 UNL     1      31.520   4.317  47.336  1.00  0.00     0.063 C 
HETATM    4  C13 UNL     1      32.201   4.093  46.081  1.00  0.00    -0.022 C 
HETATM    5  C14 UNL     1      33.342   3.878  45.449  1.00  0.00    -0.004 C 
HETATM    6  C15 UNL     1      34.760   3.743  45.739  1.00  0.00    -0.004 C 
HETATM    7  C16 UNL     1      35.304   3.810  46.922  1.00  0.00    -0.017 C 
HETATM    8  C17 UNL     1      34.250   4.001  47.924  1.00  0.00     0.101 C 
HETATM    9  S1  UNL     1      33.678   5.606  48.349  1.00  0.00    -0.161 SA
HETATM   10  C18 UNL     1      32.522   6.359  47.179  1.00  0.00     0.109 C 
ENDROOT
BRANCH   1  11
HETATM   11  C4  UNL     1      30.443   8.129  47.487  1.00  0.00     0.047 C 
HETATM   12  C3  UNL     1      30.565   9.312  48.075  1.00  0.00     0.070 C 
BRANCH  12  13
HETATM   13  O1  UNL     1      30.888  10.462  47.399  1.00  0.00    -0.354 OA
BRANCH  13  14
HETATM   14  C2  UNL     1      31.691  11.513  47.824  1.00  0.00     0.171 C 
HETATM   15  C1  UNL     1      33.035  11.430  47.085  1.00  0.00     0.034 C 
ENDBRANCH  13  14
ENDBRANCH  12  13
BRANCH  12  16
HETATM   16  C19 UNL     1      30.416   9.774  49.482  1.00  0.00     0.228 C 
BRANCH  16  17
HETATM   17  O3  UNL     1      29.231   9.342  50.067  1.00  0.00    -0.394 OA
HETATM   18  H24 UNL     1      28.695  10.113  50.390  1.00  0.00     0.209 HD
ENDBRANCH  16  17
ENDBRANCH  12  16
ENDBRANCH   1  11
BRANCH   1  19
HETATM   19  C6  UNL     1      28.757   6.373  47.952  1.00  0.00     0.017 C 
HETATM   20  C7  UNL     1      28.348   5.195  48.485  1.00  0.00    -0.010 C 
HETATM   21  C8  UNL     1      26.888   5.194  48.776  1.00  0.00     0.036 C 
HETATM   22  C9  UNL     1      26.721   6.720  49.018  1.00  0.00     0.087 C 
HETATM   23  C10 UNL     1      27.506   7.153  47.798  1.00  0.00     0.160 C 
HETATM   24  O2  UNL     1      27.308   7.927  46.837  1.00  0.00    -0.292 OA
ENDBRANCH   1  19
TORSDOF 6
ENDMDL
MODEL 7
REMARK VINA RESULT:      -6.9      2.297      6.495
REMARK  6 active torsions:
REMARK  status: ('A' for Active; 'I' for Inactive)
REMARK    1  A    between atoms: C2_2  and  O1_3 
REMARK    2  A    between atoms: O1_3  and  C3_4 
REMARK    3  A    between atoms: C3_4  and  C19_22 
REMARK    4  A    between atoms: C4_5  and  C5_6 
REMARK    5  A    between atoms: C5_6  and  C6_7 
REMARK    6  A    between atoms: C19_22  and  O3_23 
ROOT
HETATM    1  C5  UNL     1      24.644   1.391  52.408  1.00  0.00    -0.017 C 
HETATM    2  C11 UNL     1      24.612   2.520  51.718  1.00  0.00    -0.056 C 
HETATM    3  C12 UNL     1      25.410   3.555  50.949  1.00  0.00     0.063 C 
HETATM    4  C13 UNL     1      24.792   3.702  49.650  1.00  0.00    -0.022 C 
HETATM    5  C14 UNL     1      24.048   4.436  48.841  1.00  0.00    -0.004 C 
HETATM    6  C15 UNL     1      23.326   5.698  48.841  1.00  0.00    -0.004 C 
HETATM    7  C16 UNL     1      23.259   6.536  49.838  1.00  0.00    -0.017 C 
HETATM    8  C17 UNL     1      24.068   6.024  50.949  1.00  0.00     0.101 C 
HETATM    9  S1  UNL     1      23.390   4.919  52.134  1.00  0.00    -0.161 SA
HETATM   10  C18 UNL     1      23.256   3.194  51.607  1.00  0.00     0.109 C 
ENDROOT
BRANCH   1  11
HETATM   11  C4  UNL     1      23.384   0.811  52.970  1.00  0.00     0.047 C 
HETATM   12  C3  UNL     1      22.171   0.305  52.794  1.00  0.00     0.070 C 
BRANCH  12  13
HETATM   13  O1  UNL     1      21.370  -0.116  53.826  1.00  0.00    -0.354 OA
BRANCH  13  14
HETATM   14  C2  UNL     1      21.355  -1.354  54.455  1.00  0.00     0.171 C 
HETATM   15  C1  UNL     1      22.619  -1.475  55.322  1.00  0.00     0.034 C 
ENDBRANCH  13  14
ENDBRANCH  12  13
BRANCH  12  16
HETATM   16  C19 UNL     1      21.339   0.041  51.588  1.00  0.00     0.228 C 
BRANCH  16  17
HETATM   17  O3  UNL     1      20.014   0.430  51.754  1.00  0.00    -0.394 OA
HETATM   18  H24 UNL     1      19.789   1.183  51.148  1.00  0.00     0.209 HD
ENDBRANCH  16  17
ENDBRANCH  12  16
ENDBRANCH   1  11
BRANCH   1  19
HETATM   19  C6  UNL     1      25.850   0.623  52.806  1.00  0.00     0.017 C 
HETATM   20  C7  UNL     1      26.201  -0.567  52.258  1.00  0.00    -0.010 C 
HETATM   21  C8  UNL     1      27.459  -1.101  52.849  1.00  0.00     0.036 C 
HETATM   22  C9  UNL     1      28.106   0.260  53.230  1.00  0.00     0.087 C 
HETATM   23  C10 UNL     1      26.862   0.845  53.864  1.00  0.00     0.160 C 
HETATM   24  O2  UNL     1      26.589   1.391  54.956  1.00  0.00    -0.292 OA
ENDBRANCH   1  19
TORSDOF 6
ENDMDL
MODEL 8
REMARK VINA RESULT:      -6.9      2.464      5.744
REMARK  6 active torsions:
REMARK  status: ('A' for Active; 'I' for Inactive)
REMARK    1  A    between atoms: C2_2  and  O1_3 
REMARK    2  A    between atoms: O1_3  and  C3_4 
REMARK    3  A    between atoms: C3_4  and  C19_22 
REMARK    4  A    between atoms: C4_5  and  C5_6 
REMARK    5  A    between atoms: C5_6  and  C6_7 
REMARK    6  A    between atoms: C19_22  and  O3_23 
ROOT
HETATM    1  C5  UNL     1      22.885   2.354  51.698  1.00  0.00    -0.017 C 
HETATM    2  C11 UNL     1      23.342   3.446  51.107  1.00  0.00    -0.056 C 
HETATM    3  C12 UNL     1      23.017   4.645  50.236  1.00  0.00     0.063 C 
HETATM    4  C13 UNL     1      23.467   5.825  50.939  1.00  0.00    -0.022 C 
HETATM    5  C14 UNL     1      24.358   6.798  51.037  1.00  0.00    -0.004 C 
HETATM    6  C15 UNL     1      25.570   7.260  50.382  1.00  0.00    -0.004 C 
HETATM    7  C16 UNL     1      26.135   6.702  49.347  1.00  0.00    -0.017 C 
HETATM    8  C17 UNL     1      25.327   5.556  48.920  1.00  0.00     0.101 C 
HETATM    9  S1  UNL     1      25.566   3.962  49.619  1.00  0.00    -0.161 SA
HETATM   10  C18 UNL     1      24.831   3.707  51.253  1.00  0.00     0.109 C 
ENDROOT
BRANCH   1  11
HETATM   11  C4  UNL     1      23.799   1.492  52.509  1.00  0.00     0.047 C 
HETATM   12  C3  UNL     1      23.989   0.466  53.329  1.00  0.00     0.070 C 
BRANCH  12  13
HETATM   13  O1  UNL     1      25.223   0.099  53.807  1.00  0.00    -0.354 OA
BRANCH  13  14
HETATM   14  C2  UNL     1      26.011  -0.975  53.419  1.00  0.00     0.171 C 
HETATM   15  C1  UNL     1      26.897  -0.530  52.244  1.00  0.00     0.034 C 
ENDBRANCH  13  14
ENDBRANCH  12  13
BRANCH  12  16
HETATM   16  C19 UNL     1      23.073  -0.528  53.951  1.00  0.00     0.228 C 
BRANCH  16  17
HETATM   17  O3  UNL     1      22.454  -1.348  53.014  1.00  0.00    -0.394 OA
HETATM   18  H24 UNL     1      22.792  -1.158  52.101  1.00  0.00     0.209 HD
ENDBRANCH  16  17
ENDBRANCH  12  16
ENDBRANCH   1  11
BRANCH   1  19
HETATM   19  C6  UNL     1      21.521   1.781  51.579  1.00  0.00     0.017 C 
HETATM   20  C7  UNL     1      21.146   0.920  50.600  1.00  0.00    -0.010 C 
HETATM   21  C8  UNL     1      19.722   0.509  50.737  1.00  0.00     0.036 C 
HETATM   22  C9  UNL     1      19.605   0.666  52.278  1.00  0.00     0.087 C 
HETATM   23  C10 UNL     1      20.274   2.022  52.342  1.00  0.00     0.160 C 
HETATM   24  O2  UNL     1      19.995   3.132  52.845  1.00  0.00    -0.292 OA
ENDBRANCH   1  19
TORSDOF 6
ENDMDL
MODEL 9
REMARK VINA RESULT:      -6.8      2.385      5.718
REMARK  6 active torsions:
REMARK  status: ('A' for Active; 'I' for Inactive)
REMARK    1  A    between atoms: C2_2  and  O1_3 
REMARK    2  A    between atoms: O1_3  and  C3_4 
REMARK    3  A    between atoms: C3_4  and  C19_22 
REMARK    4  A    between atoms: C4_5  and  C5_6 
REMARK    5  A    between atoms: C5_6  and  C6_7 
REMARK    6  A    between atoms: C19_22  and  O3_23 
ROOT
HETATM    1  C5  UNL     1      23.194   1.231  52.372  1.00  0.00    -0.017 C 
HETATM    2  C11 UNL     1      22.801   2.317  51.725  1.00  0.00    -0.056 C 
HETATM    3  C12 UNL     1      21.651   3.252  51.405  1.00  0.00     0.063 C 
HETATM    4  C13 UNL     1      22.082   4.595  51.725  1.00  0.00    -0.022 C 
HETATM    5  C14 UNL     1      22.479   5.777  51.286  1.00  0.00    -0.004 C 
HETATM    6  C15 UNL     1      22.749   6.459  50.031  1.00  0.00    -0.004 C 
HETATM    7  C16 UNL     1      22.617   5.942  48.841  1.00  0.00    -0.017 C 
HETATM    8  C17 UNL     1      22.111   4.572  48.967  1.00  0.00     0.101 C 
HETATM    9  S1  UNL     1      23.203   3.214  49.184  1.00  0.00    -0.161 SA
HETATM   10  C18 UNL     1      23.850   2.991  50.859  1.00  0.00     0.109 C 
ENDROOT
BRANCH   1  11
HETATM   11  C4  UNL     1      24.614   0.769  52.283  1.00  0.00     0.047 C 
HETATM   12  C3  UNL     1      25.893   0.910  52.606  1.00  0.00     0.070 C 
BRANCH  12  13
HETATM   13  O1  UNL     1      26.881   0.063  52.168  1.00  0.00    -0.354 OA
BRANCH  13  14
HETATM   14  C2  UNL     1      27.556  -0.915  52.886  1.00  0.00     0.171 C 
HETATM   15  C1  UNL     1      27.076  -2.293  52.403  1.00  0.00     0.034 C 
ENDBRANCH  13  14
ENDBRANCH  12  13
BRANCH  12  16
HETATM   16  C19 UNL     1      26.635   1.896  53.438  1.00  0.00     0.228 C 
BRANCH  16  17
HETATM   17  O3  UNL     1      25.854   2.988  53.800  1.00  0.00    -0.394 OA
HETATM   18  H24 UNL     1      25.644   3.549  53.009  1.00  0.00     0.209 HD
ENDBRANCH  16  17
ENDBRANCH  12  16
ENDBRANCH   1  11
BRANCH   1  19
HETATM   19  C6  UNL     1      22.340   0.297  53.147  1.00  0.00     0.017 C 
HETATM   20  C7  UNL     1      22.811  -0.534  54.110  1.00  0.00    -0.010 C 
HETATM   21  C8  UNL     1      21.725  -1.350  54.720  1.00  0.00     0.036 C 
HETATM   22  C9  UNL     1      20.558  -0.349  54.493  1.00  0.00     0.087 C 
HETATM   23  C10 UNL     1      20.901  -0.043  53.051  1.00  0.00     0.160 C 
HETATM   24  O2  UNL     1      20.278  -0.034  51.967  1.00  0.00    -0.292 OA
ENDBRANCH   1  19
TORSDOF 6
ENDMDL
