MODEL 1
REMARK VINA RESULT:      -8.1      0.000      0.000
REMARK  8 active torsions:
REMARK  status: ('A' for Active; 'I' for Inactive)
REMARK    1  A    between atoms: C2_2  and  C3_3 
REMARK    2  A    between atoms: C3_3  and  C4_4 
REMARK    3  A    between atoms: C4_4  and  C5_5 
REMARK    4  A    between atoms: C5_5  and  N1_6 
REMARK    5  A    between atoms: C9_13  and  S2_14 
REMARK    6  A    between atoms: S2_14  and  C10_15 
REMARK    7  A    between atoms: C10_15  and  C11_16 
REMARK       I    between atoms: C11_16  and  N3_18 
REMARK    8  A    between atoms: N3_18  and  C12_19 
ROOT
HETATM    1  N1  UNL     1      23.213   2.810  50.110  1.00  0.00    -0.267 N 
HETATM    2  C6  UNL     1      23.192   4.005  49.287  1.00  0.00     0.270 C 
HETATM    3  O1  UNL     1      22.030   4.196  48.767  1.00  0.00    -0.266 OA
HETATM    4  C7  UNL     1      24.270   4.963  48.991  1.00  0.00     0.072 A 
HETATM    5  S1  UNL     1      25.823   4.728  49.428  1.00  0.00    -0.129 SA
HETATM    6  C8  UNL     1      26.421   3.275  50.323  1.00  0.00     0.225 C 
HETATM    7  N2  UNL     1      25.415   2.781  51.278  1.00  0.00    -0.256 NA
HETATM    8  C9  UNL     1      24.145   2.600  51.188  1.00  0.00     0.172 C 
HETATM    9  C18 UNL     1      25.849   6.282  48.605  1.00  0.00    -0.021 A 
HETATM   10  C19 UNL     1      27.032   7.119  48.396  1.00  0.00     0.056 C 
HETATM   11  C20 UNL     1      24.524   6.247  48.358  1.00  0.00    -0.028 A 
HETATM   12  C21 UNL     1      23.617   7.179  47.680  1.00  0.00     0.050 C 
ENDROOT
BRANCH   8  13
HETATM   13  S2  UNL     1      23.435   1.962  52.726  1.00  0.00    -0.082 SA
BRANCH  13  14
HETATM   14  C10 UNL     1      23.811   0.225  52.927  1.00  0.00     0.185 C 
BRANCH  14  15
HETATM   15  C11 UNL     1      25.245  -0.024  53.199  1.00  0.00     0.231 C 
HETATM   16  O2  UNL     1      25.531  -0.367  54.358  1.00  0.00    -0.272 OA
HETATM   17  N3  UNL     1      26.293   0.092  52.271  1.00  0.00    -0.325 N 
HETATM   18  H12 UNL     1      26.051   0.380  51.296  1.00  0.00     0.169 HD
BRANCH  17  19
HETATM   19  C12 UNL     1      27.556  -0.211  52.826  1.00  0.00     0.056 A 
HETATM   20  C13 UNL     1      27.865  -1.553  52.756  1.00  0.00     0.031 A 
HETATM   21  C14 UNL     1      29.068  -2.026  53.255  1.00  0.00     0.002 A 
HETATM   22  C15 UNL     1      29.966  -1.175  53.822  1.00  0.00     0.002 A 
HETATM   23  C16 UNL     1      29.664   0.170  53.896  1.00  0.00     0.026 A 
HETATM   24  C17 UNL     1      28.475   0.662  53.406  1.00  0.00     0.060 A 
HETATM   25 CL1  UNL     1      27.989   2.325  53.444  1.00  0.00    -0.082 Cl
ENDBRANCH  17  19
ENDBRANCH  14  15
ENDBRANCH  13  14
ENDBRANCH   8  13
BRANCH   1  26
HETATM   26  C5  UNL     1      22.313   1.751  49.926  1.00  0.00     0.102 C 
BRANCH  26  27
HETATM   27  C4  UNL     1      21.424   0.825  49.760  1.00  0.00     0.017 C 
BRANCH  27  28
HETATM   28  C3  UNL     1      20.452   0.853  50.826  1.00  0.00    -0.003 C 
BRANCH  28  29
HETATM   29  C2  UNL     1      20.165   0.196  51.927  1.00  0.00    -0.031 C 
HETATM   30  C1  UNL     1      20.051  -0.063  53.367  1.00  0.00     0.036 C 
ENDBRANCH  28  29
ENDBRANCH  27  28
ENDBRANCH  26  27
ENDBRANCH   1  26
TORSDOF 8
ENDMDL
MODEL 2
REMARK VINA RESULT:      -7.8      2.956      5.421
REMARK  8 active torsions:
REMARK  status: ('A' for Active; 'I' for Inactive)
REMARK    1  A    between atoms: C2_2  and  C3_3 
REMARK    2  A    between atoms: C3_3  and  C4_4 
REMARK    3  A    between atoms: C4_4  and  C5_5 
REMARK    4  A    between atoms: C5_5  and  N1_6 
REMARK    5  A    between atoms: C9_13  and  S2_14 
REMARK    6  A    between atoms: S2_14  and  C10_15 
REMARK    7  A    between atoms: C10_15  and  C11_16 
REMARK       I    between atoms: C11_16  and  N3_18 
REMARK    8  A    between atoms: N3_18  and  C12_19 
ROOT
HETATM    1  N1  UNL     1      24.920   3.659  49.971  1.00  0.00    -0.267 N 
HETATM    2  C6  UNL     1      26.199   4.230  49.594  1.00  0.00     0.270 C 
HETATM    3  O1  UNL     1      27.175   3.472  49.956  1.00  0.00    -0.266 OA
HETATM    4  C7  UNL     1      26.499   5.490  48.895  1.00  0.00     0.072 A 
HETATM    5  S1  UNL     1      25.371   6.620  48.562  1.00  0.00    -0.129 SA
HETATM    6  C8  UNL     1      23.623   6.475  49.000  1.00  0.00     0.225 C 
HETATM    7  N2  UNL     1      23.162   5.080  48.917  1.00  0.00    -0.256 NA
HETATM    8  C9  UNL     1      23.681   3.967  49.303  1.00  0.00     0.172 C 
HETATM    9  C18 UNL     1      26.855   7.301  47.906  1.00  0.00    -0.021 A 
HETATM   10  C19 UNL     1      26.976   8.592  47.229  1.00  0.00     0.056 C 
HETATM   11  C20 UNL     1      27.589   6.237  48.290  1.00  0.00    -0.028 A 
HETATM   12  C21 UNL     1      29.014   5.915  48.154  1.00  0.00     0.050 C 
ENDROOT
BRANCH   8  13
HETATM   13  S2  UNL     1      22.625   2.550  48.913  1.00  0.00    -0.082 SA
BRANCH  13  14
HETATM   14  C10 UNL     1      21.164   2.542  49.945  1.00  0.00     0.185 C 
BRANCH  14  15
HETATM   15  C11 UNL     1      21.204   1.491  50.987  1.00  0.00     0.231 C 
HETATM   16  O2  UNL     1      21.549   0.359  50.610  1.00  0.00    -0.272 OA
HETATM   17  N3  UNL     1      20.888   1.663  52.345  1.00  0.00    -0.325 N 
HETATM   18  H12 UNL     1      20.598   2.616  52.661  1.00  0.00     0.169 HD
BRANCH  17  19
HETATM   19  C12 UNL     1      21.020   0.473  53.096  1.00  0.00     0.056 A 
HETATM   20  C13 UNL     1      22.260   0.345  53.686  1.00  0.00     0.031 A 
HETATM   21  C14 UNL     1      22.559  -0.764  54.460  1.00  0.00     0.002 A 
HETATM   22  C15 UNL     1      21.637  -1.746  54.652  1.00  0.00     0.002 A 
HETATM   23  C16 UNL     1      20.394  -1.625  54.065  1.00  0.00     0.026 A 
HETATM   24  C17 UNL     1      20.073  -0.531  53.292  1.00  0.00     0.060 A 
HETATM   25 CL1  UNL     1      18.550  -0.272  52.507  1.00  0.00    -0.082 Cl
ENDBRANCH  17  19
ENDBRANCH  14  15
ENDBRANCH  13  14
ENDBRANCH   8  13
BRANCH   1  26
HETATM   26  C5  UNL     1      24.781   2.744  51.024  1.00  0.00     0.102 C 
BRANCH  26  27
HETATM   27  C4  UNL     1      24.723   1.922  52.022  1.00  0.00     0.017 C 
BRANCH  27  28
HETATM   28  C3  UNL     1      25.751   0.915  51.914  1.00  0.00    -0.003 C 
BRANCH  28  29
HETATM   29  C2  UNL     1      26.142  -0.174  52.534  1.00  0.00    -0.031 C 
HETATM   30  C1  UNL     1      26.717  -1.515  52.699  1.00  0.00     0.036 C 
ENDBRANCH  28  29
ENDBRANCH  27  28
ENDBRANCH  26  27
ENDBRANCH   1  26
TORSDOF 8
ENDMDL
MODEL 3
REMARK VINA RESULT:      -7.6      2.729      7.531
REMARK  8 active torsions:
REMARK  status: ('A' for Active; 'I' for Inactive)
REMARK    1  A    between atoms: C2_2  and  C3_3 
REMARK    2  A    between atoms: C3_3  and  C4_4 
REMARK    3  A    between atoms: C4_4  and  C5_5 
REMARK    4  A    between atoms: C5_5  and  N1_6 
REMARK    5  A    between atoms: C9_13  and  S2_14 
REMARK    6  A    between atoms: S2_14  and  C10_15 
REMARK    7  A    between atoms: C10_15  and  C11_16 
REMARK       I    between atoms: C11_16  and  N3_18 
REMARK    8  A    between atoms: N3_18  and  C12_19 
ROOT
HETATM    1  N1  UNL     1      23.469   2.114  52.201  1.00  0.00    -0.267 N 
HETATM    2  C6  UNL     1      23.057   0.887  52.857  1.00  0.00     0.270 C 
HETATM    3  O1  UNL     1      24.066   0.257  53.348  1.00  0.00    -0.266 OA
HETATM    4  C7  UNL     1      21.712   0.312  53.018  1.00  0.00     0.072 A 
HETATM    5  S1  UNL     1      20.386   0.910  52.279  1.00  0.00    -0.129 SA
HETATM    6  C8  UNL     1      20.394   2.344  51.178  1.00  0.00     0.225 C 
HETATM    7  N2  UNL     1      21.384   3.346  51.607  1.00  0.00    -0.256 NA
HETATM    8  C9  UNL     1      22.601   3.248  52.012  1.00  0.00     0.172 C 
HETATM    9  C18 UNL     1      19.772  -0.456  53.203  1.00  0.00    -0.021 A 
HETATM   10  C19 UNL     1      18.378  -0.896  53.251  1.00  0.00     0.056 C 
HETATM   11  C20 UNL     1      20.992  -0.757  53.690  1.00  0.00    -0.028 A 
HETATM   12  C21 UNL     1      21.464  -1.808  54.599  1.00  0.00     0.050 C 
ENDROOT
BRANCH   8  13
HETATM   13  S2  UNL     1      23.319   4.861  52.410  1.00  0.00    -0.082 SA
BRANCH  13  14
HETATM   14  C10 UNL     1      23.153   5.989  51.032  1.00  0.00     0.185 C 
BRANCH  14  15
HETATM   15  C11 UNL     1      24.424   6.192  50.300  1.00  0.00     0.231 C 
HETATM   16  O2  UNL     1      25.257   6.934  50.844  1.00  0.00    -0.272 OA
HETATM   17  N3  UNL     1      24.761   5.623  49.060  1.00  0.00    -0.325 N 
HETATM   18  H12 UNL     1      24.059   4.999  48.603  1.00  0.00     0.169 HD
BRANCH  17  19
HETATM   19  C12 UNL     1      26.046   6.003  48.613  1.00  0.00     0.056 A 
HETATM   20  C13 UNL     1      27.009   5.052  48.880  1.00  0.00     0.031 A 
HETATM   21  C14 UNL     1      28.328   5.263  48.507  1.00  0.00     0.002 A 
HETATM   22  C15 UNL     1      28.695   6.409  47.872  1.00  0.00     0.002 A 
HETATM   23  C16 UNL     1      27.737   7.364  47.601  1.00  0.00     0.026 A 
HETATM   24  C17 UNL     1      26.421   7.177  47.961  1.00  0.00     0.060 A 
HETATM   25 CL1  UNL     1      25.135   8.303  47.675  1.00  0.00    -0.082 Cl
ENDBRANCH  17  19
ENDBRANCH  14  15
ENDBRANCH  13  14
ENDBRANCH   8  13
BRANCH   1  26
HETATM   26  C5  UNL     1      24.763   2.302  51.695  1.00  0.00     0.102 C 
BRANCH  26  27
HETATM   27  C4  UNL     1      25.953   2.406  51.196  1.00  0.00     0.017 C 
BRANCH  27  28
HETATM   28  C3  UNL     1      26.805   1.349  51.684  1.00  0.00    -0.003 C 
BRANCH  28  29
HETATM   29  C2  UNL     1      27.429   1.006  52.788  1.00  0.00    -0.031 C 
HETATM   30  C1  UNL     1      27.950   0.124  53.839  1.00  0.00     0.036 C 
ENDBRANCH  28  29
ENDBRANCH  27  28
ENDBRANCH  26  27
ENDBRANCH   1  26
TORSDOF 8
ENDMDL
MODEL 4
REMARK VINA RESULT:      -7.6      2.610      7.201
REMARK  8 active torsions:
REMARK  status: ('A' for Active; 'I' for Inactive)
REMARK    1  A    between atoms: C2_2  and  C3_3 
REMARK    2  A    between atoms: C3_3  and  C4_4 
REMARK    3  A    between atoms: C4_4  and  C5_5 
REMARK    4  A    between atoms: C5_5  and  N1_6 
REMARK    5  A    between atoms: C9_13  and  S2_14 
REMARK    6  A    between atoms: S2_14  and  C10_15 
REMARK    7  A    between atoms: C10_15  and  C11_16 
REMARK       I    between atoms: C11_16  and  N3_18 
REMARK    8  A    between atoms: N3_18  and  C12_19 
ROOT
HETATM    1  N1  UNL     1      22.322   2.040  52.365  1.00  0.00    -0.267 N 
HETATM    2  C6  UNL     1      21.343   1.021  52.692  1.00  0.00     0.270 C 
HETATM    3  O1  UNL     1      21.673   0.379  53.759  1.00  0.00    -0.266 OA
HETATM    4  C7  UNL     1      20.099   0.652  51.998  1.00  0.00     0.072 A 
HETATM    5  S1  UNL     1      19.673   1.253  50.542  1.00  0.00    -0.129 SA
HETATM    6  C8  UNL     1      20.662   2.438  49.601  1.00  0.00     0.225 C 
HETATM    7  N2  UNL     1      21.366   3.377  50.490  1.00  0.00    -0.256 NA
HETATM    8  C9  UNL     1      22.021   3.214  51.585  1.00  0.00     0.172 C 
HETATM    9  C18 UNL     1      18.347   0.173  50.955  1.00  0.00    -0.021 A 
HETATM   10  C19 UNL     1      17.164  -0.079  50.132  1.00  0.00     0.056 C 
HETATM   11  C20 UNL     1      18.910  -0.174  52.129  1.00  0.00    -0.028 A 
HETATM   12  C21 UNL     1      18.486  -1.080  53.203  1.00  0.00     0.050 C 
ENDROOT
BRANCH   8  13
HETATM   13  S2  UNL     1      22.668   4.775  52.233  1.00  0.00    -0.082 SA
BRANCH  13  14
HETATM   14  C10 UNL     1      22.804   5.996  50.932  1.00  0.00     0.185 C 
BRANCH  14  15
HETATM   15  C11 UNL     1      24.149   6.029  50.315  1.00  0.00     0.231 C 
HETATM   16  O2  UNL     1      25.031   6.623  50.955  1.00  0.00    -0.272 OA
HETATM   17  N3  UNL     1      24.507   5.452  49.085  1.00  0.00    -0.325 N 
HETATM   18  H12 UNL     1      23.764   4.952  48.546  1.00  0.00     0.169 HD
BRANCH  17  19
HETATM   19  C12 UNL     1      25.868   5.649  48.760  1.00  0.00     0.056 A 
HETATM   20  C13 UNL     1      26.114   6.889  48.208  1.00  0.00     0.031 A 
HETATM   21  C14 UNL     1      27.398   7.249  47.831  1.00  0.00     0.002 A 
HETATM   22  C15 UNL     1      28.438   6.387  47.997  1.00  0.00     0.002 A 
HETATM   23  C16 UNL     1      28.199   5.145  48.549  1.00  0.00     0.026 A 
HETATM   24  C17 UNL     1      26.932   4.765  48.932  1.00  0.00     0.060 A 
HETATM   25 CL1  UNL     1      26.514   3.236  49.632  1.00  0.00    -0.082 Cl
ENDBRANCH  17  19
ENDBRANCH  14  15
ENDBRANCH  13  14
ENDBRANCH   8  13
BRANCH   1  26
HETATM   26  C5  UNL     1      23.656   1.972  52.791  1.00  0.00     0.102 C 
BRANCH  26  27
HETATM   27  C4  UNL     1      24.861   1.896  53.256  1.00  0.00     0.017 C 
BRANCH  27  28
HETATM   28  C3  UNL     1      25.279   0.519  53.366  1.00  0.00    -0.003 C 
BRANCH  28  29
HETATM   29  C2  UNL     1      26.092  -0.323  52.768  1.00  0.00    -0.031 C 
HETATM   30  C1  UNL     1      26.729  -1.605  52.450  1.00  0.00     0.036 C 
ENDBRANCH  28  29
ENDBRANCH  27  28
ENDBRANCH  26  27
ENDBRANCH   1  26
TORSDOF 8
ENDMDL
MODEL 5
REMARK VINA RESULT:      -7.5      2.246      6.302
REMARK  8 active torsions:
REMARK  status: ('A' for Active; 'I' for Inactive)
REMARK    1  A    between atoms: C2_2  and  C3_3 
REMARK    2  A    between atoms: C3_3  and  C4_4 
REMARK    3  A    between atoms: C4_4  and  C5_5 
REMARK    4  A    between atoms: C5_5  and  N1_6 
REMARK    5  A    between atoms: C9_13  and  S2_14 
REMARK    6  A    between atoms: S2_14  and  C10_15 
REMARK    7  A    between atoms: C10_15  and  C11_16 
REMARK       I    between atoms: C11_16  and  N3_18 
REMARK    8  A    between atoms: N3_18  and  C12_19 
ROOT
HETATM    1  N1  UNL     1      22.950   0.892  53.074  1.00  0.00    -0.267 N 
HETATM    2  C6  UNL     1      23.983  -0.128  53.055  1.00  0.00     0.270 C 
HETATM    3  O1  UNL     1      23.474  -1.306  52.953  1.00  0.00    -0.266 OA
HETATM    4  C7  UNL     1      25.446   0.012  53.134  1.00  0.00     0.072 A 
HETATM    5  S1  UNL     1      26.195   1.424  53.458  1.00  0.00    -0.129 SA
HETATM    6  C8  UNL     1      25.337   2.987  53.758  1.00  0.00     0.225 C 
HETATM    7  N2  UNL     1      24.114   3.093  52.946  1.00  0.00    -0.256 NA
HETATM    8  C9  UNL     1      23.172   2.259  52.678  1.00  0.00     0.172 C 
HETATM    9  C18 UNL     1      27.518   0.281  53.260  1.00  0.00    -0.021 A 
HETATM   10  C19 UNL     1      28.943   0.597  53.375  1.00  0.00     0.056 C 
HETATM   11  C20 UNL     1      26.680  -0.745  53.015  1.00  0.00    -0.028 A 
HETATM   12  C21 UNL     1      26.911  -2.165  52.723  1.00  0.00     0.050 C 
ENDROOT
BRANCH   8  13
HETATM   13  S2  UNL     1      21.911   2.978  51.596  1.00  0.00    -0.082 SA
BRANCH  13  14
HETATM   14  C10 UNL     1      22.226   4.717  51.321  1.00  0.00     0.185 C 
BRANCH  14  15
HETATM   15  C11 UNL     1      23.468   4.961  50.554  1.00  0.00     0.231 C 
HETATM   16  O2  UNL     1      23.385   4.836  49.321  1.00  0.00    -0.272 OA
HETATM   17  N3  UNL     1      24.715   5.317  51.095  1.00  0.00    -0.325 N 
HETATM   18  H12 UNL     1      24.785   5.422  52.132  1.00  0.00     0.169 HD
BRANCH  17  19
HETATM   19  C12 UNL     1      25.715   5.482  50.110  1.00  0.00     0.056 A 
HETATM   20  C13 UNL     1      25.831   6.786  49.677  1.00  0.00     0.031 A 
HETATM   21  C14 UNL     1      26.766   7.126  48.711  1.00  0.00     0.002 A 
HETATM   22  C15 UNL     1      27.584   6.181  48.174  1.00  0.00     0.002 A 
HETATM   23  C16 UNL     1      27.474   4.874  48.603  1.00  0.00     0.026 A 
HETATM   24  C17 UNL     1      26.554   4.513  49.561  1.00  0.00     0.060 A 
HETATM   25 CL1  UNL     1      26.325   2.908  50.175  1.00  0.00    -0.082 Cl
ENDBRANCH  17  19
ENDBRANCH  14  15
ENDBRANCH  13  14
ENDBRANCH   8  13
BRANCH   1  26
HETATM   26  C5  UNL     1      21.634   0.627  53.478  1.00  0.00     0.102 C 
BRANCH  26  27
HETATM   27  C4  UNL     1      20.426   0.441  53.903  1.00  0.00     0.017 C 
BRANCH  27  28
HETATM   28  C3  UNL     1      19.698  -0.425  53.007  1.00  0.00    -0.003 C 
BRANCH  28  29
HETATM   29  C2  UNL     1      18.530  -0.479  52.409  1.00  0.00    -0.031 C 
HETATM   30  C1  UNL     1      17.347   0.002  51.686  1.00  0.00     0.036 C 
ENDBRANCH  28  29
ENDBRANCH  27  28
ENDBRANCH  26  27
ENDBRANCH   1  26
TORSDOF 8
ENDMDL
MODEL 6
REMARK VINA RESULT:      -7.4      3.073      7.054
REMARK  8 active torsions:
REMARK  status: ('A' for Active; 'I' for Inactive)
REMARK    1  A    between atoms: C2_2  and  C3_3 
REMARK    2  A    between atoms: C3_3  and  C4_4 
REMARK    3  A    between atoms: C4_4  and  C5_5 
REMARK    4  A    between atoms: C5_5  and  N1_6 
REMARK    5  A    between atoms: C9_13  and  S2_14 
REMARK    6  A    between atoms: S2_14  and  C10_15 
REMARK    7  A    between atoms: C10_15  and  C11_16 
REMARK       I    between atoms: C11_16  and  N3_18 
REMARK    8  A    between atoms: N3_18  and  C12_19 
ROOT
HETATM    1  N1  UNL     1      25.511   1.618  52.867  1.00  0.00    -0.267 N 
HETATM    2  C6  UNL     1      26.162   2.407  51.838  1.00  0.00     0.270 C 
HETATM    3  O1  UNL     1      27.427   2.170  51.797  1.00  0.00    -0.266 OA
HETATM    4  C7  UNL     1      25.590   3.383  50.897  1.00  0.00     0.072 A 
HETATM    5  S1  UNL     1      24.048   3.909  50.978  1.00  0.00    -0.129 SA
HETATM    6  C8  UNL     1      22.851   3.368  52.220  1.00  0.00     0.225 C 
HETATM    7  N2  UNL     1      23.057   1.957  52.585  1.00  0.00    -0.256 NA
HETATM    8  C9  UNL     1      24.113   1.268  52.840  1.00  0.00     0.172 C 
HETATM    9  C18 UNL     1      24.713   4.767  49.593  1.00  0.00    -0.021 A 
HETATM   10  C19 UNL     1      23.990   5.720  48.751  1.00  0.00     0.056 C 
HETATM   11  C20 UNL     1      25.923   4.189  49.734  1.00  0.00    -0.028 A 
HETATM   12  C21 UNL     1      27.176   4.315  48.980  1.00  0.00     0.050 C 
ENDROOT
BRANCH   8  13
HETATM   13  S2  UNL     1      23.727  -0.457  53.229  1.00  0.00    -0.082 SA
BRANCH  13  14
HETATM   14  C10 UNL     1      22.370  -0.557  54.391  1.00  0.00     0.185 C 
BRANCH  14  15
HETATM   15  C11 UNL     1      21.073  -0.168  53.793  1.00  0.00     0.231 C 
HETATM   16  O2  UNL     1      20.316   0.501  54.515  1.00  0.00    -0.272 OA
HETATM   17  N3  UNL     1      20.633  -0.487  52.497  1.00  0.00    -0.325 N 
HETATM   18  H12 UNL     1      21.271  -1.051  51.891  1.00  0.00     0.169 HD
BRANCH  17  19
HETATM   19  C12 UNL     1      19.348   0.025  52.211  1.00  0.00     0.056 A 
HETATM   20  C13 UNL     1      19.387   1.236  51.552  1.00  0.00     0.031 A 
HETATM   21  C14 UNL     1      18.214   1.881  51.193  1.00  0.00     0.002 A 
HETATM   22  C15 UNL     1      17.003   1.332  51.485  1.00  0.00     0.002 A 
HETATM   23  C16 UNL     1      16.956   0.120  52.145  1.00  0.00     0.026 A 
HETATM   24  C17 UNL     1      18.108  -0.539  52.510  1.00  0.00     0.060 A 
HETATM   25 CL1  UNL     1      18.172  -2.059  53.340  1.00  0.00    -0.082 Cl
ENDBRANCH  17  19
ENDBRANCH  14  15
ENDBRANCH  13  14
ENDBRANCH   8  13
BRANCH   1  26
HETATM   26  C5  UNL     1      26.196   1.118  53.983  1.00  0.00     0.102 C 
BRANCH  26  27
HETATM   27  C4  UNL     1      26.834   0.730  55.040  1.00  0.00     0.017 C 
BRANCH  27  28
HETATM   28  C3  UNL     1      28.170   0.300  54.701  1.00  0.00    -0.003 C 
BRANCH  28  29
HETATM   29  C2  UNL     1      28.770  -0.492  53.843  1.00  0.00    -0.031 C 
HETATM   30  C1  UNL     1      29.498  -1.669  53.356  1.00  0.00     0.036 C 
ENDBRANCH  28  29
ENDBRANCH  27  28
ENDBRANCH  26  27
ENDBRANCH   1  26
TORSDOF 8
ENDMDL
MODEL 7
REMARK VINA RESULT:      -7.3      2.569      7.608
REMARK  8 active torsions:
REMARK  status: ('A' for Active; 'I' for Inactive)
REMARK    1  A    between atoms: C2_2  and  C3_3 
REMARK    2  A    between atoms: C3_3  and  C4_4 
REMARK    3  A    between atoms: C4_4  and  C5_5 
REMARK    4  A    between atoms: C5_5  and  N1_6 
REMARK    5  A    between atoms: C9_13  and  S2_14 
REMARK    6  A    between atoms: S2_14  and  C10_15 
REMARK    7  A    between atoms: C10_15  and  C11_16 
REMARK       I    between atoms: C11_16  and  N3_18 
REMARK    8  A    between atoms: N3_18  and  C12_19 
ROOT
HETATM    1  N1  UNL     1      22.794   0.454  52.838  1.00  0.00    -0.267 N 
HETATM    2  C6  UNL     1      21.482  -0.125  53.057  1.00  0.00     0.270 C 
HETATM    3  O1  UNL     1      21.449  -0.814  54.144  1.00  0.00    -0.266 OA
HETATM    4  C7  UNL     1      20.262  -0.028  52.239  1.00  0.00     0.072 A 
HETATM    5  S1  UNL     1      20.229   0.648  50.755  1.00  0.00    -0.129 SA
HETATM    6  C8  UNL     1      21.670   1.361  49.928  1.00  0.00     0.225 C 
HETATM    7  N2  UNL     1      22.582   1.998  50.892  1.00  0.00    -0.256 NA
HETATM    8  C9  UNL     1      23.023   1.634  52.044  1.00  0.00     0.172 C 
HETATM    9  C18 UNL     1      18.565   0.143  51.024  1.00  0.00    -0.021 A 
HETATM   10  C19 UNL     1      17.456   0.322  50.086  1.00  0.00     0.056 C 
HETATM   11  C20 UNL     1      18.846  -0.355  52.245  1.00  0.00    -0.028 A 
HETATM   12  C21 UNL     1      18.017  -1.013  53.261  1.00  0.00     0.050 C 
ENDROOT
BRANCH   8  13
HETATM   13  S2  UNL     1      24.135   2.865  52.769  1.00  0.00    -0.082 SA
BRANCH  13  14
HETATM   14  C10 UNL     1      23.453   4.511  52.608  1.00  0.00     0.185 C 
BRANCH  14  15
HETATM   15  C11 UNL     1      23.995   5.245  51.441  1.00  0.00     0.231 C 
HETATM   16  O2  UNL     1      24.222   6.453  51.611  1.00  0.00    -0.272 OA
HETATM   17  N3  UNL     1      24.270   4.696  50.177  1.00  0.00    -0.325 N 
HETATM   18  H12 UNL     1      24.078   3.678  50.035  1.00  0.00     0.169 HD
BRANCH  17  19
HETATM   19  C12 UNL     1      24.781   5.646  49.265  1.00  0.00     0.056 A 
HETATM   20  C13 UNL     1      26.160   5.686  49.248  1.00  0.00     0.031 A 
HETATM   21  C14 UNL     1      26.828   6.563  48.408  1.00  0.00     0.002 A 
HETATM   22  C15 UNL     1      26.137   7.399  47.586  1.00  0.00     0.002 A 
HETATM   23  C16 UNL     1      24.757   7.365  47.598  1.00  0.00     0.026 A 
HETATM   24  C17 UNL     1      24.072   6.502  48.423  1.00  0.00     0.060 A 
HETATM   25 CL1  UNL     1      22.347   6.371  48.523  1.00  0.00    -0.082 Cl
ENDBRANCH  17  19
ENDBRANCH  14  15
ENDBRANCH  13  14
ENDBRANCH   8  13
BRANCH   1  26
HETATM   26  C5  UNL     1      23.962  -0.089  53.393  1.00  0.00     0.102 C 
BRANCH  26  27
HETATM   27  C4  UNL     1      25.012  -0.571  53.975  1.00  0.00     0.017 C 
BRANCH  27  28
HETATM   28  C3  UNL     1      26.173  -0.435  53.129  1.00  0.00    -0.003 C 
BRANCH  28  29
HETATM   29  C2  UNL     1      27.438  -0.787  53.115  1.00  0.00    -0.031 C 
HETATM   30  C1  UNL     1      28.876  -0.706  53.392  1.00  0.00     0.036 C 
ENDBRANCH  28  29
ENDBRANCH  27  28
ENDBRANCH  26  27
ENDBRANCH   1  26
TORSDOF 8
ENDMDL
MODEL 8
REMARK VINA RESULT:      -7.2      3.008      6.576
REMARK  8 active torsions:
REMARK  status: ('A' for Active; 'I' for Inactive)
REMARK    1  A    between atoms: C2_2  and  C3_3 
REMARK    2  A    between atoms: C3_3  and  C4_4 
REMARK    3  A    between atoms: C4_4  and  C5_5 
REMARK    4  A    between atoms: C5_5  and  N1_6 
REMARK    5  A    between atoms: C9_13  and  S2_14 
REMARK    6  A    between atoms: S2_14  and  C10_15 
REMARK    7  A    between atoms: C10_15  and  C11_16 
REMARK       I    between atoms: C11_16  and  N3_18 
REMARK    8  A    between atoms: N3_18  and  C12_19 
ROOT
HETATM    1  N1  UNL     1      24.714   3.897  50.677  1.00  0.00    -0.267 N 
HETATM    2  C6  UNL     1      26.007   4.184  50.084  1.00  0.00     0.270 C 
HETATM    3  O1  UNL     1      26.858   3.254  50.344  1.00  0.00    -0.266 OA
HETATM    4  C7  UNL     1      26.436   5.335  49.273  1.00  0.00     0.072 A 
HETATM    5  S1  UNL     1      25.514   6.660  49.040  1.00  0.00    -0.129 SA
HETATM    6  C8  UNL     1      23.861   6.887  49.737  1.00  0.00     0.225 C 
HETATM    7  N2  UNL     1      23.128   5.612  49.807  1.00  0.00    -0.256 NA
HETATM    8  C9  UNL     1      23.472   4.430  50.180  1.00  0.00     0.172 C 
HETATM    9  C18 UNL     1      26.982   7.005  48.135  1.00  0.00    -0.021 A 
HETATM   10  C19 UNL     1      27.247   8.224  47.369  1.00  0.00     0.056 C 
HETATM   11  C20 UNL     1      27.543   5.827  48.471  1.00  0.00    -0.028 A 
HETATM   12  C21 UNL     1      28.838   5.217  48.147  1.00  0.00     0.050 C 
ENDROOT
BRANCH   8  13
HETATM   13  S2  UNL     1      22.110   3.246  50.035  1.00  0.00    -0.082 SA
BRANCH  13  14
HETATM   14  C10 UNL     1      20.749   3.708  51.100  1.00  0.00     0.185 C 
BRANCH  14  15
HETATM   15  C11 UNL     1      19.944   2.545  51.538  1.00  0.00     0.231 C 
HETATM   16  O2  UNL     1      18.924   2.803  52.197  1.00  0.00    -0.272 OA
HETATM   17  N3  UNL     1      20.232   1.196  51.274  1.00  0.00    -0.325 N 
HETATM   18  H12 UNL     1      21.091   0.980  50.719  1.00  0.00     0.169 HD
BRANCH  17  19
HETATM   19  C12 UNL     1      19.276   0.312  51.824  1.00  0.00     0.056 A 
HETATM   20  C13 UNL     1      18.167   0.153  51.020  1.00  0.00     0.031 A 
HETATM   21  C14 UNL     1      17.131  -0.681  51.408  1.00  0.00     0.002 A 
HETATM   22  C15 UNL     1      17.188  -1.358  52.587  1.00  0.00     0.002 A 
HETATM   23  C16 UNL     1      18.296  -1.204  53.397  1.00  0.00     0.026 A 
HETATM   24  C17 UNL     1      19.337  -0.381  53.032  1.00  0.00     0.060 A 
HETATM   25 CL1  UNL     1      20.773  -0.111  53.964  1.00  0.00    -0.082 Cl
ENDBRANCH  17  19
ENDBRANCH  14  15
ENDBRANCH  13  14
ENDBRANCH   8  13
BRANCH   1  26
HETATM   26  C5  UNL     1      24.564   3.061  51.793  1.00  0.00     0.102 C 
BRANCH  26  27
HETATM   27  C4  UNL     1      24.473   2.240  52.789  1.00  0.00     0.017 C 
BRANCH  27  28
HETATM   28  C3  UNL     1      25.610   2.376  53.668  1.00  0.00    -0.003 C 
BRANCH  28  29
HETATM   29  C2  UNL     1      26.893   2.093  53.683  1.00  0.00    -0.031 C 
HETATM   30  C1  UNL     1      28.336   2.311  53.538  1.00  0.00     0.036 C 
ENDBRANCH  28  29
ENDBRANCH  27  28
ENDBRANCH  26  27
ENDBRANCH   1  26
TORSDOF 8
ENDMDL
MODEL 9
REMARK VINA RESULT:      -7.1      2.475      6.112
REMARK  8 active torsions:
REMARK  status: ('A' for Active; 'I' for Inactive)
REMARK    1  A    between atoms: C2_2  and  C3_3 
REMARK    2  A    between atoms: C3_3  and  C4_4 
REMARK    3  A    between atoms: C4_4  and  C5_5 
REMARK    4  A    between atoms: C5_5  and  N1_6 
REMARK    5  A    between atoms: C9_13  and  S2_14 
REMARK    6  A    between atoms: S2_14  and  C10_15 
REMARK    7  A    between atoms: C10_15  and  C11_16 
REMARK       I    between atoms: C11_16  and  N3_18 
REMARK    8  A    between atoms: N3_18  and  C12_19 
ROOT
HETATM    1  N1  UNL     1      20.500   2.359  51.554  1.00  0.00    -0.267 N 
HETATM    2  C6  UNL     1      19.232   1.666  51.430  1.00  0.00     0.270 C 
HETATM    3  O1  UNL     1      18.435   2.287  50.632  1.00  0.00    -0.266 OA
HETATM    4  C7  UNL     1      18.773   0.420  52.065  1.00  0.00     0.072 A 
HETATM    5  S1  UNL     1      19.609  -0.350  53.235  1.00  0.00    -0.129 SA
HETATM    6  C8  UNL     1      21.192   0.218  53.898  1.00  0.00     0.225 C 
HETATM    7  N2  UNL     1      22.010   0.863  52.858  1.00  0.00    -0.256 NA
HETATM    8  C9  UNL     1      21.730   1.710  51.931  1.00  0.00     0.172 C 
HETATM    9  C18 UNL     1      18.181  -1.353  53.010  1.00  0.00    -0.021 A 
HETATM   10  C19 UNL     1      17.878  -2.584  53.741  1.00  0.00     0.056 C 
HETATM   11  C20 UNL     1      17.687  -0.546  52.050  1.00  0.00    -0.028 A 
HETATM   12  C21 UNL     1      16.464  -0.601  51.241  1.00  0.00     0.050 C 
ENDROOT
BRANCH   8  13
HETATM   13  S2  UNL     1      23.181   2.138  50.936  1.00  0.00    -0.082 SA
BRANCH  13  14
HETATM   14  C10 UNL     1      24.264   3.242  51.834  1.00  0.00     0.185 C 
BRANCH  14  15
HETATM   15  C11 UNL     1      25.406   2.540  52.463  1.00  0.00     0.231 C 
HETATM   16  O2  UNL     1      25.197   2.050  53.584  1.00  0.00    -0.272 OA
HETATM   17  N3  UNL     1      26.686   2.384  51.905  1.00  0.00    -0.325 N 
HETATM   18  H12 UNL     1      26.861   2.797  50.961  1.00  0.00     0.169 HD
BRANCH  17  19
HETATM   19  C12 UNL     1      27.567   1.666  52.744  1.00  0.00     0.056 A 
HETATM   20  C13 UNL     1      28.393   2.486  53.485  1.00  0.00     0.031 A 
HETATM   21  C14 UNL     1      29.320   1.945  54.361  1.00  0.00     0.002 A 
HETATM   22  C15 UNL     1      29.432   0.597  54.508  1.00  0.00     0.002 A 
HETATM   23  C16 UNL     1      28.609  -0.231  53.771  1.00  0.00     0.026 A 
HETATM   24  C17 UNL     1      27.681   0.284  52.894  1.00  0.00     0.060 A 
HETATM   25 CL1  UNL     1      26.598  -0.654  51.918  1.00  0.00    -0.082 Cl
ENDBRANCH  17  19
ENDBRANCH  14  15
ENDBRANCH  13  14
ENDBRANCH   8  13
BRANCH   1  26
HETATM   26  C5  UNL     1      20.638   3.732  51.309  1.00  0.00     0.102 C 
BRANCH  26  27
HETATM   27  C4  UNL     1      20.772   4.983  51.007  1.00  0.00     0.017 C 
BRANCH  27  28
HETATM   28  C3  UNL     1      21.130   5.138  49.618  1.00  0.00    -0.003 C 
BRANCH  28  29
HETATM   29  C2  UNL     1      22.206   5.159  48.866  1.00  0.00    -0.031 C 
HETATM   30  C1  UNL     1      23.635   5.213  48.536  1.00  0.00     0.036 C 
ENDBRANCH  28  29
ENDBRANCH  27  28
ENDBRANCH  26  27
ENDBRANCH   1  26
TORSDOF 8
ENDMDL
