MODEL 1
REMARK VINA RESULT:      -7.7      0.000      0.000
REMARK  9 active torsions:
REMARK  status: ('A' for Active; 'I' for Inactive)
REMARK    1  A    between atoms: C1_2  and  C2_3 
REMARK    2  A    between atoms: C1_2  and  O3_13 
REMARK    3  A    between atoms: C2_3  and  O2_4 
REMARK    4  A    between atoms: O2_4  and  C3_5 
REMARK    5  A    between atoms: O3_13  and  N2_14 
REMARK    6  A    between atoms: N2_14  and  C10_15 
REMARK    7  A    between atoms: C10_15  and  C11_16 
REMARK    8  A    between atoms: C11_16  and  C12_17 
REMARK    9  A    between atoms: C16_21  and  O4_22 
ROOT
HETATM    1  O3  UNL     1      24.244   2.385  52.074  1.00  0.00    -0.225 OA
ENDROOT
BRANCH   1   2
HETATM    2  C1  UNL     1      22.997   2.899  51.746  1.00  0.00     0.300 C 
HETATM    3  O1  UNL     1      22.405   3.865  52.299  1.00  0.00    -0.261 OA
BRANCH   2   4
HETATM    4  C2  UNL     1      22.255   2.252  50.612  1.00  0.00     0.288 C 
BRANCH   4   5
HETATM    5  O2  UNL     1      22.178   0.867  50.764  1.00  0.00    -0.341 OA
BRANCH   5   6
HETATM    6  C3  UNL     1      21.342   0.334  51.732  1.00  0.00     0.082 A 
HETATM    7  C4  UNL     1      20.039   0.223  51.872  1.00  0.00     0.040 A 
HETATM    8  C5  UNL     1      19.671  -0.448  53.128  1.00  0.00     0.035 A 
HETATM    9  C6  UNL     1      20.779  -0.769  53.799  1.00  0.00     0.069 A 
HETATM   10  N1  UNL     1      21.345  -1.364  54.962  1.00  0.00    -0.260 NA
HETATM   11  C9  UNL     1      21.884  -0.294  52.956  1.00  0.00     0.027 A 
HETATM   12  C7  UNL     1      22.646  -1.265  54.844  1.00  0.00     0.118 A 
HETATM   13  C8  UNL     1      23.017  -0.601  53.601  1.00  0.00     0.036 A 
ENDBRANCH   5   6
ENDBRANCH   4   5
ENDBRANCH   2   4
ENDBRANCH   1   2
BRANCH   1  14
HETATM   14  N2  UNL     1      24.879   2.907  53.202  1.00  0.00    -0.196 NA
HETATM   15  H7  UNL     1      24.205   2.717  53.977  1.00  0.00     0.154 HD
BRANCH  14  16
HETATM   16  C10 UNL     1      26.108   2.133  53.426  1.00  0.00     0.122 C 
BRANCH  16  17
HETATM   17  C11 UNL     1      26.176   0.910  52.538  1.00  0.00     0.055 C 
BRANCH  17  18
HETATM   18  C12 UNL     1      27.409   0.125  52.897  1.00  0.00    -0.054 A 
HETATM   19  C13 UNL     1      28.572   0.694  53.359  1.00  0.00     0.007 A 
HETATM   20  C14 UNL     1      29.656  -0.102  53.664  1.00  0.00     0.003 A 
HETATM   21  C15 UNL     1      29.622  -1.478  53.522  1.00  0.00     0.036 A 
HETATM   22  C16 UNL     1      28.446  -2.041  53.055  1.00  0.00     0.066 A 
HETATM   23  C17 UNL     1      27.362  -1.245  52.750  1.00  0.00     0.043 A 
BRANCH  22  24
HETATM   24  O4  UNL     1      28.436  -3.423  52.921  1.00  0.00    -0.361 OA
HETATM   25  H15 UNL     1      28.215  -3.995  53.716  1.00  0.00     0.217 HD
ENDBRANCH  22  24
ENDBRANCH  17  18
ENDBRANCH  16  17
ENDBRANCH  14  16
ENDBRANCH   1  14
TORSDOF 9
ENDMDL
MODEL 2
REMARK VINA RESULT:      -7.5      2.445      3.586
REMARK  9 active torsions:
REMARK  status: ('A' for Active; 'I' for Inactive)
REMARK    1  A    between atoms: C1_2  and  C2_3 
REMARK    2  A    between atoms: C1_2  and  O3_13 
REMARK    3  A    between atoms: C2_3  and  O2_4 
REMARK    4  A    between atoms: O2_4  and  C3_5 
REMARK    5  A    between atoms: O3_13  and  N2_14 
REMARK    6  A    between atoms: N2_14  and  C10_15 
REMARK    7  A    between atoms: C10_15  and  C11_16 
REMARK    8  A    between atoms: C11_16  and  C12_17 
REMARK    9  A    between atoms: C16_21  and  O4_22 
ROOT
HETATM    1  O3  UNL     1      23.592  -0.716  54.351  1.00  0.00    -0.225 OA
ENDROOT
BRANCH   1   2
HETATM    2  C1  UNL     1      22.303  -1.042  54.751  1.00  0.00     0.300 C 
HETATM    3  O1  UNL     1      21.910  -2.142  55.225  1.00  0.00    -0.261 OA
BRANCH   2   4
HETATM    4  C2  UNL     1      21.246   0.015  54.614  1.00  0.00     0.288 C 
BRANCH   4   5
HETATM    5  O2  UNL     1      20.745   0.086  53.315  1.00  0.00    -0.341 OA
BRANCH   5   6
HETATM    6  C3  UNL     1      19.494  -0.441  53.038  1.00  0.00     0.082 A 
HETATM    7  C4  UNL     1      18.692  -1.292  53.642  1.00  0.00     0.040 A 
HETATM    8  C5  UNL     1      17.445  -1.508  52.892  1.00  0.00     0.035 A 
HETATM    9  C6  UNL     1      17.464  -0.768  51.781  1.00  0.00     0.069 A 
HETATM   10  N1  UNL     1      16.784  -0.375  50.593  1.00  0.00    -0.260 NA
HETATM   11  C9  UNL     1      18.751  -0.062  51.817  1.00  0.00     0.027 A 
HETATM   12  C7  UNL     1      17.566   0.475  49.974  1.00  0.00     0.118 A 
HETATM   13  C8  UNL     1      18.804   0.692  50.711  1.00  0.00     0.036 A 
ENDBRANCH   5   6
ENDBRANCH   4   5
ENDBRANCH   2   4
ENDBRANCH   1   2
BRANCH   1  14
HETATM   14  N2  UNL     1      23.728   0.133  53.252  1.00  0.00    -0.196 NA
HETATM   15  H7  UNL     1      22.969   0.838  53.386  1.00  0.00     0.154 HD
BRANCH  14  16
HETATM   16  C10 UNL     1      25.035   0.799  53.358  1.00  0.00     0.122 C 
BRANCH  16  17
HETATM   17  C11 UNL     1      25.930   0.477  52.182  1.00  0.00     0.055 C 
BRANCH  17  18
HETATM   18  C12 UNL     1      27.214  -0.112  52.704  1.00  0.00    -0.054 A 
HETATM   19  C13 UNL     1      28.281   0.641  53.135  1.00  0.00     0.007 A 
HETATM   20  C14 UNL     1      29.422   0.018  53.599  1.00  0.00     0.003 A 
HETATM   21  C15 UNL     1      29.539  -1.359  53.650  1.00  0.00     0.036 A 
HETATM   22  C16 UNL     1      28.459  -2.108  53.213  1.00  0.00     0.066 A 
HETATM   23  C17 UNL     1      27.319  -1.485  52.749  1.00  0.00     0.043 A 
BRANCH  22  24
HETATM   24  O4  UNL     1      28.600  -3.487  53.273  1.00  0.00    -0.361 OA
HETATM   25  H15 UNL     1      29.273  -3.887  53.903  1.00  0.00     0.217 HD
ENDBRANCH  22  24
ENDBRANCH  17  18
ENDBRANCH  16  17
ENDBRANCH  14  16
ENDBRANCH   1  14
TORSDOF 9
ENDMDL
MODEL 3
REMARK VINA RESULT:      -7.5      2.223      5.752
REMARK  9 active torsions:
REMARK  status: ('A' for Active; 'I' for Inactive)
REMARK    1  A    between atoms: C1_2  and  C2_3 
REMARK    2  A    between atoms: C1_2  and  O3_13 
REMARK    3  A    between atoms: C2_3  and  O2_4 
REMARK    4  A    between atoms: O2_4  and  C3_5 
REMARK    5  A    between atoms: O3_13  and  N2_14 
REMARK    6  A    between atoms: N2_14  and  C10_15 
REMARK    7  A    between atoms: C10_15  and  C11_16 
REMARK    8  A    between atoms: C11_16  and  C12_17 
REMARK    9  A    between atoms: C16_21  and  O4_22 
ROOT
HETATM    1  O3  UNL     1      24.059   3.415  50.776  1.00  0.00    -0.225 OA
ENDROOT
BRANCH   1   2
HETATM    2  C1  UNL     1      25.399   3.699  50.554  1.00  0.00     0.300 C 
HETATM    3  O1  UNL     1      25.880   4.753  50.057  1.00  0.00    -0.261 OA
BRANCH   2   4
HETATM    4  C2  UNL     1      26.404   2.653  50.944  1.00  0.00     0.288 C 
BRANCH   4   5
HETATM    5  O2  UNL     1      26.438   2.451  52.323  1.00  0.00    -0.341 OA
BRANCH   5   6
HETATM    6  C3  UNL     1      27.459   1.695  52.875  1.00  0.00     0.082 A 
HETATM    7  C4  UNL     1      28.571   1.971  53.522  1.00  0.00     0.040 A 
HETATM    8  C5  UNL     1      29.312   0.757  53.895  1.00  0.00     0.035 A 
HETATM    9  C6  UNL     1      28.644  -0.317  53.470  1.00  0.00     0.069 A 
HETATM   10  N1  UNL     1      28.592  -1.737  53.382  1.00  0.00    -0.260 NA
HETATM   11  C9  UNL     1      27.447   0.218  52.809  1.00  0.00     0.027 A 
HETATM   12  C7  UNL     1      27.489  -2.036  52.740  1.00  0.00     0.118 A 
HETATM   13  C8  UNL     1      26.750  -0.837  52.367  1.00  0.00     0.036 A 
ENDBRANCH   5   6
ENDBRANCH   4   5
ENDBRANCH   2   4
ENDBRANCH   1   2
BRANCH   1  14
HETATM   14  N2  UNL     1      23.596   3.482  52.092  1.00  0.00    -0.196 NA
HETATM   15  H7  UNL     1      23.125   4.413  52.142  1.00  0.00     0.154 HD
BRANCH  14  16
HETATM   16  C10 UNL     1      22.597   2.419  52.272  1.00  0.00     0.122 C 
BRANCH  16  17
HETATM   17  C11 UNL     1      23.160   1.054  51.945  1.00  0.00     0.055 C 
BRANCH  17  18
HETATM   18  C12 UNL     1      22.876   0.129  53.099  1.00  0.00    -0.054 A 
HETATM   19  C13 UNL     1      21.627  -0.366  53.394  1.00  0.00     0.007 A 
HETATM   20  C14 UNL     1      21.457  -1.208  54.473  1.00  0.00     0.003 A 
HETATM   21  C15 UNL     1      22.510  -1.584  55.287  1.00  0.00     0.036 A 
HETATM   22  C16 UNL     1      23.763  -1.079  54.982  1.00  0.00     0.066 A 
HETATM   23  C17 UNL     1      23.933  -0.237  53.903  1.00  0.00     0.043 A 
BRANCH  22  24
HETATM   24  O4  UNL     1      24.804  -1.470  55.813  1.00  0.00    -0.361 OA
HETATM   25  H15 UNL     1      24.596  -1.928  56.682  1.00  0.00     0.217 HD
ENDBRANCH  22  24
ENDBRANCH  17  18
ENDBRANCH  16  17
ENDBRANCH  14  16
ENDBRANCH   1  14
TORSDOF 9
ENDMDL
MODEL 4
REMARK VINA RESULT:      -7.4      1.595      1.917
REMARK  9 active torsions:
REMARK  status: ('A' for Active; 'I' for Inactive)
REMARK    1  A    between atoms: C1_2  and  C2_3 
REMARK    2  A    between atoms: C1_2  and  O3_13 
REMARK    3  A    between atoms: C2_3  and  O2_4 
REMARK    4  A    between atoms: O2_4  and  C3_5 
REMARK    5  A    between atoms: O3_13  and  N2_14 
REMARK    6  A    between atoms: N2_14  and  C10_15 
REMARK    7  A    between atoms: C10_15  and  C11_16 
REMARK    8  A    between atoms: C11_16  and  C12_17 
REMARK    9  A    between atoms: C16_21  and  O4_22 
ROOT
HETATM    1  O3  UNL     1      23.787   3.823  51.632  1.00  0.00    -0.225 OA
ENDROOT
BRANCH   1   2
HETATM    2  C1  UNL     1      22.446   3.470  51.566  1.00  0.00     0.300 C 
HETATM    3  O1  UNL     1      21.493   3.980  52.215  1.00  0.00    -0.261 OA
BRANCH   2   4
HETATM    4  C2  UNL     1      22.066   2.363  50.626  1.00  0.00     0.288 C 
BRANCH   4   5
HETATM    5  O2  UNL     1      22.436   1.111  51.118  1.00  0.00    -0.341 OA
BRANCH   5   6
HETATM    6  C3  UNL     1      21.602   0.456  52.009  1.00  0.00     0.082 A 
HETATM    7  C4  UNL     1      20.304   0.255  52.088  1.00  0.00     0.040 A 
HETATM    8  C5  UNL     1      19.935  -0.530  53.275  1.00  0.00     0.035 A 
HETATM    9  C6  UNL     1      21.037  -0.834  53.965  1.00  0.00     0.069 A 
HETATM   10  N1  UNL     1      21.596  -1.480  55.103  1.00  0.00    -0.260 NA
HETATM   11  C9  UNL     1      22.138  -0.230  53.205  1.00  0.00     0.027 A 
HETATM   12  C7  UNL     1      22.892  -1.293  55.046  1.00  0.00     0.118 A 
HETATM   13  C8  UNL     1      23.264  -0.514  53.872  1.00  0.00     0.036 A 
ENDBRANCH   5   6
ENDBRANCH   4   5
ENDBRANCH   2   4
ENDBRANCH   1   2
BRANCH   1  14
HETATM   14  N2  UNL     1      24.680   3.107  50.833  1.00  0.00    -0.196 NA
HETATM   15  H7  UNL     1      25.047   3.822  50.167  1.00  0.00     0.154 HD
BRANCH  14  16
HETATM   16  C10 UNL     1      25.776   2.636  51.694  1.00  0.00     0.122 C 
BRANCH  16  17
HETATM   17  C11 UNL     1      25.820   1.127  51.778  1.00  0.00     0.055 C 
BRANCH  17  18
HETATM   18  C12 UNL     1      27.031   0.727  52.578  1.00  0.00    -0.054 A 
HETATM   19  C13 UNL     1      27.446  -0.574  52.740  1.00  0.00     0.007 A 
HETATM   20  C14 UNL     1      28.569  -0.851  53.492  1.00  0.00     0.003 A 
HETATM   21  C15 UNL     1      29.310   0.144  54.103  1.00  0.00     0.036 A 
HETATM   22  C16 UNL     1      28.883   1.451  53.934  1.00  0.00     0.066 A 
HETATM   23  C17 UNL     1      27.760   1.728  53.182  1.00  0.00     0.043 A 
BRANCH  22  24
HETATM   24  O4  UNL     1      29.643   2.432  54.555  1.00  0.00    -0.361 OA
HETATM   25  H15 UNL     1      30.105   3.127  53.996  1.00  0.00     0.217 HD
ENDBRANCH  22  24
ENDBRANCH  17  18
ENDBRANCH  16  17
ENDBRANCH  14  16
ENDBRANCH   1  14
TORSDOF 9
ENDMDL
MODEL 5
REMARK VINA RESULT:      -7.2      1.352      2.075
REMARK  9 active torsions:
REMARK  status: ('A' for Active; 'I' for Inactive)
REMARK    1  A    between atoms: C1_2  and  C2_3 
REMARK    2  A    between atoms: C1_2  and  O3_13 
REMARK    3  A    between atoms: C2_3  and  O2_4 
REMARK    4  A    between atoms: O2_4  and  C3_5 
REMARK    5  A    between atoms: O3_13  and  N2_14 
REMARK    6  A    between atoms: N2_14  and  C10_15 
REMARK    7  A    between atoms: C10_15  and  C11_16 
REMARK    8  A    between atoms: C11_16  and  C12_17 
REMARK    9  A    between atoms: C16_21  and  O4_22 
ROOT
HETATM    1  O3  UNL     1      25.351   3.818  50.974  1.00  0.00    -0.225 OA
ENDROOT
BRANCH   1   2
HETATM    2  C1  UNL     1      24.092   3.287  50.731  1.00  0.00     0.300 C 
HETATM    3  O1  UNL     1      23.620   2.933  49.617  1.00  0.00    -0.261 OA
BRANCH   2   4
HETATM    4  C2  UNL     1      23.177   3.103  51.907  1.00  0.00     0.288 C 
BRANCH   4   5
HETATM    5  O2  UNL     1      22.517   1.875  51.867  1.00  0.00    -0.341 OA
BRANCH   5   6
HETATM    6  C3  UNL     1      22.868   0.884  52.769  1.00  0.00     0.082 A 
HETATM    7  C4  UNL     1      23.992   0.503  53.337  1.00  0.00     0.040 A 
HETATM    8  C5  UNL     1      23.796  -0.639  54.243  1.00  0.00     0.035 A 
HETATM    9  C6  UNL     1      22.508  -0.987  54.246  1.00  0.00     0.069 A 
HETATM   10  N1  UNL     1      21.505  -1.862  54.750  1.00  0.00    -0.260 NA
HETATM   11  C9  UNL     1      21.860  -0.048  53.320  1.00  0.00     0.027 A 
HETATM   12  C7  UNL     1      20.373  -1.500  54.197  1.00  0.00     0.118 A 
HETATM   13  C8  UNL     1      20.560  -0.369  53.297  1.00  0.00     0.036 A 
ENDBRANCH   5   6
ENDBRANCH   4   5
ENDBRANCH   2   4
ENDBRANCH   1   2
BRANCH   1  14
HETATM   14  N2  UNL     1      26.448   3.150  50.426  1.00  0.00    -0.196 NA
HETATM   15  H7  UNL     1      27.257   3.766  50.661  1.00  0.00     0.154 HD
BRANCH  14  16
HETATM   16  C10 UNL     1      26.591   1.867  51.131  1.00  0.00     0.122 C 
BRANCH  16  17
HETATM   17  C11 UNL     1      27.104   2.052  52.542  1.00  0.00     0.055 C 
BRANCH  17  18
HETATM   18  C12 UNL     1      27.946   0.858  52.905  1.00  0.00    -0.054 A 
HETATM   19  C13 UNL     1      29.220   0.947  53.417  1.00  0.00     0.007 A 
HETATM   20  C14 UNL     1      29.922  -0.201  53.723  1.00  0.00     0.003 A 
HETATM   21  C15 UNL     1      29.388  -1.462  53.532  1.00  0.00     0.036 A 
HETATM   22  C16 UNL     1      28.106  -1.541  53.015  1.00  0.00     0.066 A 
HETATM   23  C17 UNL     1      27.404  -0.393  52.710  1.00  0.00     0.043 A 
BRANCH  22  24
HETATM   24  O4  UNL     1      27.592  -2.817  52.833  1.00  0.00    -0.361 OA
HETATM   25  H15 UNL     1      27.967  -3.581  53.366  1.00  0.00     0.217 HD
ENDBRANCH  22  24
ENDBRANCH  17  18
ENDBRANCH  16  17
ENDBRANCH  14  16
ENDBRANCH   1  14
TORSDOF 9
ENDMDL
MODEL 6
REMARK VINA RESULT:      -7.2      3.843      5.228
REMARK  9 active torsions:
REMARK  status: ('A' for Active; 'I' for Inactive)
REMARK    1  A    between atoms: C1_2  and  C2_3 
REMARK    2  A    between atoms: C1_2  and  O3_13 
REMARK    3  A    between atoms: C2_3  and  O2_4 
REMARK    4  A    between atoms: O2_4  and  C3_5 
REMARK    5  A    between atoms: O3_13  and  N2_14 
REMARK    6  A    between atoms: N2_14  and  C10_15 
REMARK    7  A    between atoms: C10_15  and  C11_16 
REMARK    8  A    between atoms: C11_16  and  C12_17 
REMARK    9  A    between atoms: C16_21  and  O4_22 
ROOT
HETATM    1  O3  UNL     1      27.012   3.479  49.444  1.00  0.00    -0.225 OA
ENDROOT
BRANCH   1   2
HETATM    2  C1  UNL     1      27.471   4.661  48.879  1.00  0.00     0.300 C 
HETATM    3  O1  UNL     1      28.598   4.863  48.350  1.00  0.00    -0.261 OA
BRANCH   2   4
HETATM    4  C2  UNL     1      26.541   5.840  48.885  1.00  0.00     0.288 C 
BRANCH   4   5
HETATM    5  O2  UNL     1      25.329   5.544  49.509  1.00  0.00    -0.341 OA
BRANCH   5   6
HETATM    6  C3  UNL     1      24.184   5.406  48.742  1.00  0.00     0.082 A 
HETATM    7  C4  UNL     1      23.496   6.201  47.951  1.00  0.00     0.040 A 
HETATM    8  C5  UNL     1      22.326   5.527  47.368  1.00  0.00     0.035 A 
HETATM    9  C6  UNL     1      22.278   4.268  47.805  1.00  0.00     0.069 A 
HETATM   10  N1  UNL     1      21.594   3.019  47.785  1.00  0.00    -0.260 NA
HETATM   11  C9  UNL     1      23.442   4.128  48.690  1.00  0.00     0.027 A 
HETATM   12  C7  UNL     1      22.263   2.209  48.568  1.00  0.00     0.118 A 
HETATM   13  C8  UNL     1      23.424   2.870  49.150  1.00  0.00     0.036 A 
ENDBRANCH   5   6
ENDBRANCH   4   5
ENDBRANCH   2   4
ENDBRANCH   1   2
BRANCH   1  14
HETATM   14  N2  UNL     1      27.058   3.372  50.835  1.00  0.00    -0.196 NA
HETATM   15  H7  UNL     1      26.441   4.147  51.164  1.00  0.00     0.154 HD
BRANCH  14  16
HETATM   16  C10 UNL     1      26.459   2.081  51.206  1.00  0.00     0.122 C 
BRANCH  16  17
HETATM   17  C11 UNL     1      26.504   1.846  52.700  1.00  0.00     0.055 C 
BRANCH  17  18
HETATM   18  C12 UNL     1      27.551   0.804  52.989  1.00  0.00    -0.054 A 
HETATM   19  C13 UNL     1      28.829   1.098  53.406  1.00  0.00     0.007 A 
HETATM   20  C14 UNL     1      29.726   0.079  53.649  1.00  0.00     0.003 A 
HETATM   21  C15 UNL     1      29.389  -1.253  53.488  1.00  0.00     0.036 A 
HETATM   22  C16 UNL     1      28.100  -1.538  53.068  1.00  0.00     0.066 A 
HETATM   23  C17 UNL     1      27.203  -0.519  52.825  1.00  0.00     0.043 A 
BRANCH  22  24
HETATM   24  O4  UNL     1      27.785  -2.880  52.914  1.00  0.00    -0.361 OA
HETATM   25  H15 UNL     1      26.832  -3.148  52.744  1.00  0.00     0.217 HD
ENDBRANCH  22  24
ENDBRANCH  17  18
ENDBRANCH  16  17
ENDBRANCH  14  16
ENDBRANCH   1  14
TORSDOF 9
ENDMDL
MODEL 7
REMARK VINA RESULT:      -6.9      1.689      2.140
REMARK  9 active torsions:
REMARK  status: ('A' for Active; 'I' for Inactive)
REMARK    1  A    between atoms: C1_2  and  C2_3 
REMARK    2  A    between atoms: C1_2  and  O3_13 
REMARK    3  A    between atoms: C2_3  and  O2_4 
REMARK    4  A    between atoms: O2_4  and  C3_5 
REMARK    5  A    between atoms: O3_13  and  N2_14 
REMARK    6  A    between atoms: N2_14  and  C10_15 
REMARK    7  A    between atoms: C10_15  and  C11_16 
REMARK    8  A    between atoms: C11_16  and  C12_17 
REMARK    9  A    between atoms: C16_21  and  O4_22 
ROOT
HETATM    1  O3  UNL     1      25.696   2.882  50.179  1.00  0.00    -0.225 OA
ENDROOT
BRANCH   1   2
HETATM    2  C1  UNL     1      25.075   4.115  50.323  1.00  0.00     0.300 C 
HETATM    3  O1  UNL     1      25.619   5.250  50.270  1.00  0.00    -0.261 OA
BRANCH   2   4
HETATM    4  C2  UNL     1      23.593   4.121  50.568  1.00  0.00     0.288 C 
BRANCH   4   5
HETATM    5  O2  UNL     1      23.272   3.619  51.830  1.00  0.00    -0.341 OA
BRANCH   5   6
HETATM    6  C3  UNL     1      22.032   3.037  52.035  1.00  0.00     0.082 A 
HETATM    7  C4  UNL     1      20.786   3.428  51.873  1.00  0.00     0.040 A 
HETATM    8  C5  UNL     1      19.823   2.384  52.255  1.00  0.00     0.035 A 
HETATM    9  C6  UNL     1      20.485   1.302  52.670  1.00  0.00     0.069 A 
HETATM   10  N1  UNL     1      20.410  -0.029  53.171  1.00  0.00    -0.260 NA
HETATM   11  C9  UNL     1      21.905   1.658  52.553  1.00  0.00     0.027 A 
HETATM   12  C7  UNL     1      21.642  -0.440  53.340  1.00  0.00     0.118 A 
HETATM   13  C8  UNL     1      22.602   0.590  52.964  1.00  0.00     0.036 A 
ENDBRANCH   5   6
ENDBRANCH   4   5
ENDBRANCH   2   4
ENDBRANCH   1   2
BRANCH   1  14
HETATM   14  N2  UNL     1      26.865   2.662  50.910  1.00  0.00    -0.196 NA
HETATM   15  H7  UNL     1      27.291   3.612  50.990  1.00  0.00     0.154 HD
BRANCH  14  16
HETATM   16  C10 UNL     1      26.477   2.187  52.247  1.00  0.00     0.122 C 
BRANCH  16  17
HETATM   17  C11 UNL     1      26.187   0.703  52.257  1.00  0.00     0.055 C 
BRANCH  17  18
HETATM   18  C12 UNL     1      27.415  -0.022  52.739  1.00  0.00    -0.054 A 
HETATM   19  C13 UNL     1      28.542   0.611  53.211  1.00  0.00     0.007 A 
HETATM   20  C14 UNL     1      29.624  -0.132  53.633  1.00  0.00     0.003 A 
HETATM   21  C15 UNL     1      29.625  -1.515  53.600  1.00  0.00     0.036 A 
HETATM   22  C16 UNL     1      28.487  -2.142  53.122  1.00  0.00     0.066 A 
HETATM   23  C17 UNL     1      27.404  -1.399  52.701  1.00  0.00     0.043 A 
BRANCH  22  24
HETATM   24  O4  UNL     1      28.511  -3.530  53.099  1.00  0.00    -0.361 OA
HETATM   25  H15 UNL     1      27.671  -4.035  52.881  1.00  0.00     0.217 HD
ENDBRANCH  22  24
ENDBRANCH  17  18
ENDBRANCH  16  17
ENDBRANCH  14  16
ENDBRANCH   1  14
TORSDOF 9
ENDMDL
MODEL 8
REMARK VINA RESULT:      -6.9      2.696      6.088
REMARK  9 active torsions:
REMARK  status: ('A' for Active; 'I' for Inactive)
REMARK    1  A    between atoms: C1_2  and  C2_3 
REMARK    2  A    between atoms: C1_2  and  O3_13 
REMARK    3  A    between atoms: C2_3  and  O2_4 
REMARK    4  A    between atoms: O2_4  and  C3_5 
REMARK    5  A    between atoms: O3_13  and  N2_14 
REMARK    6  A    between atoms: N2_14  and  C10_15 
REMARK    7  A    between atoms: C10_15  and  C11_16 
REMARK    8  A    between atoms: C11_16  and  C12_17 
REMARK    9  A    between atoms: C16_21  and  O4_22 
ROOT
HETATM    1  O3  UNL     1      24.207   3.966  50.443  1.00  0.00    -0.225 OA
ENDROOT
BRANCH   1   2
HETATM    2  C1  UNL     1      25.486   4.276  50.002  1.00  0.00     0.300 C 
HETATM    3  O1  UNL     1      25.898   5.395  49.594  1.00  0.00    -0.261 OA
BRANCH   2   4
HETATM    4  C2  UNL     1      26.506   3.174  50.003  1.00  0.00     0.288 C 
BRANCH   4   5
HETATM    5  O2  UNL     1      27.041   2.961  51.274  1.00  0.00    -0.341 OA
BRANCH   5   6
HETATM    6  C3  UNL     1      26.948   1.705  51.850  1.00  0.00     0.082 A 
HETATM    7  C4  UNL     1      26.228   0.628  51.615  1.00  0.00     0.040 A 
HETATM    8  C5  UNL     1      26.534  -0.460  52.555  1.00  0.00     0.035 A 
HETATM    9  C6  UNL     1      27.477  -0.055  53.408  1.00  0.00     0.069 A 
HETATM   10  N1  UNL     1      28.301  -0.379  54.523  1.00  0.00    -0.260 NA
HETATM   11  C9  UNL     1      27.784   1.324  53.008  1.00  0.00     0.027 A 
HETATM   12  C7  UNL     1      29.029   0.681  54.776  1.00  0.00     0.118 A 
HETATM   13  C8  UNL     1      28.730   1.764  53.848  1.00  0.00     0.036 A 
ENDBRANCH   5   6
ENDBRANCH   4   5
ENDBRANCH   2   4
ENDBRANCH   1   2
BRANCH   1  14
HETATM   14  N2  UNL     1      23.363   3.302  49.551  1.00  0.00    -0.196 NA
HETATM   15  H7  UNL     1      23.984   3.075  48.742  1.00  0.00     0.154 HD
BRANCH  14  16
HETATM   16  C10 UNL     1      22.923   2.054  50.192  1.00  0.00     0.122 C 
BRANCH  16  17
HETATM   17  C11 UNL     1      21.783   2.287  51.158  1.00  0.00     0.055 C 
BRANCH  17  18
HETATM   18  C12 UNL     1      21.834   1.225  52.224  1.00  0.00    -0.054 A 
HETATM   19  C13 UNL     1      22.987   0.839  52.867  1.00  0.00     0.007 A 
HETATM   20  C14 UNL     1      22.943  -0.144  53.833  1.00  0.00     0.003 A 
HETATM   21  C15 UNL     1      21.764  -0.772  54.190  1.00  0.00     0.036 A 
HETATM   22  C16 UNL     1      20.608  -0.378  53.536  1.00  0.00     0.066 A 
HETATM   23  C17 UNL     1      20.652   0.606  52.570  1.00  0.00     0.043 A 
BRANCH  22  24
HETATM   24  O4  UNL     1      19.437  -1.022  53.911  1.00  0.00    -0.361 OA
HETATM   25  H15 UNL     1      19.477  -1.766  54.585  1.00  0.00     0.217 HD
ENDBRANCH  22  24
ENDBRANCH  17  18
ENDBRANCH  16  17
ENDBRANCH  14  16
ENDBRANCH   1  14
TORSDOF 9
ENDMDL
MODEL 9
REMARK VINA RESULT:      -6.7      3.951      6.703
REMARK  9 active torsions:
REMARK  status: ('A' for Active; 'I' for Inactive)
REMARK    1  A    between atoms: C1_2  and  C2_3 
REMARK    2  A    between atoms: C1_2  and  O3_13 
REMARK    3  A    between atoms: C2_3  and  O2_4 
REMARK    4  A    between atoms: O2_4  and  C3_5 
REMARK    5  A    between atoms: O3_13  and  N2_14 
REMARK    6  A    between atoms: N2_14  and  C10_15 
REMARK    7  A    between atoms: C10_15  and  C11_16 
REMARK    8  A    between atoms: C11_16  and  C12_17 
REMARK    9  A    between atoms: C16_21  and  O4_22 
ROOT
HETATM    1  O3  UNL     1      25.914   5.623  49.143  1.00  0.00    -0.225 OA
ENDROOT
BRANCH   1   2
HETATM    2  C1  UNL     1      26.874   4.623  49.071  1.00  0.00     0.300 C 
HETATM    3  O1  UNL     1      28.034   4.718  48.585  1.00  0.00    -0.261 OA
BRANCH   2   4
HETATM    4  C2  UNL     1      26.516   3.275  49.626  1.00  0.00     0.288 C 
BRANCH   4   5
HETATM    5  O2  UNL     1      25.424   3.341  50.491  1.00  0.00    -0.341 OA
BRANCH   5   6
HETATM    6  C3  UNL     1      24.215   2.787  50.104  1.00  0.00     0.082 A 
HETATM    7  C4  UNL     1      23.447   2.888  49.040  1.00  0.00     0.040 A 
HETATM    8  C5  UNL     1      22.237   2.059  49.148  1.00  0.00     0.035 A 
HETATM    9  C6  UNL     1      22.244   1.415  50.317  1.00  0.00     0.069 A 
HETATM   10  N1  UNL     1      21.578   0.509  51.188  1.00  0.00    -0.260 NA
HETATM   11  C9  UNL     1      23.486   1.840  50.975  1.00  0.00     0.027 A 
HETATM   12  C7  UNL     1      22.326   0.392  52.258  1.00  0.00     0.118 A 
HETATM   13  C8  UNL     1      23.527   1.212  52.157  1.00  0.00     0.036 A 
ENDBRANCH   5   6
ENDBRANCH   4   5
ENDBRANCH   2   4
ENDBRANCH   1   2
BRANCH   1  14
HETATM   14  N2  UNL     1      25.704   6.224  50.386  1.00  0.00    -0.196 NA
HETATM   15  H7  UNL     1      26.308   7.076  50.355  1.00  0.00     0.154 HD
BRANCH  14  16
HETATM   16  C10 UNL     1      24.293   6.628  50.458  1.00  0.00     0.122 C 
BRANCH  16  17
HETATM   17  C11 UNL     1      23.638   6.170  51.742  1.00  0.00     0.055 C 
BRANCH  17  18
HETATM   18  C12 UNL     1      22.308   5.550  51.406  1.00  0.00    -0.054 A 
HETATM   19  C13 UNL     1      21.553   5.901  50.311  1.00  0.00     0.007 A 
HETATM   20  C14 UNL     1      20.343   5.280  50.080  1.00  0.00     0.003 A 
HETATM   21  C15 UNL     1      19.847   4.300  50.919  1.00  0.00     0.036 A 
HETATM   22  C16 UNL     1      20.613   3.954  52.019  1.00  0.00     0.066 A 
HETATM   23  C17 UNL     1      21.823   4.575  52.251  1.00  0.00     0.043 A 
BRANCH  22  24
HETATM   24  O4  UNL     1      20.095   2.968  52.847  1.00  0.00    -0.361 OA
HETATM   25  H15 UNL     1      20.721   2.390  53.379  1.00  0.00     0.217 HD
ENDBRANCH  22  24
ENDBRANCH  17  18
ENDBRANCH  16  17
ENDBRANCH  14  16
ENDBRANCH   1  14
TORSDOF 9
ENDMDL
