MODEL 1
REMARK VINA RESULT:      -7.7      0.000      0.000
REMARK  5 active torsions:
REMARK  status: ('A' for Active; 'I' for Inactive)
REMARK    1  A    between atoms: O1_2  and  C2_3 
REMARK    2  A    between atoms: C4_5  and  N1_6 
REMARK    3  A    between atoms: N1_6  and  C5_7 
REMARK    4  A    between atoms: C13_20  and  O4_21 
REMARK    5  A    between atoms: C15_23  and  O5_24 
ROOT
HETATM    1  N1  UNL     1      24.390   0.375  52.685  1.00  0.00    -0.339 N 
HETATM    2  H5  UNL     1      24.325  -0.470  52.082  1.00  0.00     0.167 HD
ENDROOT
BRANCH   1   3
HETATM    3  C4  UNL     1      23.087   0.947  52.608  1.00  0.00     0.052 A 
HETATM    4  C3  UNL     1      22.891   2.296  52.458  1.00  0.00     0.070 A 
HETATM    5  C2  UNL     1      21.748   3.050  52.352  1.00  0.00     0.106 A 
HETATM    6  C15 UNL     1      20.453   2.516  52.386  1.00  0.00     0.136 A 
HETATM    7  C13 UNL     1      20.170   1.153  52.531  1.00  0.00     0.118 A 
HETATM    8  P1  UNL     1      21.555   0.086  52.673  1.00  0.00     0.038 P 
BRANCH   5   9
HETATM    9  O1  UNL     1      21.620   4.408  52.199  1.00  0.00    -0.353 OA
HETATM   10  C1  UNL     1      22.375   5.120  51.270  1.00  0.00     0.210 C 
ENDBRANCH   5   9
BRANCH   6  11
HETATM   11  O5  UNL     1      19.273   3.243  52.287  1.00  0.00    -0.351 OA
HETATM   12  C16 UNL     1      18.652   3.516  51.043  1.00  0.00     0.210 C 
ENDBRANCH   6  11
BRANCH   7  13
HETATM   13  O4  UNL     1      19.046   0.369  52.599  1.00  0.00    -0.352 OA
HETATM   14  C14 UNL     1      18.441  -0.145  51.446  1.00  0.00     0.210 C 
ENDBRANCH   7  13
ENDBRANCH   1   3
BRANCH   1  15
HETATM   15  C5  UNL     1      25.546   0.763  53.377  1.00  0.00     0.138 C 
HETATM   16  N2  UNL     1      25.849   2.020  53.726  1.00  0.00    -0.224 NA
HETATM   17  C6  UNL     1      26.933   2.637  53.158  1.00  0.00     0.237 C 
HETATM   18  N3  UNL     1      28.251   2.453  52.909  1.00  0.00    -0.230 NA
HETATM   19  C7  UNL     1      29.025   2.007  53.916  1.00  0.00     0.259 C 
HETATM   20  O2  UNL     1      29.067   1.013  54.796  1.00  0.00    -0.306 OA
HETATM   21  C8  UNL     1      28.388  -0.050  54.438  1.00  0.00     0.078 C 
HETATM   22  C9  UNL     1      27.098  -0.095  54.932  1.00  0.00     0.048 C 
HETATM   23  C12 UNL     1      28.912  -1.150  53.572  1.00  0.00     0.233 C 
HETATM   24  C10 UNL     1      26.430  -0.226  53.726  1.00  0.00     0.014 C 
HETATM   25  C11 UNL     1      26.705  -1.420  52.889  1.00  0.00     0.210 C 
HETATM   26  O3  UNL     1      27.878  -2.063  53.298  1.00  0.00    -0.380 OA
ENDBRANCH   1  15
TORSDOF 5
ENDMDL
MODEL 2
REMARK VINA RESULT:      -7.6      0.984      2.621
REMARK  5 active torsions:
REMARK  status: ('A' for Active; 'I' for Inactive)
REMARK    1  A    between atoms: O1_2  and  C2_3 
REMARK    2  A    between atoms: C4_5  and  N1_6 
REMARK    3  A    between atoms: N1_6  and  C5_7 
REMARK    4  A    between atoms: C13_20  and  O4_21 
REMARK    5  A    between atoms: C15_23  and  O5_24 
ROOT
HETATM    1  N1  UNL     1      24.597   0.750  52.606  1.00  0.00    -0.339 N 
HETATM    2  H5  UNL     1      24.463  -0.042  51.945  1.00  0.00     0.167 HD
ENDROOT
BRANCH   1   3
HETATM    3  C4  UNL     1      23.379   1.483  52.506  1.00  0.00     0.052 A 
HETATM    4  C3  UNL     1      22.166   0.927  52.822  1.00  0.00     0.070 A 
HETATM    5  C2  UNL     1      20.891   1.439  52.810  1.00  0.00     0.106 A 
HETATM    6  C15 UNL     1      20.580   2.751  52.430  1.00  0.00     0.136 A 
HETATM    7  C13 UNL     1      21.528   3.694  52.020  1.00  0.00     0.118 A 
HETATM    8  P1  UNL     1      23.197   3.156  51.996  1.00  0.00     0.038 P 
BRANCH   5   9
HETATM    9  O1  UNL     1      19.710   0.824  53.144  1.00  0.00    -0.353 OA
HETATM   10  C1  UNL     1      19.637  -0.544  53.395  1.00  0.00     0.210 C 
ENDBRANCH   5   9
BRANCH   6  11
HETATM   11  O5  UNL     1      19.306   3.305  52.400  1.00  0.00    -0.351 OA
HETATM   12  C16 UNL     1      18.521   3.340  51.220  1.00  0.00     0.210 C 
ENDBRANCH   6  11
BRANCH   7  13
HETATM   13  O4  UNL     1      21.518   5.002  51.603  1.00  0.00    -0.352 OA
HETATM   14  C14 UNL     1      22.706   5.711  51.392  1.00  0.00     0.210 C 
ENDBRANCH   7  13
ENDBRANCH   1   3
BRANCH   1  15
HETATM   15  C5  UNL     1      25.752   0.948  53.376  1.00  0.00     0.138 C 
HETATM   16  N2  UNL     1      26.153   2.126  53.872  1.00  0.00    -0.224 NA
HETATM   17  C6  UNL     1      27.313   2.692  53.413  1.00  0.00     0.237 C 
HETATM   18  N3  UNL     1      28.619   2.410  53.191  1.00  0.00    -0.230 NA
HETATM   19  C7  UNL     1      29.303   1.786  54.169  1.00  0.00     0.259 C 
HETATM   20  O2  UNL     1      29.213   0.704  54.934  1.00  0.00    -0.306 OA
HETATM   21  C8  UNL     1      28.456  -0.244  54.438  1.00  0.00     0.078 C 
HETATM   22  C9  UNL     1      27.146  -0.217  54.880  1.00  0.00     0.048 C 
HETATM   23  C12 UNL     1      28.915  -1.290  53.474  1.00  0.00     0.233 C 
HETATM   24  C10 UNL     1      26.524  -0.153  53.644  1.00  0.00     0.014 C 
HETATM   25  C11 UNL     1      26.725  -1.271  52.690  1.00  0.00     0.210 C 
HETATM   26  O3  UNL     1      27.814  -2.065  53.065  1.00  0.00    -0.380 OA
ENDBRANCH   1  15
TORSDOF 5
ENDMDL
MODEL 3
REMARK VINA RESULT:      -7.3      1.434      1.471
REMARK  5 active torsions:
REMARK  status: ('A' for Active; 'I' for Inactive)
REMARK    1  A    between atoms: O1_2  and  C2_3 
REMARK    2  A    between atoms: C4_5  and  N1_6 
REMARK    3  A    between atoms: N1_6  and  C5_7 
REMARK    4  A    between atoms: C13_20  and  O4_21 
REMARK    5  A    between atoms: C15_23  and  O5_24 
ROOT
HETATM    1  N1  UNL     1      24.453   0.133  53.300  1.00  0.00    -0.339 N 
HETATM    2  H5  UNL     1      24.068  -0.818  53.469  1.00  0.00     0.167 HD
ENDROOT
BRANCH   1   3
HETATM    3  C4  UNL     1      23.451   0.769  52.511  1.00  0.00     0.052 A 
HETATM    4  C3  UNL     1      23.763   1.559  51.435  1.00  0.00     0.070 A 
HETATM    5  C2  UNL     1      22.976   2.248  50.544  1.00  0.00     0.106 A 
HETATM    6  C15 UNL     1      21.576   2.266  50.591  1.00  0.00     0.136 A 
HETATM    7  C13 UNL     1      20.814   1.586  51.546  1.00  0.00     0.118 A 
HETATM    8  P1  UNL     1      21.710   0.664  52.739  1.00  0.00     0.038 P 
BRANCH   5   9
HETATM    9  O1  UNL     1      23.355   3.025  49.478  1.00  0.00    -0.353 OA
HETATM   10  C1  UNL     1      24.592   3.664  49.434  1.00  0.00     0.210 C 
ENDBRANCH   5   9
BRANCH   6  11
HETATM   11  O5  UNL     1      20.745   2.953  49.714  1.00  0.00    -0.351 OA
HETATM   12  C16 UNL     1      20.226   4.239  50.009  1.00  0.00     0.210 C 
ENDBRANCH   6  11
BRANCH   7  13
HETATM   13  O4  UNL     1      19.480   1.428  51.831  1.00  0.00    -0.352 OA
HETATM   14  C14 UNL     1      18.816   0.223  51.578  1.00  0.00     0.210 C 
ENDBRANCH   7  13
ENDBRANCH   1   3
BRANCH   1  15
HETATM   15  C5  UNL     1      25.687   0.583  53.791  1.00  0.00     0.138 C 
HETATM   16  N2  UNL     1      25.968   1.850  54.120  1.00  0.00    -0.224 NA
HETATM   17  C6  UNL     1      26.896   2.547  53.391  1.00  0.00     0.237 C 
HETATM   18  N3  UNL     1      28.160   2.454  52.912  1.00  0.00    -0.230 NA
HETATM   19  C7  UNL     1      29.123   2.042  53.756  1.00  0.00     0.259 C 
HETATM   20  O2  UNL     1      29.379   1.036  54.586  1.00  0.00    -0.306 OA
HETATM   21  C8  UNL     1      28.715  -0.063  54.320  1.00  0.00     0.078 C 
HETATM   22  C9  UNL     1      27.536  -0.201  55.029  1.00  0.00     0.048 C 
HETATM   23  C12 UNL     1      29.145  -1.109  53.344  1.00  0.00     0.233 C 
HETATM   24  C10 UNL     1      26.677  -0.353  53.953  1.00  0.00     0.014 C 
HETATM   25  C11 UNL     1      26.874  -1.510  53.046  1.00  0.00     0.210 C 
HETATM   26  O3  UNL     1      28.137  -2.083  53.226  1.00  0.00    -0.380 OA
ENDBRANCH   1  15
TORSDOF 5
ENDMDL
MODEL 4
REMARK VINA RESULT:      -7.2      3.815      5.497
REMARK  5 active torsions:
REMARK  status: ('A' for Active; 'I' for Inactive)
REMARK    1  A    between atoms: O1_2  and  C2_3 
REMARK    2  A    between atoms: C4_5  and  N1_6 
REMARK    3  A    between atoms: N1_6  and  C5_7 
REMARK    4  A    between atoms: C13_20  and  O4_21 
REMARK    5  A    between atoms: C15_23  and  O5_24 
ROOT
HETATM    1  N1  UNL     1      26.699   2.511  50.623  1.00  0.00    -0.339 N 
HETATM    2  H5  UNL     1      26.827   1.867  49.816  1.00  0.00     0.167 HD
ENDROOT
BRANCH   1   3
HETATM    3  C4  UNL     1      26.240   3.718  50.022  1.00  0.00     0.052 A 
HETATM    4  C3  UNL     1      27.075   4.543  49.313  1.00  0.00     0.070 A 
HETATM    5  C2  UNL     1      26.851   5.727  48.653  1.00  0.00     0.106 A 
HETATM    6  C15 UNL     1      25.604   6.361  48.588  1.00  0.00     0.136 A 
HETATM    7  C13 UNL     1      24.439   5.866  49.185  1.00  0.00     0.118 A 
HETATM    8  P1  UNL     1      24.600   4.353  50.058  1.00  0.00     0.038 P 
BRANCH   5   9
HETATM    9  O1  UNL     1      27.738   6.507  47.954  1.00  0.00    -0.353 OA
HETATM   10  C1  UNL     1      29.098   6.213  47.905  1.00  0.00     0.210 C 
ENDBRANCH   5   9
BRANCH   6  11
HETATM   11  O5  UNL     1      25.336   7.559  47.937  1.00  0.00    -0.351 OA
HETATM   12  C16 UNL     1      25.332   8.806  48.611  1.00  0.00     0.210 C 
ENDBRANCH   6  11
BRANCH   7  13
HETATM   13  O4  UNL     1      23.127   6.256  49.289  1.00  0.00    -0.352 OA
HETATM   14  C14 UNL     1      22.639   6.881  50.442  1.00  0.00     0.210 C 
ENDBRANCH   7  13
ENDBRANCH   1   3
BRANCH   1  15
HETATM   15  C5  UNL     1      26.947   2.160  51.957  1.00  0.00     0.138 C 
HETATM   16  N2  UNL     1      28.114   2.328  52.593  1.00  0.00    -0.224 NA
HETATM   17  C6  UNL     1      28.828   1.230  52.995  1.00  0.00     0.237 C 
HETATM   18  N3  UNL     1      28.696   0.065  53.674  1.00  0.00    -0.230 NA
HETATM   19  C7  UNL     1      28.065   0.099  54.863  1.00  0.00     0.259 C 
HETATM   20  O2  UNL     1      26.921   0.521  55.390  1.00  0.00    -0.306 OA
HETATM   21  C8  UNL     1      25.946   0.651  54.523  1.00  0.00     0.078 C 
HETATM   22  C9  UNL     1      25.807   1.927  54.009  1.00  0.00     0.048 C 
HETATM   23  C12 UNL     1      25.033  -0.449  54.090  1.00  0.00     0.233 C 
HETATM   24  C10 UNL     1      25.910   1.609  52.665  1.00  0.00     0.014 C 
HETATM   25  C11 UNL     1      24.898   0.700  52.072  1.00  0.00     0.210 C 
HETATM   26  O3  UNL     1      24.188   0.018  53.066  1.00  0.00    -0.380 OA
ENDBRANCH   1  15
TORSDOF 5
ENDMDL
MODEL 5
REMARK VINA RESULT:      -7.1      3.055      7.115
REMARK  5 active torsions:
REMARK  status: ('A' for Active; 'I' for Inactive)
REMARK    1  A    between atoms: O1_2  and  C2_3 
REMARK    2  A    between atoms: C4_5  and  N1_6 
REMARK    3  A    between atoms: N1_6  and  C5_7 
REMARK    4  A    between atoms: C13_20  and  O4_21 
REMARK    5  A    between atoms: C15_23  and  O5_24 
ROOT
HETATM    1  N1  UNL     1      25.163   3.640  51.505  1.00  0.00    -0.339 N 
HETATM    2  H5  UNL     1      26.002   3.503  50.904  1.00  0.00     0.167 HD
ENDROOT
BRANCH   1   3
HETATM    3  C4  UNL     1      25.092   2.438  52.266  1.00  0.00     0.052 A 
HETATM    4  C3  UNL     1      26.036   2.115  53.206  1.00  0.00     0.070 A 
HETATM    5  C2  UNL     1      26.161   1.036  54.048  1.00  0.00     0.106 A 
HETATM    6  C15 UNL     1      25.253  -0.030  54.091  1.00  0.00     0.136 A 
HETATM    7  C13 UNL     1      24.113  -0.123  53.286  1.00  0.00     0.118 A 
HETATM    8  P1  UNL     1      23.844   1.202  52.168  1.00  0.00     0.038 P 
BRANCH   5   9
HETATM    9  O1  UNL     1      27.138   0.773  54.976  1.00  0.00    -0.353 OA
HETATM   10  C1  UNL     1      28.434   0.422  54.602  1.00  0.00     0.210 C 
ENDBRANCH   5   9
BRANCH   6  11
HETATM   11  O5  UNL     1      25.345  -1.140  54.922  1.00  0.00    -0.351 OA
HETATM   12  C16 UNL     1      24.580  -1.264  56.110  1.00  0.00     0.210 C 
ENDBRANCH   6  11
BRANCH   7  13
HETATM   13  O4  UNL     1      23.084  -1.014  53.112  1.00  0.00    -0.352 OA
HETATM   14  C14 UNL     1      21.808  -0.769  53.633  1.00  0.00     0.210 C 
ENDBRANCH   7  13
ENDBRANCH   1   3
BRANCH   1  15
HETATM   15  C5  UNL     1      24.362   4.791  51.488  1.00  0.00     0.138 C 
HETATM   16  N2  UNL     1      23.363   5.044  52.343  1.00  0.00    -0.224 NA
HETATM   17  C6  UNL     1      22.074   5.097  51.880  1.00  0.00     0.237 C 
HETATM   18  N3  UNL     1      21.313   5.667  50.916  1.00  0.00    -0.230 NA
HETATM   19  C7  UNL     1      21.447   6.990  50.710  1.00  0.00     0.259 C 
HETATM   20  O2  UNL     1      22.399   7.885  50.469  1.00  0.00    -0.306 OA
HETATM   21  C8  UNL     1      23.490   7.382  49.943  1.00  0.00     0.078 C 
HETATM   22  C9  UNL     1      24.470   7.063  50.864  1.00  0.00     0.048 C 
HETATM   23  C12 UNL     1      23.709   7.150  48.483  1.00  0.00     0.233 C 
HETATM   24  C10 UNL     1      24.630   5.729  50.525  1.00  0.00     0.014 C 
HETATM   25  C11 UNL     1      25.082   5.395  49.152  1.00  0.00     0.210 C 
HETATM   26  O3  UNL     1      24.937   6.490  48.293  1.00  0.00    -0.380 OA
ENDBRANCH   1  15
TORSDOF 5
ENDMDL
MODEL 6
REMARK VINA RESULT:      -7.1      4.574      6.832
REMARK  5 active torsions:
REMARK  status: ('A' for Active; 'I' for Inactive)
REMARK    1  A    between atoms: O1_2  and  C2_3 
REMARK    2  A    between atoms: C4_5  and  N1_6 
REMARK    3  A    between atoms: N1_6  and  C5_7 
REMARK    4  A    between atoms: C13_20  and  O4_21 
REMARK    5  A    between atoms: C15_23  and  O5_24 
ROOT
HETATM    1  N1  UNL     1      26.003   2.870  49.928  1.00  0.00    -0.339 N 
HETATM    2  H5  UNL     1      25.960   2.408  48.997  1.00  0.00     0.167 HD
ENDROOT
BRANCH   1   3
HETATM    3  C4  UNL     1      26.233   4.241  49.614  1.00  0.00     0.052 A 
HETATM    4  C3  UNL     1      27.331   4.651  48.902  1.00  0.00     0.070 A 
HETATM    5  C2  UNL     1      27.741   5.895  48.485  1.00  0.00     0.106 A 
HETATM    6  C15 UNL     1      27.037   7.078  48.745  1.00  0.00     0.136 A 
HETATM    7  C13 UNL     1      25.835   7.135  49.457  1.00  0.00     0.118 A 
HETATM    8  P1  UNL     1      25.207   5.605  50.042  1.00  0.00     0.038 P 
BRANCH   5   9
HETATM    9  O1  UNL     1      28.859   6.239  47.767  1.00  0.00    -0.353 OA
HETATM   10  C1  UNL     1      30.093   5.631  47.987  1.00  0.00     0.210 C 
ENDBRANCH   5   9
BRANCH   6  11
HETATM   11  O5  UNL     1      27.419   8.352  48.345  1.00  0.00    -0.351 OA
HETATM   12  C16 UNL     1      28.151   9.225  49.189  1.00  0.00     0.210 C 
ENDBRANCH   6  11
BRANCH   7  13
HETATM   13  O4  UNL     1      24.955   8.111  49.855  1.00  0.00    -0.352 OA
HETATM   14  C14 UNL     1      23.943   7.849  50.785  1.00  0.00     0.210 C 
ENDBRANCH   7  13
ENDBRANCH   1   3
BRANCH   1  15
HETATM   15  C5  UNL     1      25.849   2.199  51.149  1.00  0.00     0.138 C 
HETATM   16  N2  UNL     1      26.850   1.693  51.880  1.00  0.00    -0.224 NA
HETATM   17  C6  UNL     1      26.946   0.336  52.046  1.00  0.00     0.237 C 
HETATM   18  N3  UNL     1      26.216  -0.745  52.409  1.00  0.00    -0.230 NA
HETATM   19  C7  UNL     1      25.471  -0.655  53.526  1.00  0.00     0.259 C 
HETATM   20  O2  UNL     1      24.547   0.133  54.065  1.00  0.00    -0.306 OA
HETATM   21  C8  UNL     1      23.882   0.855  53.195  1.00  0.00     0.078 C 
HETATM   22  C9  UNL     1      24.392   2.125  53.002  1.00  0.00     0.048 C 
HETATM   23  C12 UNL     1      22.673   0.396  52.447  1.00  0.00     0.233 C 
HETATM   24  C10 UNL     1      24.572   2.057  51.631  1.00  0.00     0.014 C 
HETATM   25  C11 UNL     1      23.385   1.840  50.769  1.00  0.00     0.210 C 
HETATM   26  O3  UNL     1      22.295   1.382  51.517  1.00  0.00    -0.380 OA
ENDBRANCH   1  15
TORSDOF 5
ENDMDL
MODEL 7
REMARK VINA RESULT:      -7.0      3.182      7.465
REMARK  5 active torsions:
REMARK  status: ('A' for Active; 'I' for Inactive)
REMARK    1  A    between atoms: O1_2  and  C2_3 
REMARK    2  A    between atoms: C4_5  and  N1_6 
REMARK    3  A    between atoms: N1_6  and  C5_7 
REMARK    4  A    between atoms: C13_20  and  O4_21 
REMARK    5  A    between atoms: C15_23  and  O5_24 
ROOT
HETATM    1  N1  UNL     1      25.090   3.386  51.265  1.00  0.00    -0.339 N 
HETATM    2  H5  UNL     1      25.635   3.087  50.431  1.00  0.00     0.167 HD
ENDROOT
BRANCH   1   3
HETATM    3  C4  UNL     1      25.285   2.323  52.195  1.00  0.00     0.052 A 
HETATM    4  C3  UNL     1      24.375   1.309  52.342  1.00  0.00     0.070 A 
HETATM    5  C2  UNL     1      24.362   0.199  53.153  1.00  0.00     0.106 A 
HETATM    6  C15 UNL     1      25.380  -0.116  54.062  1.00  0.00     0.136 A 
HETATM    7  C13 UNL     1      26.529   0.659  54.253  1.00  0.00     0.118 A 
HETATM    8  P1  UNL     1      26.660   2.105  53.270  1.00  0.00     0.038 P 
BRANCH   5   9
HETATM    9  O1  UNL     1      23.413  -0.788  53.251  1.00  0.00    -0.353 OA
HETATM   10  C1  UNL     1      22.072  -0.552  52.960  1.00  0.00     0.210 C 
ENDBRANCH   5   9
BRANCH   6  11
HETATM   11  O5  UNL     1      25.403  -1.223  54.901  1.00  0.00    -0.351 OA
HETATM   12  C16 UNL     1      24.929  -1.175  56.236  1.00  0.00     0.210 C 
ENDBRANCH   6  11
BRANCH   7  13
HETATM   13  O4  UNL     1      27.650   0.604  55.044  1.00  0.00    -0.352 OA
HETATM   14  C14 UNL     1      28.846   0.046  54.578  1.00  0.00     0.210 C 
ENDBRANCH   7  13
ENDBRANCH   1   3
BRANCH   1  15
HETATM   15  C5  UNL     1      24.371   4.586  51.348  1.00  0.00     0.138 C 
HETATM   16  N2  UNL     1      23.417   4.851  52.251  1.00  0.00    -0.224 NA
HETATM   17  C6  UNL     1      22.122   5.019  51.836  1.00  0.00     0.237 C 
HETATM   18  N3  UNL     1      21.373   5.699  50.936  1.00  0.00    -0.230 NA
HETATM   19  C7  UNL     1      21.592   7.021  50.808  1.00  0.00     0.259 C 
HETATM   20  O2  UNL     1      22.596   7.864  50.591  1.00  0.00    -0.306 OA
HETATM   21  C8  UNL     1      23.633   7.324  49.997  1.00  0.00     0.078 C 
HETATM   22  C9  UNL     1      24.617   6.881  50.862  1.00  0.00     0.048 C 
HETATM   23  C12 UNL     1      23.791   7.171  48.519  1.00  0.00     0.233 C 
HETATM   24  C10 UNL     1      24.674   5.564  50.436  1.00  0.00     0.014 C 
HETATM   25  C11 UNL     1      25.060   5.290  49.030  1.00  0.00     0.210 C 
HETATM   26  O3  UNL     1      24.965   6.445  48.246  1.00  0.00    -0.380 OA
ENDBRANCH   1  15
TORSDOF 5
ENDMDL
MODEL 8
REMARK VINA RESULT:      -7.0      3.449      5.290
REMARK  5 active torsions:
REMARK  status: ('A' for Active; 'I' for Inactive)
REMARK    1  A    between atoms: O1_2  and  C2_3 
REMARK    2  A    between atoms: C4_5  and  N1_6 
REMARK    3  A    between atoms: N1_6  and  C5_7 
REMARK    4  A    between atoms: C13_20  and  O4_21 
REMARK    5  A    between atoms: C15_23  and  O5_24 
ROOT
HETATM    1  N1  UNL     1      26.709   2.534  50.766  1.00  0.00    -0.339 N 
HETATM    2  H5  UNL     1      26.938   1.953  49.935  1.00  0.00     0.167 HD
ENDROOT
BRANCH   1   3
HETATM    3  C4  UNL     1      26.090   3.691  50.210  1.00  0.00     0.052 A 
HETATM    4  C3  UNL     1      24.783   4.014  50.471  1.00  0.00     0.070 A 
HETATM    5  C2  UNL     1      23.998   5.064  50.060  1.00  0.00     0.106 A 
HETATM    6  C15 UNL     1      24.444   6.087  49.213  1.00  0.00     0.136 A 
HETATM    7  C13 UNL     1      25.738   6.163  48.688  1.00  0.00     0.118 A 
HETATM    8  P1  UNL     1      26.837   4.875  49.146  1.00  0.00     0.038 P 
BRANCH   5   9
HETATM    9  O1  UNL     1      22.686   5.332  50.362  1.00  0.00    -0.353 OA
HETATM   10  C1  UNL     1      22.220   5.344  51.675  1.00  0.00     0.210 C 
ENDBRANCH   5   9
BRANCH   6  11
HETATM   11  O5  UNL     1      23.683   7.162  48.771  1.00  0.00    -0.351 OA
HETATM   12  C16 UNL     1      23.690   8.419  49.427  1.00  0.00     0.210 C 
ENDBRANCH   6  11
BRANCH   7  13
HETATM   13  O4  UNL     1      26.432   7.013  47.862  1.00  0.00    -0.352 OA
HETATM   14  C14 UNL     1      27.822   7.151  47.957  1.00  0.00     0.210 C 
ENDBRANCH   7  13
ENDBRANCH   1   3
BRANCH   1  15
HETATM   15  C5  UNL     1      26.987   2.162  52.089  1.00  0.00     0.138 C 
HETATM   16  N2  UNL     1      28.143   2.388  52.725  1.00  0.00    -0.224 NA
HETATM   17  C6  UNL     1      28.930   1.328  53.093  1.00  0.00     0.237 C 
HETATM   18  N3  UNL     1      28.878   0.138  53.737  1.00  0.00    -0.230 NA
HETATM   19  C7  UNL     1      28.254   0.094  54.928  1.00  0.00     0.259 C 
HETATM   20  O2  UNL     1      27.087   0.424  55.471  1.00  0.00    -0.306 OA
HETATM   21  C8  UNL     1      26.100   0.514  54.612  1.00  0.00     0.078 C 
HETATM   22  C9  UNL     1      25.875   1.793  54.137  1.00  0.00     0.048 C 
HETATM   23  C12 UNL     1      25.260  -0.631  54.149  1.00  0.00     0.233 C 
HETATM   24  C10 UNL     1      25.992   1.522  52.783  1.00  0.00     0.014 C 
HETATM   25  C11 UNL     1      25.039   0.566  52.167  1.00  0.00     0.210 C 
HETATM   26  O3  UNL     1      24.381  -0.190  53.142  1.00  0.00    -0.380 OA
ENDBRANCH   1  15
TORSDOF 5
ENDMDL
MODEL 9
REMARK VINA RESULT:      -6.9      2.794      4.832
REMARK  5 active torsions:
REMARK  status: ('A' for Active; 'I' for Inactive)
REMARK    1  A    between atoms: O1_2  and  C2_3 
REMARK    2  A    between atoms: C4_5  and  N1_6 
REMARK    3  A    between atoms: N1_6  and  C5_7 
REMARK    4  A    between atoms: C13_20  and  O4_21 
REMARK    5  A    between atoms: C15_23  and  O5_24 
ROOT
HETATM    1  N1  UNL     1      26.402   3.159  51.313  1.00  0.00    -0.339 N 
HETATM    2  H5  UNL     1      27.297   3.684  51.245  1.00  0.00     0.167 HD
ENDROOT
BRANCH   1   3
HETATM    3  C4  UNL     1      25.440   4.057  50.767  1.00  0.00     0.052 A 
HETATM    4  C3  UNL     1      24.210   4.245  51.343  1.00  0.00     0.070 A 
HETATM    5  C2  UNL     1      23.151   5.052  51.001  1.00  0.00     0.106 A 
HETATM    6  C15 UNL     1      23.146   5.905  49.889  1.00  0.00     0.136 A 
HETATM    7  C13 UNL     1      24.215   6.038  48.998  1.00  0.00     0.118 A 
HETATM    8  P1  UNL     1      25.630   5.057  49.333  1.00  0.00     0.038 P 
BRANCH   5   9
HETATM    9  O1  UNL     1      21.938   5.196  51.627  1.00  0.00    -0.353 OA
HETATM   10  C1  UNL     1      21.143   4.101  51.956  1.00  0.00     0.210 C 
ENDBRANCH   5   9
BRANCH   6  11
HETATM   11  O5  UNL     1      22.096   6.731  49.507  1.00  0.00    -0.351 OA
HETATM   12  C16 UNL     1      22.052   8.107  49.845  1.00  0.00     0.210 C 
ENDBRANCH   6  11
BRANCH   7  13
HETATM   13  O4  UNL     1      24.485   6.763  47.863  1.00  0.00    -0.352 OA
HETATM   14  C14 UNL     1      25.541   7.679  47.815  1.00  0.00     0.210 C 
ENDBRANCH   7  13
ENDBRANCH   1   3
BRANCH   1  15
HETATM   15  C5  UNL     1      26.287   1.863  51.836  1.00  0.00     0.138 C 
HETATM   16  N2  UNL     1      25.250   1.040  51.630  1.00  0.00    -0.224 NA
HETATM   17  C6  UNL     1      24.448   0.688  52.684  1.00  0.00     0.237 C 
HETATM   18  N3  UNL     1      24.504   0.203  53.947  1.00  0.00    -0.230 NA
HETATM   19  C7  UNL     1      25.285  -0.869  54.176  1.00  0.00     0.259 C 
HETATM   20  O2  UNL     1      26.537  -1.267  53.982  1.00  0.00    -0.306 OA
HETATM   21  C8  UNL     1      27.397  -0.288  53.837  1.00  0.00     0.078 C 
HETATM   22  C9  UNL     1      27.645   0.061  52.522  1.00  0.00     0.048 C 
HETATM   23  C12 UNL     1      28.080   0.427  54.958  1.00  0.00     0.233 C 
HETATM   24  C10 UNL     1      27.320   1.404  52.612  1.00  0.00     0.014 C 
HETATM   25  C11 UNL     1      28.105   2.264  53.531  1.00  0.00     0.210 C 
HETATM   26  O3  UNL     1      28.838   1.493  54.441  1.00  0.00    -0.380 OA
ENDBRANCH   1  15
TORSDOF 5
ENDMDL
