MODEL 1
REMARK VINA RESULT:      -8.1      0.000      0.000
REMARK  5 active torsions:
REMARK  status: ('A' for Active; 'I' for Inactive)
REMARK    1  A    between atoms: C3_3  and  C4_4 
REMARK    2  A    between atoms: C4_4  and  C5_5 
REMARK    3  A    between atoms: C5_5  and  C6_6 
REMARK    4  A    between atoms: C6_6  and  C7_7 
REMARK    5  A    between atoms: C7_7  and  O2_9 
ROOT
HETATM    1  C1  UNL     1      27.334   0.614  52.054  1.00  0.00     0.068 C 
HETATM    2  C2  UNL     1      26.114   0.066  52.750  1.00  0.00     0.008 C 
HETATM    3  C3  UNL     1      24.870   0.584  52.711  1.00  0.00    -0.027 C 
HETATM    4  C8  UNL     1      23.922  -0.140  53.521  1.00  0.00    -0.016 C 
HETATM    5  C9  UNL     1      22.654  -0.405  53.585  1.00  0.00     0.053 A 
HETATM    6  C10 UNL     1      22.148  -1.248  54.699  1.00  0.00     0.257 A 
HETATM    7  O3  UNL     1      22.566  -1.861  55.736  1.00  0.00    -0.267 OA
HETATM    8  N1  UNL     1      20.748  -1.417  54.552  1.00  0.00    -0.322 N 
HETATM    9  C11 UNL     1      20.286  -0.735  53.400  1.00  0.00     0.046 A 
HETATM   10  C12 UNL     1      19.055  -0.581  52.801  1.00  0.00     0.030 A 
HETATM   11  C13 UNL     1      18.919   0.152  51.646  1.00  0.00     0.002 A 
HETATM   12  C14 UNL     1      20.038   0.726  51.105  1.00  0.00     0.001 A 
HETATM   13  C15 UNL     1      21.238   0.548  51.731  1.00  0.00     0.015 A 
HETATM   14  C16 UNL     1      21.420  -0.167  52.875  1.00  0.00     0.007 A 
HETATM   15  C17 UNL     1      24.967  -0.693  54.463  1.00  0.00     0.160 C 
HETATM   16  N2  UNL     1      26.040  -1.090  53.567  1.00  0.00    -0.389 N 
HETATM   17  H10 UNL     1      20.041  -1.939  55.133  1.00  0.00     0.169 HD
HETATM   18  H17 UNL     1      26.677  -1.919  53.416  1.00  0.00     0.159 HD
ENDROOT
BRANCH   3  19
HETATM   19  C4  UNL     1      24.512   1.808  51.955  1.00  0.00     0.042 C 
BRANCH  19  20
HETATM   20  C5  UNL     1      24.317   3.034  52.801  1.00  0.00     0.014 C 
BRANCH  20  21
HETATM   21  C6  UNL     1      23.008   3.676  52.398  1.00  0.00     0.112 C 
BRANCH  21  22
HETATM   22  C7  UNL     1      23.055   4.194  51.018  1.00  0.00     0.270 C 
HETATM   23  O1  UNL     1      23.933   5.070  50.738  1.00  0.00    -0.264 OA
BRANCH  22  24
HETATM   24  O2  UNL     1      22.144   3.702  50.104  1.00  0.00    -0.236 OA
HETATM   25 BR1  UNL     1      22.663   2.628  48.673  1.00  0.00     0.109 Br
ENDBRANCH  22  24
ENDBRANCH  21  22
ENDBRANCH  20  21
ENDBRANCH  19  20
ENDBRANCH   3  19
TORSDOF 5
ENDMDL
MODEL 2
REMARK VINA RESULT:      -7.7      1.613      4.786
REMARK  5 active torsions:
REMARK  status: ('A' for Active; 'I' for Inactive)
REMARK    1  A    between atoms: C3_3  and  C4_4 
REMARK    2  A    between atoms: C4_4  and  C5_5 
REMARK    3  A    between atoms: C5_5  and  C6_6 
REMARK    4  A    between atoms: C6_6  and  C7_7 
REMARK    5  A    between atoms: C7_7  and  O2_9 
ROOT
HETATM    1  C1  UNL     1      19.087  -0.294  52.955  1.00  0.00     0.068 C 
HETATM    2  C2  UNL     1      20.487  -0.438  53.495  1.00  0.00     0.008 C 
HETATM    3  C3  UNL     1      21.632  -0.297  52.797  1.00  0.00    -0.027 C 
HETATM    4  C8  UNL     1      22.815  -0.545  53.582  1.00  0.00    -0.016 C 
HETATM    5  C9  UNL     1      24.067  -0.209  53.644  1.00  0.00     0.053 A 
HETATM    6  C10 UNL     1      24.920  -0.793  54.712  1.00  0.00     0.257 A 
HETATM    7  O3  UNL     1      24.850  -1.608  55.690  1.00  0.00    -0.267 OA
HETATM    8  N1  UNL     1      26.232  -0.271  54.593  1.00  0.00    -0.322 N 
HETATM    9  C11 UNL     1      26.308   0.634  53.506  1.00  0.00     0.046 A 
HETATM   10  C12 UNL     1      27.311   1.409  52.966  1.00  0.00     0.030 A 
HETATM   11  C13 UNL     1      27.070   2.221  51.883  1.00  0.00     0.002 A 
HETATM   12  C14 UNL     1      25.807   2.240  51.353  1.00  0.00     0.001 A 
HETATM   13  C15 UNL     1      24.844   1.456  51.919  1.00  0.00     0.015 A 
HETATM   14  C16 UNL     1      25.036   0.636  52.990  1.00  0.00     0.007 A 
HETATM   15  C17 UNL     1      22.114  -1.443  54.576  1.00  0.00     0.160 C 
HETATM   16  N2  UNL     1      20.865  -0.744  54.826  1.00  0.00    -0.389 N 
HETATM   17  H10 UNL     1      27.107  -0.442  55.154  1.00  0.00     0.169 HD
HETATM   18  H17 UNL     1      20.271  -0.460  55.651  1.00  0.00     0.159 HD
ENDROOT
BRANCH   3  19
HETATM   19  C4  UNL     1      21.681   0.030  51.352  1.00  0.00     0.042 C 
BRANCH  19  20
HETATM   20  C5  UNL     1      21.153   1.391  50.999  1.00  0.00     0.014 C 
BRANCH  20  21
HETATM   21  C6  UNL     1      21.683   2.376  52.018  1.00  0.00     0.112 C 
BRANCH  21  22
HETATM   22  C7  UNL     1      20.824   3.570  52.124  1.00  0.00     0.270 C 
HETATM   23  O1  UNL     1      19.599   3.401  52.421  1.00  0.00    -0.264 OA
BRANCH  22  24
HETATM   24  O2  UNL     1      21.394   4.807  51.895  1.00  0.00    -0.236 OA
HETATM   25 BR1  UNL     1      23.239   5.065  51.926  1.00  0.00     0.109 Br
ENDBRANCH  22  24
ENDBRANCH  21  22
ENDBRANCH  20  21
ENDBRANCH  19  20
ENDBRANCH   3  19
TORSDOF 5
ENDMDL
MODEL 3
REMARK VINA RESULT:      -7.5      1.884      2.693
REMARK  5 active torsions:
REMARK  status: ('A' for Active; 'I' for Inactive)
REMARK    1  A    between atoms: C3_3  and  C4_4 
REMARK    2  A    between atoms: C4_4  and  C5_5 
REMARK    3  A    between atoms: C5_5  and  C6_6 
REMARK    4  A    between atoms: C6_6  and  C7_7 
REMARK    5  A    between atoms: C7_7  and  O2_9 
ROOT
HETATM    1  C1  UNL     1      26.417   3.236  49.849  1.00  0.00     0.068 C 
HETATM    2  C2  UNL     1      26.188   2.301  51.009  1.00  0.00     0.008 C 
HETATM    3  C3  UNL     1      25.040   2.150  51.701  1.00  0.00    -0.027 C 
HETATM    4  C8  UNL     1      25.147   1.212  52.790  1.00  0.00    -0.016 C 
HETATM    5  C9  UNL     1      24.419   0.390  53.482  1.00  0.00     0.053 A 
HETATM    6  C10 UNL     1      25.052  -0.389  54.578  1.00  0.00     0.257 A 
HETATM    7  O3  UNL     1      26.182  -0.543  55.149  1.00  0.00    -0.267 OA
HETATM    8  N1  UNL     1      24.076  -1.226  55.174  1.00  0.00    -0.322 N 
HETATM    9  C11 UNL     1      22.822  -1.054  54.538  1.00  0.00     0.046 A 
HETATM   10  C12 UNL     1      21.572  -1.609  54.707  1.00  0.00     0.030 A 
HETATM   11  C13 UNL     1      20.521  -1.238  53.902  1.00  0.00     0.002 A 
HETATM   12  C14 UNL     1      20.746  -0.302  52.928  1.00  0.00     0.001 A 
HETATM   13  C15 UNL     1      22.000   0.222  52.796  1.00  0.00     0.015 A 
HETATM   14  C16 UNL     1      23.070  -0.114  53.570  1.00  0.00     0.007 A 
HETATM   15  C17 UNL     1      26.639   1.392  52.958  1.00  0.00     0.160 C 
HETATM   16  N2  UNL     1      27.124   1.408  51.588  1.00  0.00    -0.389 N 
HETATM   17  H10 UNL     1      24.135  -1.914  55.969  1.00  0.00     0.169 HD
HETATM   18  H17 UNL     1      27.898   0.970  51.020  1.00  0.00     0.159 HD
ENDROOT
BRANCH   3  19
HETATM   19  C4  UNL     1      23.799   2.906  51.411  1.00  0.00     0.042 C 
BRANCH  19  20
HETATM   20  C5  UNL     1      23.261   3.697  52.569  1.00  0.00     0.014 C 
BRANCH  20  21
HETATM   21  C6  UNL     1      22.120   4.550  52.061  1.00  0.00     0.112 C 
BRANCH  21  22
HETATM   22  C7  UNL     1      20.913   3.746  51.793  1.00  0.00     0.270 C 
HETATM   23  O1  UNL     1      20.272   3.279  52.787  1.00  0.00    -0.264 OA
BRANCH  22  24
HETATM   24  O2  UNL     1      20.543   3.542  50.478  1.00  0.00    -0.236 OA
HETATM   25 BR1  UNL     1      20.593   1.854  49.690  1.00  0.00     0.109 Br
ENDBRANCH  22  24
ENDBRANCH  21  22
ENDBRANCH  20  21
ENDBRANCH  19  20
ENDBRANCH   3  19
TORSDOF 5
ENDMDL
MODEL 4
REMARK VINA RESULT:      -7.4      1.606      1.902
REMARK  5 active torsions:
REMARK  status: ('A' for Active; 'I' for Inactive)
REMARK    1  A    between atoms: C3_3  and  C4_4 
REMARK    2  A    between atoms: C4_4  and  C5_5 
REMARK    3  A    between atoms: C5_5  and  C6_6 
REMARK    4  A    between atoms: C6_6  and  C7_7 
REMARK    5  A    between atoms: C7_7  and  O2_9 
ROOT
HETATM    1  C1  UNL     1      26.453   1.533  51.367  1.00  0.00     0.068 C 
HETATM    2  C2  UNL     1      25.452   0.786  52.210  1.00  0.00     0.008 C 
HETATM    3  C3  UNL     1      24.145   1.084  52.354  1.00  0.00    -0.027 C 
HETATM    4  C8  UNL     1      23.455   0.210  53.269  1.00  0.00    -0.016 C 
HETATM    5  C9  UNL     1      22.271  -0.268  53.500  1.00  0.00     0.053 A 
HETATM    6  C10 UNL     1      22.074  -1.184  54.654  1.00  0.00     0.257 A 
HETATM    7  O3  UNL     1      22.729  -1.715  55.610  1.00  0.00    -0.267 OA
HETATM    8  N1  UNL     1      20.717  -1.589  54.696  1.00  0.00    -0.322 N 
HETATM    9  C11 UNL     1      19.990  -0.998  53.633  1.00  0.00     0.046 A 
HETATM   10  C12 UNL     1      18.680  -1.058  53.212  1.00  0.00     0.030 A 
HETATM   11  C13 UNL     1      18.263  -0.360  52.102  1.00  0.00     0.002 A 
HETATM   12  C14 UNL     1      19.183   0.396  51.426  1.00  0.00     0.001 A 
HETATM   13  C15 UNL     1      20.471   0.426  51.879  1.00  0.00     0.015 A 
HETATM   14  C16 UNL     1      20.928  -0.246  52.971  1.00  0.00     0.007 A 
HETATM   15  C17 UNL     1      24.698  -0.155  54.048  1.00  0.00     0.160 C 
HETATM   16  N2  UNL     1      25.689  -0.364  53.004  1.00  0.00    -0.389 N 
HETATM   17  H10 UNL     1      20.195  -2.223  55.356  1.00  0.00     0.169 HD
HETATM   18  H17 UNL     1      26.429  -1.073  52.750  1.00  0.00     0.159 HD
ENDROOT
BRANCH   3  19
HETATM   19  C4  UNL     1      23.483   2.227  51.681  1.00  0.00     0.042 C 
BRANCH  19  20
HETATM   20  C5  UNL     1      22.904   1.911  50.332  1.00  0.00     0.014 C 
BRANCH  20  21
HETATM   21  C6  UNL     1      23.407   2.950  49.353  1.00  0.00     0.112 C 
BRANCH  21  22
HETATM   22  C7  UNL     1      22.677   2.894  48.073  1.00  0.00     0.270 C 
HETATM   23  O1  UNL     1      22.505   1.757  47.532  1.00  0.00    -0.264 OA
BRANCH  22  24
HETATM   24  O2  UNL     1      22.221   4.079  47.529  1.00  0.00    -0.236 OA
HETATM   25 BR1  UNL     1      21.832   4.247  45.715  1.00  0.00     0.109 Br
ENDBRANCH  22  24
ENDBRANCH  21  22
ENDBRANCH  20  21
ENDBRANCH  19  20
ENDBRANCH   3  19
TORSDOF 5
ENDMDL
MODEL 5
REMARK VINA RESULT:      -7.0      2.400      3.413
REMARK  5 active torsions:
REMARK  status: ('A' for Active; 'I' for Inactive)
REMARK    1  A    between atoms: C3_3  and  C4_4 
REMARK    2  A    between atoms: C4_4  and  C5_5 
REMARK    3  A    between atoms: C5_5  and  C6_6 
REMARK    4  A    between atoms: C6_6  and  C7_7 
REMARK    5  A    between atoms: C7_7  and  O2_9 
ROOT
HETATM    1  C1  UNL     1      25.407   3.904  49.472  1.00  0.00     0.068 C 
HETATM    2  C2  UNL     1      25.587   2.930  50.609  1.00  0.00     0.008 C 
HETATM    3  C3  UNL     1      24.658   2.587  51.523  1.00  0.00    -0.027 C 
HETATM    4  C8  UNL     1      25.145   1.665  52.519  1.00  0.00    -0.016 C 
HETATM    5  C9  UNL     1      24.724   0.729  53.311  1.00  0.00     0.053 A 
HETATM    6  C10 UNL     1      25.695   0.049  54.207  1.00  0.00     0.257 A 
HETATM    7  O3  UNL     1      26.933   0.072  54.514  1.00  0.00    -0.267 OA
HETATM    8  N1  UNL     1      25.016  -0.942  54.959  1.00  0.00    -0.322 N 
HETATM    9  C11 UNL     1      23.641  -0.967  54.617  1.00  0.00     0.046 A 
HETATM   10  C12 UNL     1      22.561  -1.718  55.024  1.00  0.00     0.030 A 
HETATM   11  C13 UNL     1      21.313  -1.511  54.484  1.00  0.00     0.002 A 
HETATM   12  C14 UNL     1      21.171  -0.539  53.530  1.00  0.00     0.001 A 
HETATM   13  C15 UNL     1      22.269   0.181  53.156  1.00  0.00     0.015 A 
HETATM   14  C16 UNL     1      23.521   0.013  53.664  1.00  0.00     0.007 A 
HETATM   15  C17 UNL     1      26.591   2.082  52.370  1.00  0.00     0.160 C 
HETATM   16  N2  UNL     1      26.754   2.193  50.930  1.00  0.00    -0.389 N 
HETATM   17  H10 UNL     1      25.353  -1.621  55.690  1.00  0.00     0.169 HD
HETATM   18  H17 UNL     1      27.443   1.892  50.188  1.00  0.00     0.159 HD
ENDROOT
BRANCH   3  19
HETATM   19  C4  UNL     1      23.281   3.137  51.544  1.00  0.00     0.042 C 
BRANCH  19  20
HETATM   20  C5  UNL     1      23.088   4.313  52.458  1.00  0.00     0.014 C 
BRANCH  20  21
HETATM   21  C6  UNL     1      22.233   5.330  51.735  1.00  0.00     0.112 C 
BRANCH  21  22
HETATM   22  C7  UNL     1      23.054   6.335  51.034  1.00  0.00     0.270 C 
HETATM   23  O1  UNL     1      24.216   6.581  51.488  1.00  0.00    -0.264 OA
BRANCH  22  24
HETATM   24  O2  UNL     1      22.517   6.957  49.924  1.00  0.00    -0.236 OA
HETATM   25 BR1  UNL     1      20.915   7.905  50.001  1.00  0.00     0.109 Br
ENDBRANCH  22  24
ENDBRANCH  21  22
ENDBRANCH  20  21
ENDBRANCH  19  20
ENDBRANCH   3  19
TORSDOF 5
ENDMDL
MODEL 6
REMARK VINA RESULT:      -6.9      1.698      4.702
REMARK  5 active torsions:
REMARK  status: ('A' for Active; 'I' for Inactive)
REMARK    1  A    between atoms: C3_3  and  C4_4 
REMARK    2  A    between atoms: C4_4  and  C5_5 
REMARK    3  A    between atoms: C5_5  and  C6_6 
REMARK    4  A    between atoms: C6_6  and  C7_7 
REMARK    5  A    between atoms: C7_7  and  O2_9 
ROOT
HETATM    1  C1  UNL     1      18.732   0.869  51.643  1.00  0.00     0.068 C 
HETATM    2  C2  UNL     1      19.826   0.337  52.533  1.00  0.00     0.008 C 
HETATM    3  C3  UNL     1      21.119   0.160  52.194  1.00  0.00    -0.027 C 
HETATM    4  C8  UNL     1      21.915  -0.414  53.250  1.00  0.00    -0.016 C 
HETATM    5  C9  UNL     1      23.138  -0.439  53.684  1.00  0.00     0.053 A 
HETATM    6  C10 UNL     1      23.460  -1.246  54.889  1.00  0.00     0.257 A 
HETATM    7  O3  UNL     1      22.897  -2.018  55.735  1.00  0.00    -0.267 OA
HETATM    8  N1  UNL     1      24.839  -1.108  55.184  1.00  0.00    -0.322 N 
HETATM    9  C11 UNL     1      25.463  -0.251  54.243  1.00  0.00     0.046 A 
HETATM   10  C12 UNL     1      26.746   0.220  54.072  1.00  0.00     0.030 A 
HETATM   11  C13 UNL     1      27.051   1.076  53.040  1.00  0.00     0.002 A 
HETATM   12  C14 UNL     1      26.047   1.449  52.186  1.00  0.00     0.001 A 
HETATM   13  C15 UNL     1      24.790   0.959  52.394  1.00  0.00     0.015 A 
HETATM   14  C16 UNL     1      24.442   0.110  53.399  1.00  0.00     0.007 A 
HETATM   15  C17 UNL     1      20.746  -1.090  53.929  1.00  0.00     0.160 C 
HETATM   16  N2  UNL     1      19.708  -0.074  53.885  1.00  0.00    -0.389 N 
HETATM   17  H10 UNL     1      25.437  -1.519  55.947  1.00  0.00     0.169 HD
HETATM   18  H17 UNL     1      18.998   0.358  54.537  1.00  0.00     0.159 HD
ENDROOT
BRANCH   3  19
HETATM   19  C4  UNL     1      21.668   0.473  50.853  1.00  0.00     0.042 C 
BRANCH  19  20
HETATM   20  C5  UNL     1      21.988   1.923  50.630  1.00  0.00     0.014 C 
BRANCH  20  21
HETATM   21  C6  UNL     1      22.710   2.043  49.305  1.00  0.00     0.112 C 
BRANCH  21  22
HETATM   22  C7  UNL     1      21.976   2.904  48.359  1.00  0.00     0.270 C 
HETATM   23  O1  UNL     1      21.324   3.889  48.829  1.00  0.00    -0.264 OA
BRANCH  22  24
HETATM   24  O2  UNL     1      22.036   2.595  47.014  1.00  0.00    -0.236 OA
HETATM   25 BR1  UNL     1      21.823   3.893  45.693  1.00  0.00     0.109 Br
ENDBRANCH  22  24
ENDBRANCH  21  22
ENDBRANCH  20  21
ENDBRANCH  19  20
ENDBRANCH   3  19
TORSDOF 5
ENDMDL
MODEL 7
REMARK VINA RESULT:      -6.7      9.168     12.245
REMARK  5 active torsions:
REMARK  status: ('A' for Active; 'I' for Inactive)
REMARK    1  A    between atoms: C3_3  and  C4_4 
REMARK    2  A    between atoms: C4_4  and  C5_5 
REMARK    3  A    between atoms: C5_5  and  C6_6 
REMARK    4  A    between atoms: C6_6  and  C7_7 
REMARK    5  A    between atoms: C7_7  and  O2_9 
ROOT
HETATM    1  C1  UNL     1      31.642  10.100  46.629  1.00  0.00     0.068 C 
HETATM    2  C2  UNL     1      32.517   8.981  47.135  1.00  0.00     0.008 C 
HETATM    3  C3  UNL     1      32.121   7.727  47.432  1.00  0.00    -0.027 C 
HETATM    4  C8  UNL     1      33.183   6.896  47.941  1.00  0.00    -0.016 C 
HETATM    5  C9  UNL     1      33.541   5.650  48.001  1.00  0.00     0.053 A 
HETATM    6  C10 UNL     1      34.807   5.295  48.694  1.00  0.00     0.257 A 
HETATM    7  O3  UNL     1      35.766   5.843  49.331  1.00  0.00    -0.267 OA
HETATM    8  N1  UNL     1      35.000   3.893  48.616  1.00  0.00    -0.322 N 
HETATM    9  C11 UNL     1      33.933   3.286  47.908  1.00  0.00     0.046 A 
HETATM   10  C12 UNL     1      33.632   1.992  47.544  1.00  0.00     0.030 A 
HETATM   11  C13 UNL     1      32.495   1.707  46.826  1.00  0.00     0.002 A 
HETATM   12  C14 UNL     1      31.668   2.743  46.480  1.00  0.00     0.001 A 
HETATM   13  C15 UNL     1      32.005   4.009  46.861  1.00  0.00     0.015 A 
HETATM   14  C16 UNL     1      33.119   4.338  47.573  1.00  0.00     0.007 A 
HETATM   15  C17 UNL     1      34.003   8.054  48.462  1.00  0.00     0.160 C 
HETATM   16  N2  UNL     1      33.910   9.030  47.389  1.00  0.00    -0.389 N 
HETATM   17  H10 UNL     1      35.766   3.270  48.983  1.00  0.00     0.169 HD
HETATM   18  H17 UNL     1      34.552   9.668  46.845  1.00  0.00     0.159 HD
ENDROOT
BRANCH   3  19
HETATM   19  C4  UNL     1      30.722   7.253  47.301  1.00  0.00     0.042 C 
BRANCH  19  20
HETATM   20  C5  UNL     1      30.127   6.700  48.564  1.00  0.00     0.014 C 
BRANCH  20  21
HETATM   21  C6  UNL     1      29.067   5.692  48.177  1.00  0.00     0.112 C 
BRANCH  21  22
HETATM   22  C7  UNL     1      27.715   6.150  48.547  1.00  0.00     0.270 C 
HETATM   23  O1  UNL     1      27.569   7.364  48.897  1.00  0.00    -0.264 OA
BRANCH  22  24
HETATM   24  O2  UNL     1      26.679   5.238  48.495  1.00  0.00    -0.236 OA
HETATM   25 BR1  UNL     1      26.620   3.747  49.611  1.00  0.00     0.109 Br
ENDBRANCH  22  24
ENDBRANCH  21  22
ENDBRANCH  20  21
ENDBRANCH  19  20
ENDBRANCH   3  19
TORSDOF 5
ENDMDL
MODEL 8
REMARK VINA RESULT:      -6.5      3.287      5.321
REMARK  5 active torsions:
REMARK  status: ('A' for Active; 'I' for Inactive)
REMARK    1  A    between atoms: C3_3  and  C4_4 
REMARK    2  A    between atoms: C4_4  and  C5_5 
REMARK    3  A    between atoms: C5_5  and  C6_6 
REMARK    4  A    between atoms: C6_6  and  C7_7 
REMARK    5  A    between atoms: C7_7  and  O2_9 
ROOT
HETATM    1  C1  UNL     1      23.139   5.165  48.614  1.00  0.00     0.068 C 
HETATM    2  C2  UNL     1      22.919   4.034  49.587  1.00  0.00     0.008 C 
HETATM    3  C3  UNL     1      23.817   3.091  49.935  1.00  0.00    -0.027 C 
HETATM    4  C8  UNL     1      23.294   2.111  50.853  1.00  0.00    -0.016 C 
HETATM    5  C9  UNL     1      23.685   1.306  51.792  1.00  0.00     0.053 A 
HETATM    6  C10 UNL     1      22.683   0.440  52.466  1.00  0.00     0.257 A 
HETATM    7  O3  UNL     1      21.436   0.171  52.435  1.00  0.00    -0.267 OA
HETATM    8  N1  UNL     1      23.333  -0.333  53.460  1.00  0.00    -0.322 N 
HETATM    9  C11 UNL     1      24.717  -0.033  53.493  1.00  0.00     0.046 A 
HETATM   10  C12 UNL     1      25.780  -0.474  54.251  1.00  0.00     0.030 A 
HETATM   11  C13 UNL     1      27.044   0.029  54.052  1.00  0.00     0.002 A 
HETATM   12  C14 UNL     1      27.221   0.978  53.081  1.00  0.00     0.001 A 
HETATM   13  C15 UNL     1      26.140   1.386  52.354  1.00  0.00     0.015 A 
HETATM   14  C16 UNL     1      24.872   0.916  52.515  1.00  0.00     0.007 A 
HETATM   15  C17 UNL     1      21.856   2.304  50.428  1.00  0.00     0.160 C 
HETATM   16  N2  UNL     1      21.738   3.749  50.317  1.00  0.00    -0.389 N 
HETATM   17  H10 UNL     1      22.968  -1.053  54.137  1.00  0.00     0.169 HD
HETATM   18  H17 UNL     1      21.070   4.511  50.614  1.00  0.00     0.159 HD
ENDROOT
BRANCH   3  19
HETATM   19  C4  UNL     1      25.196   3.028  49.393  1.00  0.00     0.042 C 
BRANCH  19  20
HETATM   20  C5  UNL     1      26.174   3.953  50.060  1.00  0.00     0.014 C 
BRANCH  20  21
HETATM   21  C6  UNL     1      26.961   4.659  48.977  1.00  0.00     0.112 C 
BRANCH  21  22
HETATM   22  C7  UNL     1      26.650   6.100  48.927  1.00  0.00     0.270 C 
HETATM   23  O1  UNL     1      26.038   6.614  49.915  1.00  0.00    -0.264 OA
BRANCH  22  24
HETATM   24  O2  UNL     1      27.040   6.814  47.811  1.00  0.00    -0.236 OA
HETATM   25 BR1  UNL     1      28.832   7.167  47.441  1.00  0.00     0.109 Br
ENDBRANCH  22  24
ENDBRANCH  21  22
ENDBRANCH  20  21
ENDBRANCH  19  20
ENDBRANCH   3  19
TORSDOF 5
ENDMDL
MODEL 9
REMARK VINA RESULT:      -6.3      3.466      5.820
REMARK  5 active torsions:
REMARK  status: ('A' for Active; 'I' for Inactive)
REMARK    1  A    between atoms: C3_3  and  C4_4 
REMARK    2  A    between atoms: C4_4  and  C5_5 
REMARK    3  A    between atoms: C5_5  and  C6_6 
REMARK    4  A    between atoms: C6_6  and  C7_7 
REMARK    5  A    between atoms: C7_7  and  O2_9 
ROOT
HETATM    1  C1  UNL     1      20.151   2.641  47.928  1.00  0.00     0.068 C 
HETATM    2  C2  UNL     1      21.336   2.356  48.815  1.00  0.00     0.008 C 
HETATM    3  C3  UNL     1      21.301   2.086  50.135  1.00  0.00    -0.027 C 
HETATM    4  C8  UNL     1      22.607   1.904  50.718  1.00  0.00    -0.016 C 
HETATM    5  C9  UNL     1      23.192   1.283  51.695  1.00  0.00     0.053 A 
HETATM    6  C10 UNL     1      24.658   1.447  51.881  1.00  0.00     0.257 A 
HETATM    7  O3  UNL     1      25.651   2.061  51.369  1.00  0.00    -0.267 OA
HETATM    8  N1  UNL     1      25.074   0.667  52.989  1.00  0.00    -0.322 N 
HETATM    9  C11 UNL     1      23.969  -0.015  53.557  1.00  0.00     0.046 A 
HETATM   10  C12 UNL     1      23.815  -0.887  54.611  1.00  0.00     0.030 A 
HETATM   11  C13 UNL     1      22.580  -1.407  54.922  1.00  0.00     0.002 A 
HETATM   12  C14 UNL     1      21.507  -1.036  54.156  1.00  0.00     0.001 A 
HETATM   13  C15 UNL     1      21.706  -0.169  53.120  1.00  0.00     0.015 A 
HETATM   14  C16 UNL     1      22.908   0.372  52.777  1.00  0.00     0.007 A 
HETATM   15  C17 UNL     1      23.320   2.741  49.679  1.00  0.00     0.160 C 
HETATM   16  N2  UNL     1      22.701   2.316  48.435  1.00  0.00    -0.389 N 
HETATM   17  H10 UNL     1      26.020   0.524  53.429  1.00  0.00     0.169 HD
HETATM   18  H17 UNL     1      22.999   2.029  47.463  1.00  0.00     0.159 HD
ENDROOT
BRANCH   3  19
HETATM   19  C4  UNL     1      20.052   2.028  50.931  1.00  0.00     0.042 C 
BRANCH  19  20
HETATM   20  C5  UNL     1      19.308   0.727  50.836  1.00  0.00     0.014 C 
BRANCH  20  21
HETATM   21  C6  UNL     1      17.917   0.943  51.392  1.00  0.00     0.112 C 
BRANCH  21  22
HETATM   22  C7  UNL     1      17.397  -0.269  52.051  1.00  0.00     0.270 C 
HETATM   23  O1  UNL     1      16.152  -0.511  51.963  1.00  0.00    -0.264 OA
BRANCH  22  24
HETATM   24  O2  UNL     1      18.288  -1.078  52.730  1.00  0.00    -0.236 OA
HETATM   25 BR1  UNL     1      17.744  -2.630  53.604  1.00  0.00     0.109 Br
ENDBRANCH  22  24
ENDBRANCH  21  22
ENDBRANCH  20  21
ENDBRANCH  19  20
ENDBRANCH   3  19
TORSDOF 5
ENDMDL
