MODEL 1
REMARK VINA RESULT:      -7.4      0.000      0.000
REMARK  3 active torsions:
REMARK  status: ('A' for Active; 'I' for Inactive)
REMARK    1  A    between atoms: O1_1  and  C1_2 
REMARK    2  A    between atoms: C1_2  and  C2_3 
REMARK    3  A    between atoms: C2_3  and  N1_4 
ROOT
HETATM    1  N1  UNL     1      26.135  -0.172  53.170  1.00  0.00    -0.410 N 
HETATM    2  C3  UNL     1      25.027  -0.895  53.695  1.00  0.00     0.117 C 
HETATM    3  C4  UNL     1      23.772  -0.128  54.000  1.00  0.00     0.021 C 
HETATM    4  C5  UNL     1      22.982   0.422  52.916  1.00  0.00     0.029 C 
HETATM    5  C6  UNL     1      23.452   1.351  51.889  1.00  0.00     0.108 C 
HETATM    6  C7  UNL     1      24.218   2.578  52.240  1.00  0.00     0.122 C 
HETATM    7  S1  UNL     1      25.981   2.422  51.707  1.00  0.00    -0.154 SA
HETATM    8  C8  UNL     1      27.003   2.166  53.211  1.00  0.00     0.094 C 
HETATM    9  C9  UNL     1      26.341   0.994  53.910  1.00  0.00     0.127 C 
HETATM   10  C10 UNL     1      23.694   3.770  51.461  1.00  0.00     0.047 C 
HETATM   11  C11 UNL     1      23.788   4.209  50.173  1.00  0.00     0.029 C 
HETATM   12  C12 UNL     1      23.488   3.076  49.171  1.00  0.00     0.019 C 
HETATM   13  C13 UNL     1      22.613   2.014  49.430  1.00  0.00     0.091 C 
HETATM   14  N2  UNL     1      22.376   1.600  50.864  1.00  0.00    -0.358 N 
HETATM   15  C14 UNL     1      20.926   1.468  50.913  1.00  0.00     0.124 C 
HETATM   16  C15 UNL     1      20.185   2.098  51.767  1.00  0.00     0.099 C 
HETATM   17  N3  UNL     1      20.546   3.043  52.508  1.00  0.00    -0.254 NA
HETATM   18  C16 UNL     1      21.729   3.665  52.313  1.00  0.00     0.276 C 
HETATM   19  N4  UNL     1      22.776   4.565  52.337  1.00  0.00    -0.261 NA
ENDROOT
BRANCH   1  20
HETATM   20  C2  UNL     1      27.172  -1.010  52.769  1.00  0.00     0.143 C 
BRANCH  20  21
HETATM   21  C1  UNL     1      26.927  -2.407  52.377  1.00  0.00     0.183 C 
BRANCH  21  22
HETATM   22  O1  UNL     1      28.089  -3.135  52.769  1.00  0.00    -0.399 OA
HETATM   23  H1  UNL     1      28.083  -4.054  52.459  1.00  0.00     0.209 HD
ENDBRANCH  21  22
ENDBRANCH  20  21
ENDBRANCH   1  20
TORSDOF 3
ENDMDL
MODEL 2
REMARK VINA RESULT:      -6.6      2.119      3.799
REMARK  3 active torsions:
REMARK  status: ('A' for Active; 'I' for Inactive)
REMARK    1  A    between atoms: O1_1  and  C1_2 
REMARK    2  A    between atoms: C1_2  and  C2_3 
REMARK    3  A    between atoms: C2_3  and  N1_4 
ROOT
HETATM    1  N1  UNL     1      26.575   1.766  52.583  1.00  0.00    -0.410 N 
HETATM    2  C3  UNL     1      27.061   2.594  51.532  1.00  0.00     0.117 C 
HETATM    3  C4  UNL     1      26.286   2.620  50.246  1.00  0.00     0.021 C 
HETATM    4  C5  UNL     1      24.973   3.231  50.207  1.00  0.00     0.029 C 
HETATM    5  C6  UNL     1      23.826   2.869  51.039  1.00  0.00     0.108 C 
HETATM    6  C7  UNL     1      23.397   1.453  51.201  1.00  0.00     0.122 C 
HETATM    7  S1  UNL     1      23.755   0.854  52.914  1.00  0.00    -0.154 SA
HETATM    8  C8  UNL     1      25.186  -0.292  52.822  1.00  0.00     0.094 C 
HETATM    9  C9  UNL     1      26.247   0.503  52.086  1.00  0.00     0.127 C 
HETATM   10  C10 UNL     1      21.891   1.337  51.070  1.00  0.00     0.047 C 
HETATM   11  C11 UNL     1      20.818   1.640  51.857  1.00  0.00     0.029 C 
HETATM   12  C12 UNL     1      20.932   3.064  52.436  1.00  0.00     0.019 C 
HETATM   13  C13 UNL     1      21.578   4.124  51.788  1.00  0.00     0.091 C 
HETATM   14  N2  UNL     1      22.674   3.809  50.796  1.00  0.00    -0.358 N 
HETATM   15  C14 UNL     1      22.332   4.671  49.672  1.00  0.00     0.124 C 
HETATM   16  C15 UNL     1      22.156   4.230  48.468  1.00  0.00     0.099 C 
HETATM   17  N3  UNL     1      22.040   3.027  48.128  1.00  0.00    -0.254 NA
HETATM   18  C16 UNL     1      21.851   2.060  49.052  1.00  0.00     0.276 C 
HETATM   19  N4  UNL     1      21.552   0.871  49.688  1.00  0.00    -0.261 NA
ENDROOT
BRANCH   1  20
HETATM   20  C2  UNL     1      27.272   1.956  53.773  1.00  0.00     0.143 C 
BRANCH  20  21
HETATM   21  C1  UNL     1      28.628   1.417  53.967  1.00  0.00     0.183 C 
BRANCH  21  22
HETATM   22  O1  UNL     1      29.422   2.508  54.431  1.00  0.00    -0.399 OA
HETATM   23  H1  UNL     1      29.123   2.857  55.284  1.00  0.00     0.209 HD
ENDBRANCH  21  22
ENDBRANCH  20  21
ENDBRANCH   1  20
TORSDOF 3
ENDMDL
MODEL 3
REMARK VINA RESULT:      -6.6      9.179     11.520
REMARK  3 active torsions:
REMARK  status: ('A' for Active; 'I' for Inactive)
REMARK    1  A    between atoms: O1_1  and  C1_2 
REMARK    2  A    between atoms: C1_2  and  C2_3 
REMARK    3  A    between atoms: C2_3  and  N1_4 
ROOT
HETATM    1  N1  UNL     1      28.919   8.596  48.320  1.00  0.00    -0.410 N 
HETATM    2  C3  UNL     1      28.339   7.327  48.600  1.00  0.00     0.117 C 
HETATM    3  C4  UNL     1      28.798   6.152  47.785  1.00  0.00     0.021 C 
HETATM    4  C5  UNL     1      30.146   5.644  47.947  1.00  0.00     0.029 C 
HETATM    5  C6  UNL     1      31.383   6.406  47.781  1.00  0.00     0.108 C 
HETATM    6  C7  UNL     1      31.619   7.256  46.582  1.00  0.00     0.122 C 
HETATM    7  S1  UNL     1      31.571   9.048  47.033  1.00  0.00    -0.154 SA
HETATM    8  C8  UNL     1      30.000   9.749  46.391  1.00  0.00     0.094 C 
HETATM    9  C9  UNL     1      28.932   8.824  46.943  1.00  0.00     0.127 C 
HETATM   10  C10 UNL     1      33.022   7.041  46.048  1.00  0.00     0.047 C 
HETATM   11  C11 UNL     1      34.277   7.415  46.428  1.00  0.00     0.029 C 
HETATM   12  C12 UNL     1      34.513   7.145  47.927  1.00  0.00     0.019 C 
HETATM   13  C13 UNL     1      33.905   6.104  48.640  1.00  0.00     0.091 C 
HETATM   14  N2  UNL     1      32.578   5.568  48.153  1.00  0.00    -0.358 N 
HETATM   15  C14 UNL     1      32.784   4.127  48.219  1.00  0.00     0.124 C 
HETATM   16  C15 UNL     1      32.615   3.340  47.206  1.00  0.00     0.099 C 
HETATM   17  N3  UNL     1      32.469   3.690  46.010  1.00  0.00    -0.254 NA
HETATM   18  C16 UNL     1      32.713   4.961  45.625  1.00  0.00     0.276 C 
HETATM   19  N4  UNL     1      32.965   6.099  44.884  1.00  0.00    -0.261 NA
ENDROOT
BRANCH   1  20
HETATM   20  C2  UNL     1      28.545   9.565  49.247  1.00  0.00     0.143 C 
BRANCH  20  21
HETATM   21  C1  UNL     1      27.259   9.497  49.958  1.00  0.00     0.183 C 
BRANCH  21  22
HETATM   22  O1  UNL     1      27.557   9.724  51.335  1.00  0.00    -0.399 OA
HETATM   23  H1  UNL     1      26.814  10.105  51.825  1.00  0.00     0.209 HD
ENDBRANCH  21  22
ENDBRANCH  20  21
ENDBRANCH   1  20
TORSDOF 3
ENDMDL
MODEL 4
REMARK VINA RESULT:      -6.1      3.186      5.037
REMARK  3 active torsions:
REMARK  status: ('A' for Active; 'I' for Inactive)
REMARK    1  A    between atoms: O1_1  and  C1_2 
REMARK    2  A    between atoms: C1_2  and  C2_3 
REMARK    3  A    between atoms: C2_3  and  N1_4 
ROOT
HETATM    1  N1  UNL     1      25.423   2.572  51.835  1.00  0.00    -0.410 N 
HETATM    2  C3  UNL     1      26.472   2.917  50.937  1.00  0.00     0.117 C 
HETATM    3  C4  UNL     1      26.091   3.419  49.574  1.00  0.00     0.021 C 
HETATM    4  C5  UNL     1      25.459   4.716  49.434  1.00  0.00     0.029 C 
HETATM    5  C6  UNL     1      24.221   5.148  50.081  1.00  0.00     0.108 C 
HETATM    6  C7  UNL     1      22.992   4.309  50.051  1.00  0.00     0.122 C 
HETATM    7  S1  UNL     1      22.632   3.618  51.728  1.00  0.00    -0.154 SA
HETATM    8  C8  UNL     1      23.046   1.830  51.702  1.00  0.00     0.094 C 
HETATM    9  C9  UNL     1      24.470   1.790  51.181  1.00  0.00     0.127 C 
HETATM   10  C10 UNL     1      21.778   5.157  49.726  1.00  0.00     0.047 C 
HETATM   11  C11 UNL     1      21.013   6.062  50.401  1.00  0.00     0.029 C 
HETATM   12  C12 UNL     1      21.888   7.105  51.125  1.00  0.00     0.019 C 
HETATM   13  C13 UNL     1      23.140   7.531  50.666  1.00  0.00     0.091 C 
HETATM   14  N2  UNL     1      23.948   6.601  49.791  1.00  0.00    -0.358 N 
HETATM   15  C14 UNL     1      24.390   7.488  48.722  1.00  0.00     0.124 C 
HETATM   16  C15 UNL     1      24.170   7.251  47.468  1.00  0.00     0.099 C 
HETATM   17  N3  UNL     1      23.393   6.384  47.002  1.00  0.00    -0.254 NA
HETATM   18  C16 UNL     1      22.508   5.745  47.797  1.00  0.00     0.276 C 
HETATM   19  N4  UNL     1      21.445   5.003  48.273  1.00  0.00    -0.261 NA
ENDROOT
BRANCH   1  20
HETATM   20  C2  UNL     1      25.893   2.287  53.114  1.00  0.00     0.143 C 
BRANCH  20  21
HETATM   21  C1  UNL     1      27.275   1.838  53.346  1.00  0.00     0.183 C 
BRANCH  21  22
HETATM   22  O1  UNL     1      27.890   2.851  54.140  1.00  0.00    -0.399 OA
HETATM   23  H1  UNL     1      27.250   3.455  54.544  1.00  0.00     0.209 HD
ENDBRANCH  21  22
ENDBRANCH  20  21
ENDBRANCH   1  20
TORSDOF 3
ENDMDL
MODEL 5
REMARK VINA RESULT:      -6.1      7.853      9.324
REMARK  3 active torsions:
REMARK  status: ('A' for Active; 'I' for Inactive)
REMARK    1  A    between atoms: O1_1  and  C1_2 
REMARK    2  A    between atoms: C1_2  and  C2_3 
REMARK    3  A    between atoms: C2_3  and  N1_4 
ROOT
HETATM    1  N1  UNL     1      31.618   6.572  47.835  1.00  0.00    -0.410 N 
HETATM    2  C3  UNL     1      30.763   5.453  47.631  1.00  0.00     0.117 C 
HETATM    3  C4  UNL     1      29.437   5.447  48.335  1.00  0.00     0.021 C 
HETATM    4  C5  UNL     1      28.406   6.387  47.938  1.00  0.00     0.029 C 
HETATM    5  C6  UNL     1      28.530   7.843  47.910  1.00  0.00     0.108 C 
HETATM    6  C7  UNL     1      29.075   8.602  49.068  1.00  0.00     0.122 C 
HETATM    7  S1  UNL     1      30.741   9.298  48.667  1.00  0.00    -0.154 SA
HETATM    8  C8  UNL     1      31.996   8.316  49.577  1.00  0.00     0.094 C 
HETATM    9  C9  UNL     1      31.689   6.881  49.194  1.00  0.00     0.127 C 
HETATM   10  C10 UNL     1      28.218   9.820  49.355  1.00  0.00     0.047 C 
HETATM   11  C11 UNL     1      28.038  11.042  48.777  1.00  0.00     0.029 C 
HETATM   12  C12 UNL     1      27.832  10.917  47.254  1.00  0.00     0.019 C 
HETATM   13  C13 UNL     1      27.234   9.813  46.633  1.00  0.00     0.091 C 
HETATM   14  N2  UNL     1      27.291   8.471  47.325  1.00  0.00    -0.358 N 
HETATM   15  C14 UNL     1      25.919   7.998  47.197  1.00  0.00     0.124 C 
HETATM   16  C15 UNL     1      25.195   7.640  48.209  1.00  0.00     0.099 C 
HETATM   17  N3  UNL     1      25.462   7.837  49.419  1.00  0.00    -0.254 NA
HETATM   18  C16 UNL     1      26.456   8.676  49.782  1.00  0.00     0.276 C 
HETATM   19  N4  UNL     1      27.294   9.513  50.492  1.00  0.00    -0.261 NA
ENDROOT
BRANCH   1  20
HETATM   20  C2  UNL     1      32.734   6.545  47.003  1.00  0.00     0.143 C 
BRANCH  20  21
HETATM   21  C1  UNL     1      33.819   5.571  47.200  1.00  0.00     0.183 C 
BRANCH  21  22
HETATM   22  O1  UNL     1      34.988   6.336  47.489  1.00  0.00    -0.399 OA
HETATM   23  H1  UNL     1      35.184   6.383  48.437  1.00  0.00     0.209 HD
ENDBRANCH  21  22
ENDBRANCH  20  21
ENDBRANCH   1  20
TORSDOF 3
ENDMDL
MODEL 6
REMARK VINA RESULT:      -6.1      3.606      4.711
REMARK  3 active torsions:
REMARK  status: ('A' for Active; 'I' for Inactive)
REMARK    1  A    between atoms: O1_1  and  C1_2 
REMARK    2  A    between atoms: C1_2  and  C2_3 
REMARK    3  A    between atoms: C2_3  and  N1_4 
ROOT
HETATM    1  N1  UNL     1      25.025   4.700  50.030  1.00  0.00    -0.410 N 
HETATM    2  C3  UNL     1      25.607   3.623  50.755  1.00  0.00     0.117 C 
HETATM    3  C4  UNL     1      24.776   2.964  51.818  1.00  0.00     0.021 C 
HETATM    4  C5  UNL     1      23.622   2.171  51.443  1.00  0.00     0.029 C 
HETATM    5  C6  UNL     1      22.479   2.628  50.653  1.00  0.00     0.108 C 
HETATM    6  C7  UNL     1      21.772   3.899  50.969  1.00  0.00     0.122 C 
HETATM    7  S1  UNL     1      22.102   5.172  49.670  1.00  0.00    -0.154 SA
HETATM    8  C8  UNL     1      23.249   6.417  50.379  1.00  0.00     0.094 C 
HETATM    9  C9  UNL     1      24.406   5.591  50.909  1.00  0.00     0.127 C 
HETATM   10  C10 UNL     1      20.270   3.695  50.922  1.00  0.00     0.047 C 
HETATM   11  C11 UNL     1      19.337   3.546  49.938  1.00  0.00     0.029 C 
HETATM   12  C12 UNL     1      19.786   2.505  48.893  1.00  0.00     0.019 C 
HETATM   13  C13 UNL     1      20.599   1.403  49.186  1.00  0.00     0.091 C 
HETATM   14  N2  UNL     1      21.540   1.486  50.366  1.00  0.00    -0.358 N 
HETATM   15  C14 UNL     1      21.317   0.208  51.030  1.00  0.00     0.124 C 
HETATM   16  C15 UNL     1      20.976   0.106  52.275  1.00  0.00     0.099 C 
HETATM   17  N3  UNL     1      20.587   1.040  53.017  1.00  0.00    -0.254 NA
HETATM   18  C16 UNL     1      20.257   2.244  52.501  1.00  0.00     0.276 C 
HETATM   19  N4  UNL     1      19.754   3.517  52.317  1.00  0.00    -0.261 NA
ENDROOT
BRANCH   1  20
HETATM   20  C2  UNL     1      25.820   5.113  48.964  1.00  0.00     0.143 C 
BRANCH  20  21
HETATM   21  C1  UNL     1      27.237   4.729  48.865  1.00  0.00     0.183 C 
BRANCH  21  22
HETATM   22  O1  UNL     1      27.985   5.898  49.193  1.00  0.00    -0.399 OA
HETATM   23  H1  UNL     1      28.832   5.949  48.725  1.00  0.00     0.209 HD
ENDBRANCH  21  22
ENDBRANCH  20  21
ENDBRANCH   1  20
TORSDOF 3
ENDMDL
MODEL 7
REMARK VINA RESULT:      -5.9      7.996     10.459
REMARK  3 active torsions:
REMARK  status: ('A' for Active; 'I' for Inactive)
REMARK    1  A    between atoms: O1_1  and  C1_2 
REMARK    2  A    between atoms: C1_2  and  C2_3 
REMARK    3  A    between atoms: C2_3  and  N1_4 
ROOT
HETATM    1  N1  UNL     1      25.985   7.345  48.842  1.00  0.00    -0.410 N 
HETATM    2  C3  UNL     1      26.655   6.099  48.999  1.00  0.00     0.117 C 
HETATM    3  C4  UNL     1      27.911   5.874  48.208  1.00  0.00     0.021 C 
HETATM    4  C5  UNL     1      29.107   6.629  48.523  1.00  0.00     0.029 C 
HETATM    5  C6  UNL     1      29.228   8.086  48.544  1.00  0.00     0.108 C 
HETATM    6  C7  UNL     1      28.738   8.925  47.417  1.00  0.00     0.122 C 
HETATM    7  S1  UNL     1      27.242   9.888  47.922  1.00  0.00    -0.154 SA
HETATM    8  C8  UNL     1      25.782   9.128  47.110  1.00  0.00     0.094 C 
HETATM    9  C9  UNL     1      25.873   7.661  47.488  1.00  0.00     0.127 C 
HETATM   10  C10 UNL     1      29.763   9.984  47.059  1.00  0.00     0.047 C 
HETATM   11  C11 UNL     1      30.182  11.160  47.610  1.00  0.00     0.029 C 
HETATM   12  C12 UNL     1      30.469  11.001  49.116  1.00  0.00     0.019 C 
HETATM   13  C13 UNL     1      30.917   9.814  49.708  1.00  0.00     0.091 C 
HETATM   14  N2  UNL     1      30.591   8.500  49.036  1.00  0.00    -0.358 N 
HETATM   15  C14 UNL     1      31.872   7.805  49.075  1.00  0.00     0.124 C 
HETATM   16  C15 UNL     1      32.455   7.333  48.021  1.00  0.00     0.099 C 
HETATM   17  N3  UNL     1      32.142   7.572  46.829  1.00  0.00    -0.254 NA
HETATM   18  C16 UNL     1      31.278   8.564  46.525  1.00  0.00     0.276 C 
HETATM   19  N4  UNL     1      30.543   9.529  45.865  1.00  0.00    -0.261 NA
ENDROOT
BRANCH   1  20
HETATM   20  C2  UNL     1      24.940   7.503  49.748  1.00  0.00     0.143 C 
BRANCH  20  21
HETATM   21  C1  UNL     1      24.538   6.418  50.658  1.00  0.00     0.183 C 
BRANCH  21  22
HETATM   22  O1  UNL     1      24.542   6.982  51.968  1.00  0.00    -0.399 OA
HETATM   23  H1  UNL     1      24.976   6.414  52.623  1.00  0.00     0.209 HD
ENDBRANCH  21  22
ENDBRANCH  20  21
ENDBRANCH   1  20
TORSDOF 3
ENDMDL
MODEL 8
REMARK VINA RESULT:      -5.9      2.301      2.736
REMARK  3 active torsions:
REMARK  status: ('A' for Active; 'I' for Inactive)
REMARK    1  A    between atoms: O1_1  and  C1_2 
REMARK    2  A    between atoms: C1_2  and  C2_3 
REMARK    3  A    between atoms: C2_3  and  N1_4 
ROOT
HETATM    1  N1  UNL     1      25.025   1.305  52.527  1.00  0.00    -0.410 N 
HETATM    2  C3  UNL     1      24.485   0.041  52.894  1.00  0.00     0.117 C 
HETATM    3  C4  UNL     1      23.023  -0.025  53.232  1.00  0.00     0.021 C 
HETATM    4  C5  UNL     1      22.033   0.168  52.192  1.00  0.00     0.029 C 
HETATM    5  C6  UNL     1      21.910   1.337  51.322  1.00  0.00     0.108 C 
HETATM    6  C7  UNL     1      21.915   2.720  51.870  1.00  0.00     0.122 C 
HETATM    7  S1  UNL     1      23.477   3.598  51.414  1.00  0.00    -0.154 SA
HETATM    8  C8  UNL     1      24.519   3.715  52.921  1.00  0.00     0.094 C 
HETATM    9  C9  UNL     1      24.600   2.286  53.424  1.00  0.00     0.127 C 
HETATM   10  C10 UNL     1      20.818   3.549  51.230  1.00  0.00     0.047 C 
HETATM   11  C11 UNL     1      20.629   4.145  50.018  1.00  0.00     0.029 C 
HETATM   12  C12 UNL     1      20.950   3.178  48.861  1.00  0.00     0.019 C 
HETATM   13  C13 UNL     1      20.781   1.789  48.932  1.00  0.00     0.091 C 
HETATM   14  N2  UNL     1      20.839   1.118  50.285  1.00  0.00    -0.358 N 
HETATM   15  C14 UNL     1      19.683   0.232  50.241  1.00  0.00     0.124 C 
HETATM   16  C15 UNL     1      18.743   0.248  51.131  1.00  0.00     0.099 C 
HETATM   17  N3  UNL     1      18.567   1.128  52.009  1.00  0.00    -0.254 NA
HETATM   18  C16 UNL     1      19.233   2.302  51.958  1.00  0.00     0.276 C 
HETATM   19  N4  UNL     1      19.642   3.606  52.155  1.00  0.00    -0.261 NA
ENDROOT
BRANCH   1  20
HETATM   20  C2  UNL     1      26.338   1.209  52.073  1.00  0.00     0.143 C 
BRANCH  20  21
HETATM   21  C1  UNL     1      27.475   1.635  52.904  1.00  0.00     0.183 C 
BRANCH  21  22
HETATM   22  O1  UNL     1      27.941   2.857  52.335  1.00  0.00    -0.399 OA
HETATM   23  H1  UNL     1      27.609   3.008  51.438  1.00  0.00     0.209 HD
ENDBRANCH  21  22
ENDBRANCH  20  21
ENDBRANCH   1  20
TORSDOF 3
ENDMDL
MODEL 9
REMARK VINA RESULT:      -5.8      3.494      5.856
REMARK  3 active torsions:
REMARK  status: ('A' for Active; 'I' for Inactive)
REMARK    1  A    between atoms: O1_1  and  C1_2 
REMARK    2  A    between atoms: C1_2  and  C2_3 
REMARK    3  A    between atoms: C2_3  and  N1_4 
ROOT
HETATM    1  N1  UNL     1      19.876   1.584  50.201  1.00  0.00    -0.410 N 
HETATM    2  C3  UNL     1      20.239   0.579  51.140  1.00  0.00     0.117 C 
HETATM    3  C4  UNL     1      21.699   0.281  51.319  1.00  0.00     0.021 C 
HETATM    4  C5  UNL     1      22.565   1.263  51.940  1.00  0.00     0.029 C 
HETATM    5  C6  UNL     1      22.770   2.640  51.494  1.00  0.00     0.108 C 
HETATM    6  C7  UNL     1      23.068   2.963  50.072  1.00  0.00     0.122 C 
HETATM    7  S1  UNL     1      21.631   3.813  49.279  1.00  0.00    -0.154 SA
HETATM    8  C8  UNL     1      20.828   2.617  48.140  1.00  0.00     0.094 C 
HETATM    9  C9  UNL     1      20.573   1.398  49.007  1.00  0.00     0.127 C 
HETATM   10  C10 UNL     1      24.197   3.972  49.983  1.00  0.00     0.047 C 
HETATM   11  C11 UNL     1      24.325   5.312  50.202  1.00  0.00     0.029 C 
HETATM   12  C12 UNL     1      23.699   5.722  51.549  1.00  0.00     0.019 C 
HETATM   13  C13 UNL     1      23.639   4.887  52.672  1.00  0.00     0.091 C 
HETATM   14  N2  UNL     1      23.645   3.390  52.464  1.00  0.00    -0.358 N 
HETATM   15  C14 UNL     1      24.620   2.944  53.451  1.00  0.00     0.124 C 
HETATM   16  C15 UNL     1      25.656   2.229  53.152  1.00  0.00     0.099 C 
HETATM   17  N3  UNL     1      26.090   1.998  51.997  1.00  0.00    -0.254 NA
HETATM   18  C16 UNL     1      25.631   2.690  50.932  1.00  0.00     0.276 C 
HETATM   19  N4  UNL     1      25.476   3.253  49.681  1.00  0.00    -0.261 NA
ENDROOT
BRANCH   1  20
HETATM   20  C2  UNL     1      18.519   1.890  50.249  1.00  0.00     0.143 C 
BRANCH  20  21
HETATM   21  C1  UNL     1      17.825   2.121  51.526  1.00  0.00     0.183 C 
BRANCH  21  22
HETATM   22  O1  UNL     1      18.122   3.466  51.897  1.00  0.00    -0.399 OA
HETATM   23  H1  UNL     1      18.156   4.069  51.139  1.00  0.00     0.209 HD
ENDBRANCH  21  22
ENDBRANCH  20  21
ENDBRANCH   1  20
TORSDOF 3
ENDMDL
