MODEL 1
REMARK VINA RESULT:      -8.5      0.000      0.000
REMARK  7 active torsions:
REMARK  status: ('A' for Active; 'I' for Inactive)
REMARK    1  A    between atoms: C2_2  and  N1_3 
REMARK    2  A    between atoms: C2_2  and  C15_21 
REMARK    3  A    between atoms: N1_3  and  C3_4 
REMARK    4  A    between atoms: C6_9  and  C7_10 
REMARK    5  A    between atoms: C8_11  and  N4_12 
REMARK    6  A    between atoms: C8_11  and  C9_13 
REMARK    7  A    between atoms: C9_13  and  C10_14 
ROOT
HETATM    1  C3  UNL     1      25.863   2.862  50.494  1.00  0.00     0.137 A 
HETATM    2  N2  UNL     1      26.935   3.499  50.056  1.00  0.00    -0.224 NA
HETATM    3  C4  UNL     1      26.797   4.594  49.295  1.00  0.00     0.234 A 
HETATM    4  N3  UNL     1      25.586   5.081  48.950  1.00  0.00    -0.253 NA
HETATM    5  C5  UNL     1      24.442   4.470  49.369  1.00  0.00     0.133 A 
HETATM    6  C6  UNL     1      24.592   3.347  50.150  1.00  0.00     0.029 A 
ENDROOT
BRANCH   6   7
HETATM    7  C7  UNL     1      23.391   2.676  50.627  1.00  0.00     0.041 C 
HETATM    8  C8  UNL     1      22.756   2.904  51.787  1.00  0.00     0.007 C 
BRANCH   8   9
HETATM    9  N4  UNL     1      23.303   3.898  52.640  1.00  0.00    -0.402 N 
HETATM   10  H9  UNL     1      23.329   4.936  52.558  1.00  0.00     0.156 HD
HETATM   11  H10 UNL     1      23.749   3.467  53.487  1.00  0.00     0.156 HD
ENDBRANCH   8   9
BRANCH   8  12
HETATM   12  C9  UNL     1      21.547   2.120  52.107  1.00  0.00     0.092 C 
BRANCH  12  13
HETATM   13  C10 UNL     1      21.894   1.002  52.998  1.00  0.00    -0.055 A 
HETATM   14  C11 UNL     1      20.989   0.613  53.895  1.00  0.00     0.093 A 
HETATM   15  N5  UNL     1      21.162  -0.443  54.824  1.00  0.00    -0.343 N 
HETATM   16  C12 UNL     1      22.373  -1.178  54.845  1.00  0.00     0.184 A 
HETATM   17  H14 UNL     1      20.406  -0.679  55.488  1.00  0.00     0.167 HD
HETATM   18  F1  UNL     1      22.628  -2.193  55.687  1.00  0.00    -0.187 F 
HETATM   19  C13 UNL     1      23.264  -0.788  53.954  1.00  0.00     0.039 A 
HETATM   20  C14 UNL     1      23.195   0.293  52.940  1.00  0.00     0.067 A 
ENDBRANCH  12  13
ENDBRANCH   8  12
ENDBRANCH   6   7
BRANCH   1  21
HETATM   21  N1  UNL     1      26.040   1.679  51.283  1.00  0.00    -0.366 N 
HETATM   22  H5  UNL     1      25.470   0.844  50.938  1.00  0.00     0.161 HD
BRANCH  21  23
HETATM   23  C2  UNL     1      26.859   1.520  52.422  1.00  0.00     0.112 C 
HETATM   24  C1  UNL     1      26.266   2.075  53.720  1.00  0.00     0.037 C 
BRANCH  23  25
HETATM   25  C15 UNL     1      27.481   0.241  52.691  1.00  0.00    -0.036 A 
HETATM   26  C16 UNL     1      28.714  -0.027  53.235  1.00  0.00     0.009 A 
HETATM   27  C17 UNL     1      29.281  -1.251  53.478  1.00  0.00     0.001 A 
HETATM   28  C18 UNL     1      28.556  -2.377  53.149  1.00  0.00     0.000 A 
HETATM   29  C19 UNL     1      27.301  -2.240  52.596  1.00  0.00     0.001 A 
HETATM   30  C20 UNL     1      26.823  -0.967  52.393  1.00  0.00     0.009 A 
ENDBRANCH  23  25
ENDBRANCH  21  23
ENDBRANCH   1  21
TORSDOF 7
ENDMDL
MODEL 2
REMARK VINA RESULT:      -8.4      3.198      6.673
REMARK  7 active torsions:
REMARK  status: ('A' for Active; 'I' for Inactive)
REMARK    1  A    between atoms: C2_2  and  N1_3 
REMARK    2  A    between atoms: C2_2  and  C15_21 
REMARK    3  A    between atoms: N1_3  and  C3_4 
REMARK    4  A    between atoms: C6_9  and  C7_10 
REMARK    5  A    between atoms: C8_11  and  N4_12 
REMARK    6  A    between atoms: C8_11  and  C9_13 
REMARK    7  A    between atoms: C9_13  and  C10_14 
ROOT
HETATM    1  C3  UNL     1      26.792   0.108  53.577  1.00  0.00     0.137 A 
HETATM    2  N2  UNL     1      27.506  -0.401  54.566  1.00  0.00    -0.224 NA
HETATM    3  C4  UNL     1      28.603   0.240  54.997  1.00  0.00     0.234 A 
HETATM    4  N3  UNL     1      29.015   1.404  54.452  1.00  0.00    -0.253 NA
HETATM    5  C5  UNL     1      28.323   1.981  53.430  1.00  0.00     0.133 A 
HETATM    6  C6  UNL     1      27.199   1.317  52.993  1.00  0.00     0.029 A 
ENDROOT
BRANCH   6   7
HETATM    7  C7  UNL     1      26.428   1.912  51.910  1.00  0.00     0.041 C 
HETATM    8  C8  UNL     1      25.421   2.791  52.037  1.00  0.00     0.007 C 
BRANCH   8   9
HETATM    9  N4  UNL     1      25.068   3.187  53.353  1.00  0.00    -0.402 N 
HETATM   10  H9  UNL     1      24.593   2.669  54.122  1.00  0.00     0.156 HD
HETATM   11  H10 UNL     1      25.353   4.180  53.539  1.00  0.00     0.156 HD
ENDBRANCH   8   9
BRANCH   8  12
HETATM   12  C9  UNL     1      24.748   3.286  50.819  1.00  0.00     0.092 C 
BRANCH  12  13
HETATM   13  C10 UNL     1      25.645   4.190  50.082  1.00  0.00    -0.055 A 
HETATM   14  C11 UNL     1      25.412   5.500  50.156  1.00  0.00     0.093 A 
HETATM   15  N5  UNL     1      26.177   6.503  49.511  1.00  0.00    -0.343 N 
HETATM   16  C12 UNL     1      27.289   6.142  48.711  1.00  0.00     0.184 A 
HETATM   17  H14 UNL     1      25.925   7.499  49.621  1.00  0.00     0.167 HD
HETATM   18  F1  UNL     1      28.071   7.020  48.062  1.00  0.00    -0.187 F 
HETATM   19  C13 UNL     1      27.514   4.844  48.642  1.00  0.00     0.039 A 
HETATM   20  C14 UNL     1      26.788   3.712  49.269  1.00  0.00     0.067 A 
ENDBRANCH  12  13
ENDBRANCH   8  12
ENDBRANCH   6   7
BRANCH   1  21
HETATM   21  N1  UNL     1      25.641  -0.611  53.119  1.00  0.00    -0.366 N 
HETATM   22  H5  UNL     1      25.690  -0.885  52.087  1.00  0.00     0.161 HD
BRANCH  21  23
HETATM   23  C2  UNL     1      24.501  -0.975  53.867  1.00  0.00     0.112 C 
HETATM   24  C1  UNL     1      24.721  -1.035  55.381  1.00  0.00     0.037 C 
BRANCH  23  25
HETATM   25  C15 UNL     1      23.228  -0.342  53.596  1.00  0.00    -0.036 A 
HETATM   26  C16 UNL     1      22.879   0.501  52.569  1.00  0.00     0.009 A 
HETATM   27  C17 UNL     1      21.663   1.091  52.336  1.00  0.00     0.001 A 
HETATM   28  C18 UNL     1      20.638   0.831  53.222  1.00  0.00     0.000 A 
HETATM   29  C19 UNL     1      20.863  -0.001  54.297  1.00  0.00     0.001 A 
HETATM   30  C20 UNL     1      22.119  -0.543  54.439  1.00  0.00     0.009 A 
ENDBRANCH  23  25
ENDBRANCH  21  23
ENDBRANCH   1  21
TORSDOF 7
ENDMDL
MODEL 3
REMARK VINA RESULT:      -8.3      2.547      5.490
REMARK  7 active torsions:
REMARK  status: ('A' for Active; 'I' for Inactive)
REMARK    1  A    between atoms: C2_2  and  N1_3 
REMARK    2  A    between atoms: C2_2  and  C15_21 
REMARK    3  A    between atoms: N1_3  and  C3_4 
REMARK    4  A    between atoms: C6_9  and  C7_10 
REMARK    5  A    between atoms: C8_11  and  N4_12 
REMARK    6  A    between atoms: C8_11  and  C9_13 
REMARK    7  A    between atoms: C9_13  and  C10_14 
ROOT
HETATM    1  C3  UNL     1      23.946   0.176  52.949  1.00  0.00     0.137 A 
HETATM    2  N2  UNL     1      23.880  -0.595  54.021  1.00  0.00    -0.224 NA
HETATM    3  C4  UNL     1      22.719  -0.724  54.681  1.00  0.00     0.234 A 
HETATM    4  N3  UNL     1      21.595  -0.087  54.289  1.00  0.00    -0.253 NA
HETATM    5  C5  UNL     1      21.597   0.723  53.193  1.00  0.00     0.133 A 
HETATM    6  C6  UNL     1      22.792   0.850  52.521  1.00  0.00     0.029 A 
ENDROOT
BRANCH   6   7
HETATM    7  C7  UNL     1      22.827   1.697  51.337  1.00  0.00     0.041 C 
HETATM    8  C8  UNL     1      23.055   3.019  51.308  1.00  0.00     0.007 C 
BRANCH   8   9
HETATM    9  N4  UNL     1      23.288   3.664  52.550  1.00  0.00    -0.402 N 
HETATM   10  H9  UNL     1      23.303   3.295  53.524  1.00  0.00     0.156 HD
HETATM   11  H10 UNL     1      23.472   4.689  52.416  1.00  0.00     0.156 HD
ENDBRANCH   8   9
BRANCH   8  12
HETATM   12  C9  UNL     1      23.049   3.717  50.006  1.00  0.00     0.092 C 
BRANCH  12  13
HETATM   13  C10 UNL     1      24.422   4.094  49.632  1.00  0.00    -0.055 A 
HETATM   14  C11 UNL     1      24.620   5.307  49.120  1.00  0.00     0.093 A 
HETATM   15  N5  UNL     1      25.873   5.826  48.710  1.00  0.00    -0.343 N 
HETATM   16  C12 UNL     1      27.042   5.036  48.832  1.00  0.00     0.184 A 
HETATM   17  H14 UNL     1      25.937   6.782  48.322  1.00  0.00     0.167 HD
HETATM   18  F1  UNL     1      28.271   5.441  48.470  1.00  0.00    -0.187 F 
HETATM   19  C13 UNL     1      26.839   3.835  49.339  1.00  0.00     0.039 A 
HETATM   20  C14 UNL     1      25.585   3.189  49.800  1.00  0.00     0.067 A 
ENDBRANCH  12  13
ENDBRANCH   8  12
ENDBRANCH   6   7
BRANCH   1  21
HETATM   21  N1  UNL     1      25.204   0.318  52.279  1.00  0.00    -0.366 N 
HETATM   22  H5  UNL     1      25.249  -0.189  51.340  1.00  0.00     0.161 HD
BRANCH  21  23
HETATM   23  C2  UNL     1      26.338   1.032  52.724  1.00  0.00     0.112 C 
HETATM   24  C1  UNL     1      26.058   2.057  53.826  1.00  0.00     0.037 C 
BRANCH  23  25
HETATM   25  C15 UNL     1      27.562   0.322  53.034  1.00  0.00    -0.036 A 
HETATM   26  C16 UNL     1      28.771   0.822  53.453  1.00  0.00     0.009 A 
HETATM   27  C17 UNL     1      29.918   0.127  53.738  1.00  0.00     0.001 A 
HETATM   28  C18 UNL     1      29.895  -1.245  53.598  1.00  0.00     0.000 A 
HETATM   29  C19 UNL     1      28.737  -1.867  53.183  1.00  0.00     0.001 A 
HETATM   30  C20 UNL     1      27.641  -1.078  52.923  1.00  0.00     0.009 A 
ENDBRANCH  23  25
ENDBRANCH  21  23
ENDBRANCH   1  21
TORSDOF 7
ENDMDL
MODEL 4
REMARK VINA RESULT:      -8.0      1.557      2.264
REMARK  7 active torsions:
REMARK  status: ('A' for Active; 'I' for Inactive)
REMARK    1  A    between atoms: C2_2  and  N1_3 
REMARK    2  A    between atoms: C2_2  and  C15_21 
REMARK    3  A    between atoms: N1_3  and  C3_4 
REMARK    4  A    between atoms: C6_9  and  C7_10 
REMARK    5  A    between atoms: C8_11  and  N4_12 
REMARK    6  A    between atoms: C8_11  and  C9_13 
REMARK    7  A    between atoms: C9_13  and  C10_14 
ROOT
HETATM    1  C3  UNL     1      23.915   3.474  49.716  1.00  0.00     0.137 A 
HETATM    2  N2  UNL     1      24.437   4.606  49.274  1.00  0.00    -0.224 NA
HETATM    3  C4  UNL     1      23.692   5.441  48.535  1.00  0.00     0.234 A 
HETATM    4  N3  UNL     1      22.409   5.169  48.217  1.00  0.00    -0.253 NA
HETATM    5  C5  UNL     1      21.813   4.019  48.641  1.00  0.00     0.133 A 
HETATM    6  C6  UNL     1      22.583   3.167  49.399  1.00  0.00     0.029 A 
ENDROOT
BRANCH   6   7
HETATM    7  C7  UNL     1      21.974   1.935  49.881  1.00  0.00     0.041 C 
HETATM    8  C8  UNL     1      21.158   1.809  50.939  1.00  0.00     0.007 C 
BRANCH   8   9
HETATM    9  N4  UNL     1      20.851   2.988  51.665  1.00  0.00    -0.402 N 
HETATM   10  H9  UNL     1      20.713   3.152  52.685  1.00  0.00     0.156 HD
HETATM   11  H10 UNL     1      20.756   3.814  51.024  1.00  0.00     0.156 HD
ENDBRANCH   8   9
BRANCH   8  12
HETATM   12  C9  UNL     1      20.635   0.471  51.283  1.00  0.00     0.092 C 
BRANCH  12  13
HETATM   13  C10 UNL     1      21.314  -0.040  52.484  1.00  0.00    -0.055 A 
HETATM   14  C11 UNL     1      20.560  -0.497  53.482  1.00  0.00     0.093 A 
HETATM   15  N5  UNL     1      21.052  -1.021  54.703  1.00  0.00    -0.343 N 
HETATM   16  C12 UNL     1      22.448  -1.090  54.934  1.00  0.00     0.184 A 
HETATM   17  H14 UNL     1      20.394  -1.355  55.428  1.00  0.00     0.167 HD
HETATM   18  F1  UNL     1      23.006  -1.571  56.058  1.00  0.00    -0.187 F 
HETATM   19  C13 UNL     1      23.189  -0.636  53.942  1.00  0.00     0.039 A 
HETATM   20  C14 UNL     1      22.790  -0.070  52.630  1.00  0.00     0.067 A 
ENDBRANCH  12  13
ENDBRANCH   8  12
ENDBRANCH   6   7
BRANCH   1  21
HETATM   21  N1  UNL     1      24.741   2.588  50.480  1.00  0.00    -0.366 N 
HETATM   22  H5  UNL     1      25.023   1.703  49.952  1.00  0.00     0.161 HD
BRANCH  21  23
HETATM   23  C2  UNL     1      25.196   2.765  51.804  1.00  0.00     0.112 C 
HETATM   24  C1  UNL     1      24.163   3.364  52.762  1.00  0.00     0.037 C 
BRANCH  23  25
HETATM   25  C15 UNL     1      25.902   1.694  52.475  1.00  0.00    -0.036 A 
HETATM   26  C16 UNL     1      26.483   0.570  51.940  1.00  0.00     0.009 A 
HETATM   27  C17 UNL     1      27.144  -0.434  52.600  1.00  0.00     0.001 A 
HETATM   28  C18 UNL     1      27.261  -0.340  53.971  1.00  0.00     0.000 A 
HETATM   29  C19 UNL     1      26.718   0.744  54.626  1.00  0.00     0.001 A 
HETATM   30  C20 UNL     1      26.075   1.696  53.871  1.00  0.00     0.009 A 
ENDBRANCH  23  25
ENDBRANCH  21  23
ENDBRANCH   1  21
TORSDOF 7
ENDMDL
MODEL 5
REMARK VINA RESULT:      -8.0      2.548      5.775
REMARK  7 active torsions:
REMARK  status: ('A' for Active; 'I' for Inactive)
REMARK    1  A    between atoms: C2_2  and  N1_3 
REMARK    2  A    between atoms: C2_2  and  C15_21 
REMARK    3  A    between atoms: N1_3  and  C3_4 
REMARK    4  A    between atoms: C6_9  and  C7_10 
REMARK    5  A    between atoms: C8_11  and  N4_12 
REMARK    6  A    between atoms: C8_11  and  C9_13 
REMARK    7  A    between atoms: C9_13  and  C10_14 
ROOT
HETATM    1  C3  UNL     1      22.940   3.394  50.391  1.00  0.00     0.137 A 
HETATM    2  N2  UNL     1      22.849   4.439  49.586  1.00  0.00    -0.224 NA
HETATM    3  C4  UNL     1      23.951   4.926  48.997  1.00  0.00     0.234 A 
HETATM    4  N3  UNL     1      25.171   4.385  49.196  1.00  0.00    -0.253 NA
HETATM    5  C5  UNL     1      25.332   3.307  50.015  1.00  0.00     0.133 A 
HETATM    6  C6  UNL     1      24.197   2.813  50.616  1.00  0.00     0.029 A 
ENDROOT
BRANCH   6   7
HETATM    7  C7  UNL     1      24.331   1.653  51.487  1.00  0.00     0.041 C 
HETATM    8  C8  UNL     1      24.620   1.669  52.798  1.00  0.00     0.007 C 
BRANCH   8   9
HETATM    9  N4  UNL     1      24.816   2.937  53.403  1.00  0.00    -0.402 N 
HETATM   10  H9  UNL     1      25.004   3.205  54.392  1.00  0.00     0.156 HD
HETATM   11  H10 UNL     1      24.752   3.709  52.695  1.00  0.00     0.156 HD
ENDBRANCH   8   9
BRANCH   8  12
HETATM   12  C9  UNL     1      24.719   0.386  53.523  1.00  0.00     0.092 C 
BRANCH  12  13
HETATM   13  C10 UNL     1      26.127  -0.030  53.617  1.00  0.00    -0.055 A 
HETATM   14  C11 UNL     1      26.802   0.291  54.720  1.00  0.00     0.093 A 
HETATM   15  N5  UNL     1      28.158  -0.032  54.971  1.00  0.00    -0.343 N 
HETATM   16  C12 UNL     1      28.905  -0.754  54.008  1.00  0.00     0.184 A 
HETATM   17  H14 UNL     1      28.606   0.257  55.856  1.00  0.00     0.167 HD
HETATM   18  F1  UNL     1      30.193  -1.105  54.156  1.00  0.00    -0.187 F 
HETATM   19  C13 UNL     1      28.231  -1.069  52.918  1.00  0.00     0.039 A 
HETATM   20  C14 UNL     1      26.822  -0.787  52.549  1.00  0.00     0.067 A 
ENDBRANCH  12  13
ENDBRANCH   8  12
ENDBRANCH   6   7
BRANCH   1  21
HETATM   21  N1  UNL     1      21.752   2.911  51.029  1.00  0.00    -0.366 N 
HETATM   22  H5  UNL     1      21.554   3.371  51.973  1.00  0.00     0.161 HD
BRANCH  21  23
HETATM   23  C2  UNL     1      20.858   1.929  50.550  1.00  0.00     0.112 C 
HETATM   24  C1  UNL     1      21.348   1.164  49.317  1.00  0.00     0.037 C 
BRANCH  23  25
HETATM   25  C15 UNL     1      20.244   0.999  51.474  1.00  0.00    -0.036 A 
HETATM   26  C16 UNL     1      20.708   0.547  52.685  1.00  0.00     0.009 A 
HETATM   27  C17 UNL     1      20.107  -0.339  53.542  1.00  0.00     0.001 A 
HETATM   28  C18 UNL     1      18.884  -0.862  53.178  1.00  0.00     0.000 A 
HETATM   29  C19 UNL     1      18.312  -0.485  51.982  1.00  0.00     0.001 A 
HETATM   30  C20 UNL     1      18.998   0.410  51.195  1.00  0.00     0.009 A 
ENDBRANCH  23  25
ENDBRANCH  21  23
ENDBRANCH   1  21
TORSDOF 7
ENDMDL
MODEL 6
REMARK VINA RESULT:      -7.9      3.168      6.956
REMARK  7 active torsions:
REMARK  status: ('A' for Active; 'I' for Inactive)
REMARK    1  A    between atoms: C2_2  and  N1_3 
REMARK    2  A    between atoms: C2_2  and  C15_21 
REMARK    3  A    between atoms: N1_3  and  C3_4 
REMARK    4  A    between atoms: C6_9  and  C7_10 
REMARK    5  A    between atoms: C8_11  and  N4_12 
REMARK    6  A    between atoms: C8_11  and  C9_13 
REMARK    7  A    between atoms: C9_13  and  C10_14 
ROOT
HETATM    1  C3  UNL     1      24.889  -0.259  53.690  1.00  0.00     0.137 A 
HETATM    2  N2  UNL     1      25.323  -0.707  54.856  1.00  0.00    -0.224 NA
HETATM    3  C4  UNL     1      26.364  -0.113  55.455  1.00  0.00     0.234 A 
HETATM    4  N3  UNL     1      27.001   0.944  54.907  1.00  0.00    -0.253 NA
HETATM    5  C5  UNL     1      26.603   1.453  53.707  1.00  0.00     0.133 A 
HETATM    6  C6  UNL     1      25.534   0.838  53.098  1.00  0.00     0.029 A 
ENDROOT
BRANCH   6   7
HETATM    7  C7  UNL     1      25.073   1.365  51.821  1.00  0.00     0.041 C 
HETATM    8  C8  UNL     1      24.545   2.579  51.603  1.00  0.00     0.007 C 
BRANCH   8   9
HETATM    9  N4  UNL     1      24.420   3.442  52.722  1.00  0.00    -0.402 N 
HETATM   10  H9  UNL     1      23.886   4.328  52.851  1.00  0.00     0.156 HD
HETATM   11  H10 UNL     1      24.979   3.089  53.537  1.00  0.00     0.156 HD
ENDBRANCH   8   9
BRANCH   8  12
HETATM   12  C9  UNL     1      24.128   2.941  50.233  1.00  0.00     0.092 C 
BRANCH  12  13
HETATM   13  C10 UNL     1      25.046   3.948  49.678  1.00  0.00    -0.055 A 
HETATM   14  C11 UNL     1      26.341   3.646  49.614  1.00  0.00     0.093 A 
HETATM   15  N5  UNL     1      27.355   4.497  49.109  1.00  0.00    -0.343 N 
HETATM   16  C12 UNL     1      27.022   5.784  48.620  1.00  0.00     0.184 A 
HETATM   17  H14 UNL     1      28.340   4.182  49.097  1.00  0.00     0.167 HD
HETATM   18  F1  UNL     1      27.912   6.659  48.124  1.00  0.00    -0.187 F 
HETATM   19  C13 UNL     1      25.737   6.077  48.686  1.00  0.00     0.039 A 
HETATM   20  C14 UNL     1      24.596   5.274  49.189  1.00  0.00     0.067 A 
ENDBRANCH  12  13
ENDBRANCH   8  12
ENDBRANCH   6   7
BRANCH   1  21
HETATM   21  N1  UNL     1      23.792  -0.930  53.060  1.00  0.00    -0.366 N 
HETATM   22  H5  UNL     1      24.092  -1.671  52.351  1.00  0.00     0.161 HD
BRANCH  21  23
HETATM   23  C2  UNL     1      22.414  -0.714  53.276  1.00  0.00     0.112 C 
HETATM   24  C1  UNL     1      21.990  -0.699  54.747  1.00  0.00     0.037 C 
BRANCH  23  25
HETATM   25  C15 UNL     1      21.732   0.354  52.574  1.00  0.00    -0.036 A 
HETATM   26  C16 UNL     1      21.233   1.535  53.067  1.00  0.00     0.009 A 
HETATM   27  C17 UNL     1      20.587   2.531  52.380  1.00  0.00     0.001 A 
HETATM   28  C18 UNL     1      20.396   2.362  51.025  1.00  0.00     0.000 A 
HETATM   29  C19 UNL     1      20.852   1.215  50.411  1.00  0.00     0.001 A 
HETATM   30  C20 UNL     1      21.487   0.278  51.191  1.00  0.00     0.009 A 
ENDBRANCH  23  25
ENDBRANCH  21  23
ENDBRANCH   1  21
TORSDOF 7
ENDMDL
MODEL 7
REMARK VINA RESULT:      -7.9      2.555      5.424
REMARK  7 active torsions:
REMARK  status: ('A' for Active; 'I' for Inactive)
REMARK    1  A    between atoms: C2_2  and  N1_3 
REMARK    2  A    between atoms: C2_2  and  C15_21 
REMARK    3  A    between atoms: N1_3  and  C3_4 
REMARK    4  A    between atoms: C6_9  and  C7_10 
REMARK    5  A    between atoms: C8_11  and  N4_12 
REMARK    6  A    between atoms: C8_11  and  C9_13 
REMARK    7  A    between atoms: C9_13  and  C10_14 
ROOT
HETATM    1  C3  UNL     1      23.594   0.005  53.960  1.00  0.00     0.137 A 
HETATM    2  N2  UNL     1      23.756  -1.099  54.669  1.00  0.00    -0.224 NA
HETATM    3  C4  UNL     1      22.684  -1.772  55.112  1.00  0.00     0.234 A 
HETATM    4  N3  UNL     1      21.423  -1.361  54.860  1.00  0.00    -0.253 NA
HETATM    5  C5  UNL     1      21.189  -0.231  54.135  1.00  0.00     0.133 A 
HETATM    6  C6  UNL     1      22.293   0.454  53.684  1.00  0.00     0.029 A 
ENDROOT
BRANCH   6   7
HETATM    7  C7  UNL     1      22.080   1.659  52.895  1.00  0.00     0.041 C 
HETATM    8  C8  UNL     1      21.879   1.719  51.569  1.00  0.00     0.007 C 
BRANCH   8   9
HETATM    9  N4  UNL     1      21.871   0.491  50.858  1.00  0.00    -0.402 N 
HETATM   10  H9  UNL     1      22.511   0.117  50.126  1.00  0.00     0.156 HD
HETATM   11  H10 UNL     1      21.064  -0.112  51.152  1.00  0.00     0.156 HD
ENDBRANCH   8   9
BRANCH   8  12
HETATM   12  C9  UNL     1      21.683   3.039  50.935  1.00  0.00     0.092 C 
BRANCH  12  13
HETATM   13  C10 UNL     1      22.979   3.589  50.509  1.00  0.00    -0.055 A 
HETATM   14  C11 UNL     1      23.560   4.498  51.290  1.00  0.00     0.093 A 
HETATM   15  N5  UNL     1      24.803   5.125  51.029  1.00  0.00    -0.343 N 
HETATM   16  C12 UNL     1      25.531   4.796  49.859  1.00  0.00     0.184 A 
HETATM   17  H14 UNL     1      25.182   5.823  51.690  1.00  0.00     0.167 HD
HETATM   18  F1  UNL     1      26.715   5.337  49.527  1.00  0.00    -0.187 F 
HETATM   19  C13 UNL     1      24.951   3.895  49.090  1.00  0.00     0.039 A 
HETATM   20  C14 UNL     1      23.664   3.177  49.260  1.00  0.00     0.067 A 
ENDBRANCH  12  13
ENDBRANCH   8  12
ENDBRANCH   6   7
BRANCH   1  21
HETATM   21  N1  UNL     1      24.756   0.719  53.523  1.00  0.00    -0.366 N 
HETATM   22  H5  UNL     1      24.953   1.605  54.087  1.00  0.00     0.161 HD
BRANCH  21  23
HETATM   23  C2  UNL     1      25.626   0.378  52.465  1.00  0.00     0.112 C 
HETATM   24  C1  UNL     1      26.078   1.559  51.601  1.00  0.00     0.037 C 
BRANCH  23  25
HETATM   25  C15 UNL     1      26.758  -0.490  52.712  1.00  0.00    -0.036 A 
HETATM   26  C16 UNL     1      26.875  -1.843  52.501  1.00  0.00     0.009 A 
HETATM   27  C17 UNL     1      27.960  -2.645  52.747  1.00  0.00     0.001 A 
HETATM   28  C18 UNL     1      29.093  -2.057  53.271  1.00  0.00     0.000 A 
HETATM   29  C19 UNL     1      29.100  -0.703  53.528  1.00  0.00     0.001 A 
HETATM   30  C20 UNL     1      27.959   0.011  53.245  1.00  0.00     0.009 A 
ENDBRANCH  23  25
ENDBRANCH  21  23
ENDBRANCH   1  21
TORSDOF 7
ENDMDL
MODEL 8
REMARK VINA RESULT:      -7.8      2.279      5.179
REMARK  7 active torsions:
REMARK  status: ('A' for Active; 'I' for Inactive)
REMARK    1  A    between atoms: C2_2  and  N1_3 
REMARK    2  A    between atoms: C2_2  and  C15_21 
REMARK    3  A    between atoms: N1_3  and  C3_4 
REMARK    4  A    between atoms: C6_9  and  C7_10 
REMARK    5  A    between atoms: C8_11  and  N4_12 
REMARK    6  A    between atoms: C8_11  and  C9_13 
REMARK    7  A    between atoms: C9_13  and  C10_14 
ROOT
HETATM    1  C3  UNL     1      25.445   1.976  52.169  1.00  0.00     0.137 A 
HETATM    2  N2  UNL     1      26.678   1.557  51.943  1.00  0.00    -0.224 NA
HETATM    3  C4  UNL     1      27.025   0.301  52.258  1.00  0.00     0.234 A 
HETATM    4  N3  UNL     1      26.152  -0.570  52.806  1.00  0.00    -0.253 NA
HETATM    5  C5  UNL     1      24.866  -0.201  53.063  1.00  0.00     0.133 A 
HETATM    6  C6  UNL     1      24.517   1.090  52.738  1.00  0.00     0.029 A 
ENDROOT
BRANCH   6   7
HETATM    7  C7  UNL     1      23.147   1.516  52.988  1.00  0.00     0.041 C 
HETATM    8  C8  UNL     1      22.122   1.456  52.122  1.00  0.00     0.007 C 
BRANCH   8   9
HETATM    9  N4  UNL     1      22.392   0.925  50.835  1.00  0.00    -0.402 N 
HETATM   10  H9  UNL     1      22.164   1.282  49.883  1.00  0.00     0.156 HD
HETATM   11  H10 UNL     1      22.912   0.016  50.901  1.00  0.00     0.156 HD
ENDBRANCH   8   9
BRANCH   8  12
HETATM   12  C9  UNL     1      20.795   1.940  52.552  1.00  0.00     0.092 C 
BRANCH  12  13
HETATM   13  C10 UNL     1      19.863   0.807  52.673  1.00  0.00    -0.055 A 
HETATM   14  C11 UNL     1      20.052  -0.055  53.671  1.00  0.00     0.093 A 
HETATM   15  N5  UNL     1      19.249  -1.194  53.930  1.00  0.00    -0.343 N 
HETATM   16  C12 UNL     1      18.144  -1.487  53.094  1.00  0.00     0.184 A 
HETATM   17  H14 UNL     1      19.469  -1.813  54.728  1.00  0.00     0.167 HD
HETATM   18  F1  UNL     1      17.328  -2.541  53.260  1.00  0.00    -0.187 F 
HETATM   19  C13 UNL     1      17.962  -0.628  52.109  1.00  0.00     0.039 A 
HETATM   20  C14 UNL     1      18.729   0.587  51.743  1.00  0.00     0.067 A 
ENDBRANCH  12  13
ENDBRANCH   8  12
ENDBRANCH   6   7
BRANCH   1  21
HETATM   21  N1  UNL     1      25.109   3.331  51.849  1.00  0.00    -0.366 N 
HETATM   22  H5  UNL     1      25.133   3.989  52.691  1.00  0.00     0.161 HD
BRANCH  21  23
HETATM   23  C2  UNL     1      24.764   3.855  50.585  1.00  0.00     0.112 C 
HETATM   24  C1  UNL     1      23.436   4.617  50.547  1.00  0.00     0.037 C 
BRANCH  23  25
HETATM   25  C15 UNL     1      25.750   4.579  49.810  1.00  0.00    -0.036 A 
HETATM   26  C16 UNL     1      26.945   4.137  49.297  1.00  0.00     0.009 A 
HETATM   27  C17 UNL     1      27.864   4.845  48.567  1.00  0.00     0.001 A 
HETATM   28  C18 UNL     1      27.591   6.170  48.294  1.00  0.00     0.000 A 
HETATM   29  C19 UNL     1      26.421   6.732  48.756  1.00  0.00     0.001 A 
HETATM   30  C20 UNL     1      25.566   5.934  49.479  1.00  0.00     0.009 A 
ENDBRANCH  23  25
ENDBRANCH  21  23
ENDBRANCH   1  21
TORSDOF 7
ENDMDL
MODEL 9
REMARK VINA RESULT:      -7.8      3.306      6.879
REMARK  7 active torsions:
REMARK  status: ('A' for Active; 'I' for Inactive)
REMARK    1  A    between atoms: C2_2  and  N1_3 
REMARK    2  A    between atoms: C2_2  and  C15_21 
REMARK    3  A    between atoms: N1_3  and  C3_4 
REMARK    4  A    between atoms: C6_9  and  C7_10 
REMARK    5  A    between atoms: C8_11  and  N4_12 
REMARK    6  A    between atoms: C8_11  and  C9_13 
REMARK    7  A    between atoms: C9_13  and  C10_14 
ROOT
HETATM    1  C3  UNL     1      24.873  -0.039  53.352  1.00  0.00     0.137 A 
HETATM    2  N2  UNL     1      25.666  -0.924  53.930  1.00  0.00    -0.224 NA
HETATM    3  C4  UNL     1      26.938  -1.047  53.524  1.00  0.00     0.234 A 
HETATM    4  N3  UNL     1      27.452  -0.292  52.531  1.00  0.00    -0.253 NA
HETATM    5  C5  UNL     1      26.687   0.639  51.895  1.00  0.00     0.133 A 
HETATM    6  C6  UNL     1      25.383   0.760  52.317  1.00  0.00     0.029 A 
ENDROOT
BRANCH   6   7
HETATM    7  C7  UNL     1      24.540   1.754  51.667  1.00  0.00     0.041 C 
HETATM    8  C8  UNL     1      24.254   2.982  52.129  1.00  0.00     0.007 C 
BRANCH   8   9
HETATM    9  N4  UNL     1      24.827   3.357  53.371  1.00  0.00    -0.402 N 
HETATM   10  H9  UNL     1      25.624   3.989  53.598  1.00  0.00     0.156 HD
HETATM   11  H10 UNL     1      24.331   2.895  54.172  1.00  0.00     0.156 HD
ENDBRANCH   8   9
BRANCH   8  12
HETATM   12  C9  UNL     1      23.372   3.858  51.331  1.00  0.00     0.092 C 
BRANCH  12  13
HETATM   13  C10 UNL     1      24.081   5.097  50.976  1.00  0.00    -0.055 A 
HETATM   14  C11 UNL     1      23.709   6.226  51.577  1.00  0.00     0.093 A 
HETATM   15  N5  UNL     1      24.286   7.500  51.352  1.00  0.00    -0.343 N 
HETATM   16  C12 UNL     1      25.347   7.644  50.425  1.00  0.00     0.184 A 
HETATM   17  H14 UNL     1      23.934   8.327  51.862  1.00  0.00     0.167 HD
HETATM   18  F1  UNL     1      25.956   8.809  50.146  1.00  0.00    -0.187 F 
HETATM   19  C13 UNL     1      25.712   6.522  49.834  1.00  0.00     0.039 A 
HETATM   20  C14 UNL     1      25.186   5.143  49.989  1.00  0.00     0.067 A 
ENDBRANCH  12  13
ENDBRANCH   8  12
ENDBRANCH   6   7
BRANCH   1  21
HETATM   21  N1  UNL     1      23.511   0.053  53.786  1.00  0.00    -0.366 N 
HETATM   22  H5  UNL     1      23.311   0.910  54.392  1.00  0.00     0.161 HD
BRANCH  21  23
HETATM   23  C2  UNL     1      22.457  -0.841  53.502  1.00  0.00     0.112 C 
HETATM   24  C1  UNL     1      21.974  -1.664  54.701  1.00  0.00     0.037 C 
BRANCH  23  25
HETATM   25  C15 UNL     1      21.310  -0.388  52.744  1.00  0.00    -0.036 A 
HETATM   26  C16 UNL     1      19.976  -0.456  53.065  1.00  0.00     0.009 A 
HETATM   27  C17 UNL     1      18.907  -0.020  52.326  1.00  0.00     0.001 A 
HETATM   28  C18 UNL     1      19.161   0.563  51.102  1.00  0.00     0.000 A 
HETATM   29  C19 UNL     1      20.462   0.689  50.666  1.00  0.00     0.001 A 
HETATM   30  C20 UNL     1      21.463   0.220  51.485  1.00  0.00     0.009 A 
ENDBRANCH  23  25
ENDBRANCH  21  23
ENDBRANCH   1  21
TORSDOF 7
ENDMDL
