MODEL 1
REMARK VINA RESULT:      -7.5      0.000      0.000
REMARK  6 active torsions:
REMARK  status: ('A' for Active; 'I' for Inactive)
REMARK    1  A    between atoms: N3_12  and  C10_13 
REMARK    2  A    between atoms: C14_17  and  N4_18 
REMARK    3  A    between atoms: N4_18  and  C15_19 
REMARK    4  A    between atoms: C16_20  and  C17_21 
REMARK    5  A    between atoms: C18_22  and  C19_23 
REMARK    6  A    between atoms: C19_23  and  O1_24 
ROOT
HETATM    1  C10 UNL     1      22.214   1.305  51.481  1.00  0.00     0.039 A 
HETATM    2  C11 UNL     1      21.097   1.156  52.300  1.00  0.00     0.030 A 
HETATM    3  C12 UNL     1      21.227   0.604  53.560  1.00  0.00     0.004 A 
HETATM    4  C13 UNL     1      22.446   0.183  54.059  1.00  0.00     0.029 A 
HETATM    5  C14 UNL     1      23.527   0.348  53.217  1.00  0.00     0.034 A 
HETATM    6  C20 UNL     1      23.447   0.893  51.952  1.00  0.00     0.059 A 
ENDROOT
BRANCH   1   7
HETATM    7  N3  UNL     1      22.134   1.866  50.178  1.00  0.00    -0.319 N 
HETATM    8  C6  UNL     1      22.387   3.299  50.133  1.00  0.00     0.117 A 
HETATM    9  C2  UNL     1      23.776   3.631  50.574  1.00  0.00     0.044 C 
HETATM   10  C5  UNL     1      21.423   4.040  50.978  1.00  0.00     0.028 C 
HETATM   11  C7  UNL     1      22.258   3.695  48.704  1.00  0.00     0.034 A 
HETATM   12  C1  UNL     1      24.831   3.242  49.583  1.00  0.00     0.069 C 
HETATM   13  N1  UNL     1      23.973   4.204  51.726  1.00  0.00    -0.266 NA
HETATM   14  C3  UNL     1      22.869   4.530  52.595  1.00  0.00     0.128 C 
HETATM   15  C4  UNL     1      21.845   4.914  51.856  1.00  0.00    -0.008 C 
HETATM   16  C8  UNL     1      21.969   2.931  47.638  1.00  0.00     0.117 A 
HETATM   17  N2  UNL     1      21.742   1.538  47.820  1.00  0.00    -0.256 NA
HETATM   18  C9  UNL     1      21.829   1.083  49.027  1.00  0.00     0.211 A 
ENDBRANCH   1   7
BRANCH   5  19
HETATM   19  N4  UNL     1      24.805  -0.071  53.687  1.00  0.00    -0.366 N 
HETATM   20  H12 UNL     1      25.170   0.205  54.626  1.00  0.00     0.165 HD
BRANCH  19  21
HETATM   21  C15 UNL     1      25.664  -0.891  52.909  1.00  0.00     0.088 C 
HETATM   22  C16 UNL     1      26.777  -0.475  52.354  1.00  0.00     0.017 C 
BRANCH  22  23
HETATM   23  C17 UNL     1      27.215   0.896  52.504  1.00  0.00    -0.001 C 
HETATM   24  C18 UNL     1      28.174   1.177  53.369  1.00  0.00    -0.001 C 
BRANCH  24  25
HETATM   25  C19 UNL     1      28.732   2.531  53.639  1.00  0.00     0.191 C 
BRANCH  25  26
HETATM   26  O1  UNL     1      29.646   2.369  54.683  1.00  0.00    -0.397 OA
HETATM   27  H19 UNL     1      30.449   2.942  54.536  1.00  0.00     0.209 HD
ENDBRANCH  25  26
ENDBRANCH  24  25
ENDBRANCH  22  23
ENDBRANCH  19  21
ENDBRANCH   5  19
TORSDOF 6
ENDMDL
MODEL 2
REMARK VINA RESULT:      -7.4      2.271      4.261
REMARK  6 active torsions:
REMARK  status: ('A' for Active; 'I' for Inactive)
REMARK    1  A    between atoms: N3_12  and  C10_13 
REMARK    2  A    between atoms: C14_17  and  N4_18 
REMARK    3  A    between atoms: N4_18  and  C15_19 
REMARK    4  A    between atoms: C16_20  and  C17_21 
REMARK    5  A    between atoms: C18_22  and  C19_23 
REMARK    6  A    between atoms: C19_23  and  O1_24 
ROOT
HETATM    1  C10 UNL     1      24.474   4.323  50.440  1.00  0.00     0.039 A 
HETATM    2  C11 UNL     1      25.485   4.201  49.489  1.00  0.00     0.030 A 
HETATM    3  C12 UNL     1      26.491   3.270  49.659  1.00  0.00     0.004 A 
HETATM    4  C13 UNL     1      26.542   2.431  50.757  1.00  0.00     0.029 A 
HETATM    5  C14 UNL     1      25.523   2.584  51.675  1.00  0.00     0.034 A 
HETATM    6  C20 UNL     1      24.497   3.499  51.550  1.00  0.00     0.059 A 
ENDROOT
BRANCH   1   7
HETATM    7  N3  UNL     1      23.417   5.264  50.312  1.00  0.00    -0.319 N 
HETATM    8  C6  UNL     1      22.259   4.761  49.588  1.00  0.00     0.117 A 
HETATM    9  C2  UNL     1      21.620   3.609  50.296  1.00  0.00     0.044 C 
HETATM   10  C5  UNL     1      22.626   4.340  48.217  1.00  0.00     0.028 C 
HETATM   11  C7  UNL     1      21.274   5.876  49.559  1.00  0.00     0.034 A 
HETATM   12  C1  UNL     1      20.884   4.001  51.541  1.00  0.00     0.069 C 
HETATM   13  N1  UNL     1      21.737   2.405  49.815  1.00  0.00    -0.266 NA
HETATM   14  C3  UNL     1      22.476   2.155  48.602  1.00  0.00     0.128 C 
HETATM   15  C4  UNL     1      22.279   3.160  47.770  1.00  0.00    -0.008 C 
HETATM   16  C8  UNL     1      21.381   7.112  50.076  1.00  0.00     0.117 A 
HETATM   17  N2  UNL     1      22.573   7.479  50.763  1.00  0.00    -0.256 NA
HETATM   18  C9  UNL     1      23.499   6.582  50.849  1.00  0.00     0.211 A 
ENDBRANCH   1   7
BRANCH   5  19
HETATM   19  N4  UNL     1      25.533   1.742  52.824  1.00  0.00    -0.366 N 
HETATM   20  H12 UNL     1      26.184   1.901  53.626  1.00  0.00     0.165 HD
BRANCH  19  21
HETATM   21  C15 UNL     1      24.659   0.630  52.954  1.00  0.00     0.088 C 
HETATM   22  C16 UNL     1      25.046  -0.578  53.287  1.00  0.00     0.017 C 
BRANCH  22  23
HETATM   23  C17 UNL     1      26.440  -0.864  53.553  1.00  0.00    -0.001 C 
HETATM   24  C18 UNL     1      27.085  -1.715  52.776  1.00  0.00    -0.001 C 
BRANCH  24  25
HETATM   25  C19 UNL     1      28.513  -2.114  52.917  1.00  0.00     0.191 C 
BRANCH  25  26
HETATM   26  O1  UNL     1      28.501  -3.445  53.337  1.00  0.00    -0.397 OA
HETATM   27  H19 UNL     1      28.188  -3.511  54.282  1.00  0.00     0.209 HD
ENDBRANCH  25  26
ENDBRANCH  24  25
ENDBRANCH  22  23
ENDBRANCH  19  21
ENDBRANCH   5  19
TORSDOF 6
ENDMDL
MODEL 3
REMARK VINA RESULT:      -7.3      2.562      4.077
REMARK  6 active torsions:
REMARK  status: ('A' for Active; 'I' for Inactive)
REMARK    1  A    between atoms: N3_12  and  C10_13 
REMARK    2  A    between atoms: C14_17  and  N4_18 
REMARK    3  A    between atoms: N4_18  and  C15_19 
REMARK    4  A    between atoms: C16_20  and  C17_21 
REMARK    5  A    between atoms: C18_22  and  C19_23 
REMARK    6  A    between atoms: C19_23  and  O1_24 
ROOT
HETATM    1  C10 UNL     1      21.821   2.906  51.078  1.00  0.00     0.039 A 
HETATM    2  C11 UNL     1      21.887   2.077  49.960  1.00  0.00     0.030 A 
HETATM    3  C12 UNL     1      21.447   0.769  50.037  1.00  0.00     0.004 A 
HETATM    4  C13 UNL     1      20.930   0.232  51.202  1.00  0.00     0.029 A 
HETATM    5  C14 UNL     1      20.883   1.087  52.285  1.00  0.00     0.034 A 
HETATM    6  C20 UNL     1      21.310   2.398  52.257  1.00  0.00     0.059 A 
ENDROOT
BRANCH   1   7
HETATM    7  N3  UNL     1      22.261   4.257  51.050  1.00  0.00    -0.319 N 
HETATM    8  C6  UNL     1      23.621   4.448  51.531  1.00  0.00     0.117 A 
HETATM    9  C2  UNL     1      24.618   3.736  50.674  1.00  0.00     0.044 C 
HETATM   10  C5  UNL     1      23.766   3.979  52.929  1.00  0.00     0.028 C 
HETATM   11  C7  UNL     1      23.894   5.907  51.427  1.00  0.00     0.034 A 
HETATM   12  C1  UNL     1      24.822   4.374  49.333  1.00  0.00     0.069 C 
HETATM   13  N1  UNL     1      25.212   2.668  51.118  1.00  0.00    -0.266 NA
HETATM   14  C3  UNL     1      24.929   2.149  52.434  1.00  0.00     0.128 C 
HETATM   15  C4  UNL     1      24.734   3.162  53.257  1.00  0.00    -0.008 C 
HETATM   16  C8  UNL     1      23.088   6.888  50.989  1.00  0.00     0.117 A 
HETATM   17  N2  UNL     1      21.775   6.566  50.545  1.00  0.00    -0.256 NA
HETATM   18  C9  UNL     1      21.431   5.321  50.591  1.00  0.00     0.211 A 
ENDBRANCH   1   7
BRANCH   5  19
HETATM   19  N4  UNL     1      20.358   0.578  53.508  1.00  0.00    -0.366 N 
HETATM   20  H12 UNL     1      20.097   1.203  54.304  1.00  0.00     0.165 HD
BRANCH  19  21
HETATM   21  C15 UNL     1      20.158  -0.810  53.725  1.00  0.00     0.088 C 
HETATM   22  C16 UNL     1      20.990  -1.582  54.382  1.00  0.00     0.017 C 
BRANCH  22  23
HETATM   23  C17 UNL     1      22.210  -1.048  54.948  1.00  0.00    -0.001 C 
HETATM   24  C18 UNL     1      23.350  -1.216  54.303  1.00  0.00    -0.001 C 
BRANCH  24  25
HETATM   25  C19 UNL     1      24.684  -0.728  54.751  1.00  0.00     0.191 C 
BRANCH  25  26
HETATM   26  O1  UNL     1      24.964  -1.409  55.937  1.00  0.00    -0.397 OA
HETATM   27  H19 UNL     1      24.769  -0.831  56.727  1.00  0.00     0.209 HD
ENDBRANCH  25  26
ENDBRANCH  24  25
ENDBRANCH  22  23
ENDBRANCH  19  21
ENDBRANCH   5  19
TORSDOF 6
ENDMDL
MODEL 4
REMARK VINA RESULT:      -7.3      2.318      4.351
REMARK  6 active torsions:
REMARK  status: ('A' for Active; 'I' for Inactive)
REMARK    1  A    between atoms: N3_12  and  C10_13 
REMARK    2  A    between atoms: C14_17  and  N4_18 
REMARK    3  A    between atoms: N4_18  and  C15_19 
REMARK    4  A    between atoms: C16_20  and  C17_21 
REMARK    5  A    between atoms: C18_22  and  C19_23 
REMARK    6  A    between atoms: C19_23  and  O1_24 
ROOT
HETATM    1  C10 UNL     1      23.176   3.823  50.338  1.00  0.00     0.039 A 
HETATM    2  C11 UNL     1      23.494   4.943  49.572  1.00  0.00     0.030 A 
HETATM    3  C12 UNL     1      24.801   5.177  49.191  1.00  0.00     0.004 A 
HETATM    4  C13 UNL     1      25.835   4.328  49.542  1.00  0.00     0.029 A 
HETATM    5  C14 UNL     1      25.478   3.231  50.300  1.00  0.00     0.034 A 
HETATM    6  C20 UNL     1      24.188   2.956  50.705  1.00  0.00     0.059 A 
ENDROOT
BRANCH   1   7
HETATM    7  N3  UNL     1      21.848   3.538  50.756  1.00  0.00    -0.319 N 
HETATM    8  C6  UNL     1      21.017   2.938  49.723  1.00  0.00     0.117 A 
HETATM    9  C2  UNL     1      21.543   1.607  49.291  1.00  0.00     0.044 C 
HETATM   10  C5  UNL     1      20.913   3.822  48.539  1.00  0.00     0.028 C 
HETATM   11  C7  UNL     1      19.683   2.718  50.344  1.00  0.00     0.034 A 
HETATM   12  C1  UNL     1      21.352   0.526  50.310  1.00  0.00     0.069 C 
HETATM   13  N1  UNL     1      22.104   1.477  48.124  1.00  0.00    -0.266 NA
HETATM   14  C3  UNL     1      22.229   2.600  47.227  1.00  0.00     0.128 C 
HETATM   15  C4  UNL     1      21.153   3.356  47.340  1.00  0.00    -0.008 C 
HETATM   16  C8  UNL     1      19.275   2.998  51.593  1.00  0.00     0.117 A 
HETATM   17  N2  UNL     1      20.191   3.587  52.509  1.00  0.00    -0.256 NA
HETATM   18  C9  UNL     1      21.385   3.823  52.074  1.00  0.00     0.211 A 
ENDBRANCH   1   7
BRANCH   5  19
HETATM   19  N4  UNL     1      26.509   2.328  50.687  1.00  0.00    -0.366 N 
HETATM   20  H12 UNL     1      26.873   1.589  50.043  1.00  0.00     0.165 HD
BRANCH  19  21
HETATM   21  C15 UNL     1      27.109   2.372  51.972  1.00  0.00     0.088 C 
HETATM   22  C16 UNL     1      27.293   1.323  52.738  1.00  0.00     0.017 C 
BRANCH  22  23
HETATM   23  C17 UNL     1      26.879   0.006  52.305  1.00  0.00    -0.001 C 
HETATM   24  C18 UNL     1      27.463  -1.059  52.824  1.00  0.00    -0.001 C 
BRANCH  24  25
HETATM   25  C19 UNL     1      27.151  -2.475  52.485  1.00  0.00     0.191 C 
BRANCH  25  26
HETATM   26  O1  UNL     1      28.273  -3.216  52.860  1.00  0.00    -0.397 OA
HETATM   27  H19 UNL     1      28.769  -2.754  53.592  1.00  0.00     0.209 HD
ENDBRANCH  25  26
ENDBRANCH  24  25
ENDBRANCH  22  23
ENDBRANCH  19  21
ENDBRANCH   5  19
TORSDOF 6
ENDMDL
MODEL 5
REMARK VINA RESULT:      -7.3      1.548      1.748
REMARK  6 active torsions:
REMARK  status: ('A' for Active; 'I' for Inactive)
REMARK    1  A    between atoms: N3_12  and  C10_13 
REMARK    2  A    between atoms: C14_17  and  N4_18 
REMARK    3  A    between atoms: N4_18  and  C15_19 
REMARK    4  A    between atoms: C16_20  and  C17_21 
REMARK    5  A    between atoms: C18_22  and  C19_23 
REMARK    6  A    between atoms: C19_23  and  O1_24 
ROOT
HETATM    1  C10 UNL     1      22.224   1.450  51.264  1.00  0.00     0.039 A 
HETATM    2  C11 UNL     1      21.121   1.290  52.101  1.00  0.00     0.030 A 
HETATM    3  C12 UNL     1      21.270   0.699  53.341  1.00  0.00     0.004 A 
HETATM    4  C13 UNL     1      22.494   0.250  53.802  1.00  0.00     0.029 A 
HETATM    5  C14 UNL     1      23.559   0.428  52.943  1.00  0.00     0.034 A 
HETATM    6  C20 UNL     1      23.461   1.011  51.697  1.00  0.00     0.059 A 
ENDROOT
BRANCH   1   7
HETATM    7  N3  UNL     1      22.124   2.051  49.980  1.00  0.00    -0.319 N 
HETATM    8  C6  UNL     1      22.339   3.491  49.980  1.00  0.00     0.117 A 
HETATM    9  C2  UNL     1      23.721   3.846  50.429  1.00  0.00     0.044 C 
HETATM   10  C5  UNL     1      21.358   4.178  50.852  1.00  0.00     0.028 C 
HETATM   11  C7  UNL     1      22.195   3.929  48.566  1.00  0.00     0.034 A 
HETATM   12  C1  UNL     1      24.782   3.517  49.423  1.00  0.00     0.069 C 
HETATM   13  N1  UNL     1      23.906   4.386  51.598  1.00  0.00    -0.266 NA
HETATM   14  C3  UNL     1      22.797   4.654  52.480  1.00  0.00     0.128 C 
HETATM   15  C4  UNL     1      21.761   5.034  51.756  1.00  0.00    -0.008 C 
HETATM   16  C8  UNL     1      21.923   3.192  47.476  1.00  0.00     0.117 A 
HETATM   17  N2  UNL     1      21.734   1.788  47.614  1.00  0.00    -0.256 NA
HETATM   18  C9  UNL     1      21.837   1.298  48.805  1.00  0.00     0.211 A 
ENDBRANCH   1   7
BRANCH   5  19
HETATM   19  N4  UNL     1      24.841  -0.020  53.375  1.00  0.00    -0.366 N 
HETATM   20  H12 UNL     1      25.136  -1.020  53.301  1.00  0.00     0.165 HD
BRANCH  19  21
HETATM   21  C15 UNL     1      25.801   0.864  53.934  1.00  0.00     0.088 C 
HETATM   22  C16 UNL     1      27.099   0.695  53.848  1.00  0.00     0.017 C 
BRANCH  22  23
HETATM   23  C17 UNL     1      27.654  -0.446  53.153  1.00  0.00    -0.001 C 
HETATM   24  C18 UNL     1      28.685  -1.085  53.678  1.00  0.00    -0.001 C 
BRANCH  24  25
HETATM   25  C19 UNL     1      29.367  -2.270  53.088  1.00  0.00     0.191 C 
BRANCH  25  26
HETATM   26  O1  UNL     1      28.614  -3.380  53.476  1.00  0.00    -0.397 OA
HETATM   27  H19 UNL     1      29.126  -4.222  53.318  1.00  0.00     0.209 HD
ENDBRANCH  25  26
ENDBRANCH  24  25
ENDBRANCH  22  23
ENDBRANCH  19  21
ENDBRANCH   5  19
TORSDOF 6
ENDMDL
MODEL 6
REMARK VINA RESULT:      -7.2      1.425      3.035
REMARK  6 active torsions:
REMARK  status: ('A' for Active; 'I' for Inactive)
REMARK    1  A    between atoms: N3_12  and  C10_13 
REMARK    2  A    between atoms: C14_17  and  N4_18 
REMARK    3  A    between atoms: N4_18  and  C15_19 
REMARK    4  A    between atoms: C16_20  and  C17_21 
REMARK    5  A    between atoms: C18_22  and  C19_23 
REMARK    6  A    between atoms: C19_23  and  O1_24 
ROOT
HETATM    1  C10 UNL     1      22.003   2.233  52.329  1.00  0.00     0.039 A 
HETATM    2  C11 UNL     1      20.873   1.674  52.921  1.00  0.00     0.030 A 
HETATM    3  C12 UNL     1      20.956   0.455  53.565  1.00  0.00     0.004 A 
HETATM    4  C13 UNL     1      22.140  -0.255  53.651  1.00  0.00     0.029 A 
HETATM    5  C14 UNL     1      23.235   0.334  53.051  1.00  0.00     0.034 A 
HETATM    6  C20 UNL     1      23.202   1.548  52.398  1.00  0.00     0.059 A 
ENDROOT
BRANCH   1   7
HETATM    7  N3  UNL     1      21.970   3.484  51.655  1.00  0.00    -0.319 N 
HETATM    8  C6  UNL     1      21.592   3.393  50.253  1.00  0.00     0.117 A 
HETATM    9  C2  UNL     1      20.202   2.866  50.086  1.00  0.00     0.044 C 
HETATM   10  C5  UNL     1      22.529   2.527  49.501  1.00  0.00     0.028 C 
HETATM   11  C7  UNL     1      21.615   4.785  49.728  1.00  0.00     0.034 A 
HETATM   12  C1  UNL     1      19.138   3.842  50.484  1.00  0.00     0.069 C 
HETATM   13  N1  UNL     1      20.015   1.661  49.632  1.00  0.00    -0.266 NA
HETATM   14  C3  UNL     1      21.128   0.813  49.281  1.00  0.00     0.128 C 
HETATM   15  C4  UNL     1      22.077   1.558  48.746  1.00  0.00    -0.008 C 
HETATM   16  C8  UNL     1      21.915   5.925  50.371  1.00  0.00     0.117 A 
HETATM   17  N2  UNL     1      22.271   5.876  51.748  1.00  0.00    -0.256 NA
HETATM   18  C9  UNL     1      22.283   4.712  52.309  1.00  0.00     0.211 A 
ENDBRANCH   1   7
BRANCH   5  19
HETATM   19  N4  UNL     1      24.478  -0.360  53.114  1.00  0.00    -0.366 N 
HETATM   20  H12 UNL     1      25.030  -0.593  52.257  1.00  0.00     0.165 HD
BRANCH  19  21
HETATM   21  C15 UNL     1      25.048  -0.780  54.344  1.00  0.00     0.088 C 
HETATM   22  C16 UNL     1      26.034  -0.163  54.951  1.00  0.00     0.017 C 
BRANCH  22  23
HETATM   23  C17 UNL     1      26.626   1.028  54.381  1.00  0.00    -0.001 C 
HETATM   24  C18 UNL     1      27.932   1.072  54.187  1.00  0.00    -0.001 C 
BRANCH  24  25
HETATM   25  C19 UNL     1      28.689   2.220  53.614  1.00  0.00     0.191 C 
BRANCH  25  26
HETATM   26  O1  UNL     1      29.699   2.511  54.533  1.00  0.00    -0.397 OA
HETATM   27  H19 UNL     1      29.451   2.183  55.442  1.00  0.00     0.209 HD
ENDBRANCH  25  26
ENDBRANCH  24  25
ENDBRANCH  22  23
ENDBRANCH  19  21
ENDBRANCH   5  19
TORSDOF 6
ENDMDL
MODEL 7
REMARK VINA RESULT:      -7.2      2.535      4.704
REMARK  6 active torsions:
REMARK  status: ('A' for Active; 'I' for Inactive)
REMARK    1  A    between atoms: N3_12  and  C10_13 
REMARK    2  A    between atoms: C14_17  and  N4_18 
REMARK    3  A    between atoms: N4_18  and  C15_19 
REMARK    4  A    between atoms: C16_20  and  C17_21 
REMARK    5  A    between atoms: C18_22  and  C19_23 
REMARK    6  A    between atoms: C19_23  and  O1_24 
ROOT
HETATM    1  C10 UNL     1      24.417   4.096  50.782  1.00  0.00     0.039 A 
HETATM    2  C11 UNL     1      25.404   3.846  49.831  1.00  0.00     0.030 A 
HETATM    3  C12 UNL     1      26.400   2.923  50.089  1.00  0.00     0.004 A 
HETATM    4  C13 UNL     1      26.463   2.218  51.277  1.00  0.00     0.029 A 
HETATM    5  C14 UNL     1      25.467   2.496  52.191  1.00  0.00     0.034 A 
HETATM    6  C20 UNL     1      24.453   3.408  51.980  1.00  0.00     0.059 A 
ENDROOT
BRANCH   1   7
HETATM    7  N3  UNL     1      23.372   5.034  50.566  1.00  0.00    -0.319 N 
HETATM    8  C6  UNL     1      22.217   4.486  49.870  1.00  0.00     0.117 A 
HETATM    9  C2  UNL     1      21.557   3.400  50.659  1.00  0.00     0.044 C 
HETATM   10  C5  UNL     1      22.596   3.954  48.541  1.00  0.00     0.028 C 
HETATM   11  C7  UNL     1      21.245   5.605  49.739  1.00  0.00     0.034 A 
HETATM   12  C1  UNL     1      20.811   3.898  51.858  1.00  0.00     0.069 C 
HETATM   13  N1  UNL     1      21.667   2.161  50.277  1.00  0.00    -0.266 NA
HETATM   14  C3  UNL     1      22.418   1.807  49.097  1.00  0.00     0.128 C 
HETATM   15  C4  UNL     1      22.242   2.745  48.185  1.00  0.00    -0.008 C 
HETATM   16  C8  UNL     1      21.359   6.877  50.156  1.00  0.00     0.117 A 
HETATM   17  N2  UNL     1      22.546   7.286  50.827  1.00  0.00    -0.256 NA
HETATM   18  C9  UNL     1      23.462   6.390  50.996  1.00  0.00     0.211 A 
ENDBRANCH   1   7
BRANCH   5  19
HETATM   19  N4  UNL     1      25.490   1.795  53.431  1.00  0.00    -0.366 N 
HETATM   20  H12 UNL     1      25.207   2.245  54.331  1.00  0.00     0.165 HD
BRANCH  19  21
HETATM   21  C15 UNL     1      25.900   0.439  53.524  1.00  0.00     0.088 C 
HETATM   22  C16 UNL     1      25.083  -0.585  53.470  1.00  0.00     0.017 C 
BRANCH  22  23
HETATM   23  C17 UNL     1      23.658  -0.390  53.308  1.00  0.00    -0.001 C 
HETATM   24  C18 UNL     1      22.842  -0.733  54.288  1.00  0.00    -0.001 C 
BRANCH  24  25
HETATM   25  C19 UNL     1      21.359  -0.597  54.275  1.00  0.00     0.191 C 
BRANCH  25  26
HETATM   26  O1  UNL     1      20.863  -1.721  54.938  1.00  0.00    -0.397 OA
HETATM   27  H19 UNL     1      21.592  -2.179  55.444  1.00  0.00     0.209 HD
ENDBRANCH  25  26
ENDBRANCH  24  25
ENDBRANCH  22  23
ENDBRANCH  19  21
ENDBRANCH   5  19
TORSDOF 6
ENDMDL
MODEL 8
REMARK VINA RESULT:      -7.1      3.366      6.176
REMARK  6 active torsions:
REMARK  status: ('A' for Active; 'I' for Inactive)
REMARK    1  A    between atoms: N3_12  and  C10_13 
REMARK    2  A    between atoms: C14_17  and  N4_18 
REMARK    3  A    between atoms: N4_18  and  C15_19 
REMARK    4  A    between atoms: C16_20  and  C17_21 
REMARK    5  A    between atoms: C18_22  and  C19_23 
REMARK    6  A    between atoms: C19_23  and  O1_24 
ROOT
HETATM    1  C10 UNL     1      24.158   3.472  49.941  1.00  0.00     0.039 A 
HETATM    2  C11 UNL     1      23.294   2.674  49.193  1.00  0.00     0.030 A 
HETATM    3  C12 UNL     1      22.614   3.206  48.116  1.00  0.00     0.004 A 
HETATM    4  C13 UNL     1      22.753   4.528  47.734  1.00  0.00     0.029 A 
HETATM    5  C14 UNL     1      23.617   5.284  48.501  1.00  0.00     0.034 A 
HETATM    6  C20 UNL     1      24.318   4.798  49.585  1.00  0.00     0.059 A 
ENDROOT
BRANCH   1   7
HETATM    7  N3  UNL     1      24.881   2.973  51.058  1.00  0.00    -0.319 N 
HETATM    8  C6  UNL     1      24.157   3.056  52.318  1.00  0.00     0.117 A 
HETATM    9  C2  UNL     1      22.915   2.222  52.301  1.00  0.00     0.044 C 
HETATM   10  C5  UNL     1      23.792   4.456  52.635  1.00  0.00     0.028 C 
HETATM   11  C7  UNL     1      25.066   2.493  53.353  1.00  0.00     0.034 A 
HETATM   12  C1  UNL     1      23.181   0.748  52.355  1.00  0.00     0.069 C 
HETATM   13  N1  UNL     1      21.749   2.794  52.242  1.00  0.00    -0.266 NA
HETATM   14  C3  UNL     1      21.624   4.231  52.194  1.00  0.00     0.128 C 
HETATM   15  C4  UNL     1      22.561   4.764  52.954  1.00  0.00    -0.008 C 
HETATM   16  C8  UNL     1      26.307   2.000  53.210  1.00  0.00     0.117 A 
HETATM   17  N2  UNL     1      26.903   1.977  51.918  1.00  0.00    -0.256 NA
HETATM   18  C9  UNL     1      26.198   2.443  50.940  1.00  0.00     0.211 A 
ENDBRANCH   1   7
BRANCH   5  19
HETATM   19  N4  UNL     1      23.794   6.653  48.147  1.00  0.00    -0.366 N 
HETATM   20  H12 UNL     1      24.432   6.951  47.376  1.00  0.00     0.165 HD
BRANCH  19  21
HETATM   21  C15 UNL     1      23.113   7.701  48.821  1.00  0.00     0.088 C 
HETATM   22  C16 UNL     1      23.671   8.497  49.702  1.00  0.00     0.017 C 
BRANCH  22  23
HETATM   23  C17 UNL     1      25.066   8.350  50.057  1.00  0.00    -0.001 C 
HETATM   24  C18 UNL     1      25.941   9.238  49.620  1.00  0.00    -0.001 C 
BRANCH  24  25
HETATM   25  C19 UNL     1      27.405   9.227  49.895  1.00  0.00     0.191 C 
BRANCH  25  26
HETATM   26  O1  UNL     1      27.551   9.658  51.215  1.00  0.00    -0.397 OA
HETATM   27  H19 UNL     1      27.994  10.552  51.244  1.00  0.00     0.209 HD
ENDBRANCH  25  26
ENDBRANCH  24  25
ENDBRANCH  22  23
ENDBRANCH  19  21
ENDBRANCH   5  19
TORSDOF 6
ENDMDL
MODEL 9
REMARK VINA RESULT:      -7.1      3.327      5.350
REMARK  6 active torsions:
REMARK  status: ('A' for Active; 'I' for Inactive)
REMARK    1  A    between atoms: N3_12  and  C10_13 
REMARK    2  A    between atoms: C14_17  and  N4_18 
REMARK    3  A    between atoms: N4_18  and  C15_19 
REMARK    4  A    between atoms: C16_20  and  C17_21 
REMARK    5  A    between atoms: C18_22  and  C19_23 
REMARK    6  A    between atoms: C19_23  and  O1_24 
ROOT
HETATM    1  C10 UNL     1      23.672   4.778  49.763  1.00  0.00     0.039 A 
HETATM    2  C11 UNL     1      23.076   5.814  50.480  1.00  0.00     0.030 A 
HETATM    3  C12 UNL     1      23.811   6.929  50.832  1.00  0.00     0.004 A 
HETATM    4  C13 UNL     1      25.145   7.070  50.496  1.00  0.00     0.029 A 
HETATM    5  C14 UNL     1      25.697   6.022  49.787  1.00  0.00     0.034 A 
HETATM    6  C20 UNL     1      25.005   4.889  49.413  1.00  0.00     0.059 A 
ENDROOT
BRANCH   1   7
HETATM    7  N3  UNL     1      22.960   3.610  49.377  1.00  0.00    -0.319 N 
HETATM    8  C6  UNL     1      22.914   2.578  50.403  1.00  0.00     0.117 A 
HETATM    9  C2  UNL     1      22.191   3.043  51.626  1.00  0.00     0.044 C 
HETATM   10  C5  UNL     1      24.277   2.142  50.785  1.00  0.00     0.028 C 
HETATM   11  C7  UNL     1      22.137   1.452  49.818  1.00  0.00     0.034 A 
HETATM   12  C1  UNL     1      20.709   3.163  51.440  1.00  0.00     0.069 C 
HETATM   13  N1  UNL     1      22.855   3.302  52.715  1.00  0.00    -0.266 NA
HETATM   14  C3  UNL     1      24.289   3.148  52.769  1.00  0.00     0.128 C 
HETATM   15  C4  UNL     1      24.630   2.099  52.044  1.00  0.00    -0.008 C 
HETATM   16  C8  UNL     1      21.574   1.354  48.603  1.00  0.00     0.117 A 
HETATM   17  N2  UNL     1      21.694   2.440  47.690  1.00  0.00    -0.256 NA
HETATM   18  C9  UNL     1      22.352   3.476  48.095  1.00  0.00     0.211 A 
ENDBRANCH   1   7
BRANCH   5  19
HETATM   19  N4  UNL     1      27.070   6.121  49.418  1.00  0.00    -0.366 N 
HETATM   20  H12 UNL     1      27.838   5.763  50.029  1.00  0.00     0.165 HD
BRANCH  19  21
HETATM   21  C15 UNL     1      27.482   6.714  48.196  1.00  0.00     0.088 C 
HETATM   22  C16 UNL     1      28.699   6.638  47.713  1.00  0.00     0.017 C 
BRANCH  22  23
HETATM   23  C17 UNL     1      29.736   5.920  48.421  1.00  0.00    -0.001 C 
HETATM   24  C18 UNL     1      30.815   6.569  48.823  1.00  0.00    -0.001 C 
BRANCH  24  25
HETATM   25  C19 UNL     1      31.964   5.975  49.560  1.00  0.00     0.191 C 
BRANCH  25  26
HETATM   26  O1  UNL     1      31.423   5.376  50.699  1.00  0.00    -0.397 OA
HETATM   27  H19 UNL     1      30.838   4.608  50.447  1.00  0.00     0.209 HD
ENDBRANCH  25  26
ENDBRANCH  24  25
ENDBRANCH  22  23
ENDBRANCH  19  21
ENDBRANCH   5  19
TORSDOF 6
ENDMDL
