MODEL 1
REMARK VINA RESULT:      -6.8      0.000      0.000
REMARK  5 active torsions:
REMARK  status: ('A' for Active; 'I' for Inactive)
REMARK    1  A    between atoms: O1_2  and  C2_3 
REMARK    2  A    between atoms: C2_3  and  O2_4 
REMARK    3  A    between atoms: O2_4  and  C3_5 
REMARK    4  A    between atoms: C4_6  and  O3_7 
REMARK    5  A    between atoms: C6_9  and  O4_10 
ROOT
HETATM    1  C3  UNL     1      24.706   1.823  52.304  1.00  0.00     0.117 A 
HETATM    2  C4  UNL     1      23.396   1.397  52.069  1.00  0.00     0.136 A 
HETATM    3  C6  UNL     1      22.862   0.279  52.716  1.00  0.00     0.106 A 
HETATM    4  C8  UNL     1      23.616  -0.468  53.629  1.00  0.00     0.070 A 
HETATM    5  C9  UNL     1      24.929  -0.025  53.846  1.00  0.00     0.046 A 
HETATM    6  C10 UNL     1      25.430   1.083  53.202  1.00  0.00     0.018 A 
HETATM    7  C11 UNL     1      26.707   1.260  53.884  1.00  0.00     0.113 A 
HETATM    8  C12 UNL     1      27.761   2.101  53.322  1.00  0.00     0.167 A 
HETATM    9  N1  UNL     1      29.118   1.621  53.380  1.00  0.00    -0.282 NA
HETATM   10  C13 UNL     1      29.371   0.449  53.817  1.00  0.00     0.228 A 
HETATM   11  N2  UNL     1      28.370  -0.479  54.298  1.00  0.00    -0.228 NA
HETATM   12  C14 UNL     1      27.118  -0.076  54.305  1.00  0.00     0.116 A 
HETATM   13  N3  UNL     1      25.905  -0.806  54.579  1.00  0.00    -0.343 N 
HETATM   14  H17 UNL     1      25.776  -1.662  55.149  1.00  0.00     0.167 HD
ENDROOT
BRANCH   1  15
HETATM   15  O2  UNL     1      25.289   2.912  51.699  1.00  0.00    -0.323 OA
BRANCH  15  16
HETATM   16  C2  UNL     1      25.776   2.861  50.350  1.00  0.00     0.344 C 
BRANCH  16  17
HETATM   17  O1  UNL     1      26.952   3.567  50.240  1.00  0.00    -0.371 OA
HETATM   18  C1  UNL     1      27.083   4.327  49.103  1.00  0.00     0.204 C 
ENDBRANCH  16  17
ENDBRANCH  15  16
ENDBRANCH   1  15
BRANCH   2  19
HETATM   19  O3  UNL     1      22.658   2.135  51.165  1.00  0.00    -0.351 OA
HETATM   20  C5  UNL     1      21.882   3.261  51.486  1.00  0.00     0.210 C 
ENDBRANCH   2  19
BRANCH   3  21
HETATM   21  O4  UNL     1      21.565  -0.069  52.431  1.00  0.00    -0.353 OA
HETATM   22  C7  UNL     1      20.547   0.197  53.385  1.00  0.00     0.210 C 
ENDBRANCH   3  21
TORSDOF 5
ENDMDL
MODEL 2
REMARK VINA RESULT:      -6.7      2.071      4.224
REMARK  5 active torsions:
REMARK  status: ('A' for Active; 'I' for Inactive)
REMARK    1  A    between atoms: O1_2  and  C2_3 
REMARK    2  A    between atoms: C2_3  and  O2_4 
REMARK    3  A    between atoms: O2_4  and  C3_5 
REMARK    4  A    between atoms: C4_6  and  O3_7 
REMARK    5  A    between atoms: C6_9  and  O4_10 
ROOT
HETATM    1  C3  UNL     1      23.714   0.596  52.935  1.00  0.00     0.117 A 
HETATM    2  C4  UNL     1      22.713   1.550  52.736  1.00  0.00     0.136 A 
HETATM    3  C6  UNL     1      23.007   2.829  52.253  1.00  0.00     0.106 A 
HETATM    4  C8  UNL     1      24.319   3.214  51.949  1.00  0.00     0.070 A 
HETATM    5  C9  UNL     1      25.307   2.242  52.162  1.00  0.00     0.046 A 
HETATM    6  C10 UNL     1      24.991   0.986  52.631  1.00  0.00     0.018 A 
HETATM    7  C11 UNL     1      26.269   0.297  52.492  1.00  0.00     0.113 A 
HETATM    8  C12 UNL     1      26.535  -0.964  53.179  1.00  0.00     0.167 A 
HETATM    9  N1  UNL     1      27.824  -1.145  53.794  1.00  0.00    -0.282 NA
HETATM   10  C13 UNL     1      28.667  -0.188  53.823  1.00  0.00     0.228 A 
HETATM   11  N2  UNL     1      28.438   1.122  53.251  1.00  0.00    -0.228 NA
HETATM   12  C14 UNL     1      27.292   1.329  52.640  1.00  0.00     0.116 A 
HETATM   13  N3  UNL     1      26.722   2.544  52.113  1.00  0.00    -0.343 N 
HETATM   14  H17 UNL     1      27.206   3.402  51.790  1.00  0.00     0.167 HD
ENDROOT
BRANCH   1  15
HETATM   15  O2  UNL     1      23.490  -0.677  53.408  1.00  0.00    -0.323 OA
BRANCH  15  16
HETATM   16  C2  UNL     1      23.482  -0.975  54.812  1.00  0.00     0.344 C 
BRANCH  16  17
HETATM   17  O1  UNL     1      22.197  -1.222  55.239  1.00  0.00    -0.371 OA
HETATM   18  C1  UNL     1      21.436  -2.005  54.405  1.00  0.00     0.204 C 
ENDBRANCH  16  17
ENDBRANCH  15  16
ENDBRANCH   1  15
BRANCH   2  19
HETATM   19  O3  UNL     1      21.422   1.167  53.040  1.00  0.00    -0.351 OA
HETATM   20  C5  UNL     1      20.494   0.655  52.119  1.00  0.00     0.210 C 
ENDBRANCH   2  19
BRANCH   3  21
HETATM   21  O4  UNL     1      21.964   3.706  52.082  1.00  0.00    -0.353 OA
HETATM   22  C7  UNL     1      22.228   5.101  52.043  1.00  0.00     0.210 C 
ENDBRANCH   3  21
TORSDOF 5
ENDMDL
MODEL 3
REMARK VINA RESULT:      -6.7      1.844      4.831
REMARK  5 active torsions:
REMARK  status: ('A' for Active; 'I' for Inactive)
REMARK    1  A    between atoms: O1_2  and  C2_3 
REMARK    2  A    between atoms: C2_3  and  O2_4 
REMARK    3  A    between atoms: O2_4  and  C3_5 
REMARK    4  A    between atoms: C4_6  and  O3_7 
REMARK    5  A    between atoms: C6_9  and  O4_10 
ROOT
HETATM    1  C3  UNL     1      24.643   1.521  51.994  1.00  0.00     0.117 A 
HETATM    2  C4  UNL     1      25.897   2.137  51.953  1.00  0.00     0.136 A 
HETATM    3  C6  UNL     1      26.947   1.715  52.774  1.00  0.00     0.106 A 
HETATM    4  C8  UNL     1      26.790   0.657  53.679  1.00  0.00     0.070 A 
HETATM    5  C9  UNL     1      25.523   0.058  53.705  1.00  0.00     0.046 A 
HETATM    6  C10 UNL     1      24.506   0.486  52.881  1.00  0.00     0.018 A 
HETATM    7  C11 UNL     1      23.494  -0.537  53.115  1.00  0.00     0.113 A 
HETATM    8  C12 UNL     1      22.101  -0.334  52.728  1.00  0.00     0.167 A 
HETATM    9  N1  UNL     1      21.072  -0.756  53.644  1.00  0.00    -0.282 NA
HETATM   10  C13 UNL     1      21.378  -1.198  54.801  1.00  0.00     0.228 A 
HETATM   11  N2  UNL     1      22.732  -1.334  55.294  1.00  0.00    -0.228 NA
HETATM   12  C14 UNL     1      23.712  -1.002  54.482  1.00  0.00     0.116 A 
HETATM   13  N3  UNL     1      25.128  -0.889  54.728  1.00  0.00    -0.343 N 
HETATM   14  H17 UNL     1      25.703  -1.363  55.450  1.00  0.00     0.167 HD
ENDROOT
BRANCH   1  15
HETATM   15  O2  UNL     1      23.572   1.889  51.213  1.00  0.00    -0.323 OA
BRANCH  15  16
HETATM   16  C2  UNL     1      22.731   3.002  51.554  1.00  0.00     0.344 C 
BRANCH  16  17
HETATM   17  O1  UNL     1      22.849   3.995  50.609  1.00  0.00    -0.371 OA
HETATM   18  C1  UNL     1      22.776   3.580  49.301  1.00  0.00     0.204 C 
ENDBRANCH  16  17
ENDBRANCH  15  16
ENDBRANCH   1  15
BRANCH   2  19
HETATM   19  O3  UNL     1      26.045   3.182  51.063  1.00  0.00    -0.351 OA
HETATM   20  C5  UNL     1      26.468   3.052  49.730  1.00  0.00     0.210 C 
ENDBRANCH   2  19
BRANCH   3  21
HETATM   21  O4  UNL     1      28.148   2.372  52.669  1.00  0.00    -0.353 OA
HETATM   22  C7  UNL     1      29.008   2.432  53.798  1.00  0.00     0.210 C 
ENDBRANCH   3  21
TORSDOF 5
ENDMDL
MODEL 4
REMARK VINA RESULT:      -6.5      2.550      4.948
REMARK  5 active torsions:
REMARK  status: ('A' for Active; 'I' for Inactive)
REMARK    1  A    between atoms: O1_2  and  C2_3 
REMARK    2  A    between atoms: C2_3  and  O2_4 
REMARK    3  A    between atoms: O2_4  and  C3_5 
REMARK    4  A    between atoms: C4_6  and  O3_7 
REMARK    5  A    between atoms: C6_9  and  O4_10 
ROOT
HETATM    1  C3  UNL     1      25.958   1.687  52.303  1.00  0.00     0.117 A 
HETATM    2  C4  UNL     1      27.060   1.055  52.883  1.00  0.00     0.136 A 
HETATM    3  C6  UNL     1      26.929  -0.148  53.585  1.00  0.00     0.106 A 
HETATM    4  C8  UNL     1      25.685  -0.773  53.740  1.00  0.00     0.070 A 
HETATM    5  C9  UNL     1      24.593  -0.117  53.152  1.00  0.00     0.046 A 
HETATM    6  C10 UNL     1      24.750   1.062  52.460  1.00  0.00     0.018 A 
HETATM    7  C11 UNL     1      23.422   1.236  51.882  1.00  0.00     0.113 A 
HETATM    8  C12 UNL     1      22.987   2.522  51.343  1.00  0.00     0.167 A 
HETATM    9  N1  UNL     1      21.648   2.963  51.634  1.00  0.00    -0.282 NA
HETATM   10  C13 UNL     1      20.904   2.294  52.426  1.00  0.00     0.228 A 
HETATM   11  N2  UNL     1      21.300   1.064  53.077  1.00  0.00    -0.228 NA
HETATM   12  C14 UNL     1      22.499   0.593  52.814  1.00  0.00     0.116 A 
HETATM   13  N3  UNL     1      23.221  -0.505  53.407  1.00  0.00    -0.343 N 
HETATM   14  H17 UNL     1      22.848  -1.344  53.888  1.00  0.00     0.167 HD
ENDROOT
BRANCH   1  15
HETATM   15  O2  UNL     1      26.023   2.870  51.602  1.00  0.00    -0.323 OA
BRANCH  15  16
HETATM   16  C2  UNL     1      26.434   2.916  50.227  1.00  0.00     0.344 C 
BRANCH  16  17
HETATM   17  O1  UNL     1      26.186   4.161  49.697  1.00  0.00    -0.371 OA
HETATM   18  C1  UNL     1      27.185   4.680  48.910  1.00  0.00     0.204 C 
ENDBRANCH  16  17
ENDBRANCH  15  16
ENDBRANCH   1  15
BRANCH   2  19
HETATM   19  O3  UNL     1      28.284   1.677  52.731  1.00  0.00    -0.351 OA
HETATM   20  C5  UNL     1      28.891   2.507  53.688  1.00  0.00     0.210 C 
ENDBRANCH   2  19
BRANCH   3  21
HETATM   21  O4  UNL     1      28.063  -0.706  54.122  1.00  0.00    -0.353 OA
HETATM   22  C7  UNL     1      28.869  -1.554  53.317  1.00  0.00     0.210 C 
ENDBRANCH   3  21
TORSDOF 5
ENDMDL
MODEL 5
REMARK VINA RESULT:      -6.5      3.007      5.606
REMARK  5 active torsions:
REMARK  status: ('A' for Active; 'I' for Inactive)
REMARK    1  A    between atoms: O1_2  and  C2_3 
REMARK    2  A    between atoms: C2_3  and  O2_4 
REMARK    3  A    between atoms: O2_4  and  C3_5 
REMARK    4  A    between atoms: C4_6  and  O3_7 
REMARK    5  A    between atoms: C6_9  and  O4_10 
ROOT
HETATM    1  C3  UNL     1      24.659   0.666  52.779  1.00  0.00     0.117 A 
HETATM    2  C4  UNL     1      25.237   1.548  51.862  1.00  0.00     0.136 A 
HETATM    3  C6  UNL     1      24.472   2.501  51.182  1.00  0.00     0.106 A 
HETATM    4  C8  UNL     1      23.091   2.613  51.385  1.00  0.00     0.070 A 
HETATM    5  C9  UNL     1      22.533   1.715  52.306  1.00  0.00     0.046 A 
HETATM    6  C10 UNL     1      23.308   0.790  52.969  1.00  0.00     0.018 A 
HETATM    7  C11 UNL     1      22.354   0.251  53.931  1.00  0.00     0.113 A 
HETATM    8  C12 UNL     1      22.606  -1.005  54.634  1.00  0.00     0.167 A 
HETATM    9  N1  UNL     1      21.513  -1.931  54.784  1.00  0.00    -0.282 NA
HETATM   10  C13 UNL     1      20.389  -1.700  54.228  1.00  0.00     0.228 A 
HETATM   11  N2  UNL     1      20.094  -0.527  53.433  1.00  0.00    -0.228 NA
HETATM   12  C14 UNL     1      21.044   0.372  53.297  1.00  0.00     0.116 A 
HETATM   13  N3  UNL     1      21.103   1.547  52.464  1.00  0.00    -0.343 N 
HETATM   14  H17 UNL     1      20.323   2.114  52.083  1.00  0.00     0.167 HD
ENDROOT
BRANCH   1  15
HETATM   15  O2  UNL     1      25.356  -0.292  53.479  1.00  0.00    -0.323 OA
BRANCH  15  16
HETATM   16  C2  UNL     1      26.100   0.025  54.664  1.00  0.00     0.344 C 
BRANCH  16  17
HETATM   17  O1  UNL     1      27.312  -0.628  54.655  1.00  0.00    -0.371 OA
HETATM   18  C1  UNL     1      28.402   0.141  54.979  1.00  0.00     0.204 C 
ENDBRANCH  16  17
ENDBRANCH  15  16
ENDBRANCH   1  15
BRANCH   2  19
HETATM   19  O3  UNL     1      26.598   1.431  51.662  1.00  0.00    -0.351 OA
HETATM   20  C5  UNL     1      27.573   2.253  52.250  1.00  0.00     0.210 C 
ENDBRANCH   2  19
BRANCH   3  21
HETATM   21  O4  UNL     1      25.118   3.332  50.300  1.00  0.00    -0.353 OA
HETATM   22  C7  UNL     1      24.780   4.711  50.270  1.00  0.00     0.210 C 
ENDBRANCH   3  21
TORSDOF 5
ENDMDL
MODEL 6
REMARK VINA RESULT:      -6.3      3.086      4.731
REMARK  5 active torsions:
REMARK  status: ('A' for Active; 'I' for Inactive)
REMARK    1  A    between atoms: O1_2  and  C2_3 
REMARK    2  A    between atoms: C2_3  and  O2_4 
REMARK    3  A    between atoms: O2_4  and  C3_5 
REMARK    4  A    between atoms: C4_6  and  O3_7 
REMARK    5  A    between atoms: C6_9  and  O4_10 
ROOT
HETATM    1  C3  UNL     1      25.542   1.267  52.185  1.00  0.00     0.117 A 
HETATM    2  C4  UNL     1      25.116   0.235  53.024  1.00  0.00     0.136 A 
HETATM    3  C6  UNL     1      23.764   0.051  53.331  1.00  0.00     0.106 A 
HETATM    4  C8  UNL     1      22.774   0.894  52.812  1.00  0.00     0.070 A 
HETATM    5  C9  UNL     1      23.226   1.925  51.975  1.00  0.00     0.046 A 
HETATM    6  C10 UNL     1      24.562   2.081  51.683  1.00  0.00     0.018 A 
HETATM    7  C11 UNL     1      24.513   3.112  50.652  1.00  0.00     0.113 A 
HETATM    8  C12 UNL     1      25.704   3.865  50.269  1.00  0.00     0.167 A 
HETATM    9  N1  UNL     1      25.574   5.284  50.058  1.00  0.00    -0.282 NA
HETATM   10  C13 UNL     1      24.470   5.875  50.301  1.00  0.00     0.228 A 
HETATM   11  N2  UNL     1      23.275   5.214  50.778  1.00  0.00    -0.228 NA
HETATM   12  C14 UNL     1      23.326   3.910  50.949  1.00  0.00     0.116 A 
HETATM   13  N3  UNL     1      22.369   3.009  51.540  1.00  0.00    -0.343 N 
HETATM   14  H17 UNL     1      21.341   3.118  51.628  1.00  0.00     0.167 HD
ENDROOT
BRANCH   1  15
HETATM   15  O2  UNL     1      26.855   1.500  51.846  1.00  0.00    -0.323 OA
BRANCH  15  16
HETATM   16  C2  UNL     1      27.749   2.209  52.718  1.00  0.00     0.344 C 
BRANCH  16  17
HETATM   17  O1  UNL     1      28.867   1.449  52.974  1.00  0.00    -0.371 OA
HETATM   18  C1  UNL     1      29.106   1.173  54.299  1.00  0.00     0.204 C 
ENDBRANCH  16  17
ENDBRANCH  15  16
ENDBRANCH   1  15
BRANCH   2  19
HETATM   19  O3  UNL     1      26.096  -0.592  53.537  1.00  0.00    -0.351 OA
HETATM   20  C5  UNL     1      26.757  -1.601  52.818  1.00  0.00     0.210 C 
ENDBRANCH   2  19
BRANCH   3  21
HETATM   21  O4  UNL     1      23.430  -0.990  54.162  1.00  0.00    -0.353 OA
HETATM   22  C7  UNL     1      22.134  -1.027  54.742  1.00  0.00     0.210 C 
ENDBRANCH   3  21
TORSDOF 5
ENDMDL
MODEL 7
REMARK VINA RESULT:      -6.1      1.932      4.769
REMARK  5 active torsions:
REMARK  status: ('A' for Active; 'I' for Inactive)
REMARK    1  A    between atoms: O1_2  and  C2_3 
REMARK    2  A    between atoms: C2_3  and  O2_4 
REMARK    3  A    between atoms: O2_4  and  C3_5 
REMARK    4  A    between atoms: C4_6  and  O3_7 
REMARK    5  A    between atoms: C6_9  and  O4_10 
ROOT
HETATM    1  C3  UNL     1      23.210   2.065  52.252  1.00  0.00     0.117 A 
HETATM    2  C4  UNL     1      23.865   3.048  51.506  1.00  0.00     0.136 A 
HETATM    3  C6  UNL     1      25.240   2.985  51.261  1.00  0.00     0.106 A 
HETATM    4  C8  UNL     1      26.026   1.936  51.755  1.00  0.00     0.070 A 
HETATM    5  C9  UNL     1      25.347   0.965  52.504  1.00  0.00     0.046 A 
HETATM    6  C10 UNL     1      23.990   1.045  52.726  1.00  0.00     0.018 A 
HETATM    7  C11 UNL     1      23.724  -0.247  53.349  1.00  0.00     0.113 A 
HETATM    8  C12 UNL     1      22.485  -0.500  54.080  1.00  0.00     0.167 A 
HETATM    9  N1  UNL     1      22.564  -1.223  55.323  1.00  0.00    -0.282 NA
HETATM   10  C13 UNL     1      23.698  -1.540  55.815  1.00  0.00     0.228 A 
HETATM   11  N2  UNL     1      24.972  -1.237  55.199  1.00  0.00    -0.228 NA
HETATM   12  C14 UNL     1      24.956  -0.613  54.041  1.00  0.00     0.116 A 
HETATM   13  N3  UNL     1      26.037  -0.054  53.268  1.00  0.00    -0.343 N 
HETATM   14  H17 UNL     1      27.040  -0.318  53.268  1.00  0.00     0.167 HD
ENDROOT
BRANCH   1  15
HETATM   15  O2  UNL     1      21.862   2.071  52.528  1.00  0.00    -0.323 OA
BRANCH  15  16
HETATM   16  C2  UNL     1      20.888   1.647  51.562  1.00  0.00     0.344 C 
BRANCH  16  17
HETATM   17  O1  UNL     1      19.650   2.159  51.877  1.00  0.00    -0.371 OA
HETATM   18  C1  UNL     1      19.492   3.506  51.655  1.00  0.00     0.204 C 
ENDBRANCH  16  17
ENDBRANCH  15  16
ENDBRANCH   1  15
BRANCH   2  19
HETATM   19  O3  UNL     1      23.087   4.082  51.024  1.00  0.00    -0.351 OA
HETATM   20  C5  UNL     1      22.795   5.264  51.724  1.00  0.00     0.210 C 
ENDBRANCH   2  19
BRANCH   3  21
HETATM   21  O4  UNL     1      25.806   3.990  50.515  1.00  0.00    -0.353 OA
HETATM   22  C7  UNL     1      26.663   3.654  49.433  1.00  0.00     0.210 C 
ENDBRANCH   3  21
TORSDOF 5
ENDMDL
MODEL 8
REMARK VINA RESULT:      -6.1      1.747      4.355
REMARK  5 active torsions:
REMARK  status: ('A' for Active; 'I' for Inactive)
REMARK    1  A    between atoms: O1_2  and  C2_3 
REMARK    2  A    between atoms: C2_3  and  O2_4 
REMARK    3  A    between atoms: O2_4  and  C3_5 
REMARK    4  A    between atoms: C4_6  and  O3_7 
REMARK    5  A    between atoms: C6_9  and  O4_10 
ROOT
HETATM    1  C3  UNL     1      23.482   1.309  51.708  1.00  0.00     0.117 A 
HETATM    2  C4  UNL     1      22.922   2.275  50.869  1.00  0.00     0.136 A 
HETATM    3  C6  UNL     1      23.691   3.308  50.325  1.00  0.00     0.106 A 
HETATM    4  C8  UNL     1      25.059   3.425  50.599  1.00  0.00     0.070 A 
HETATM    5  C9  UNL     1      25.599   2.447  51.448  1.00  0.00     0.046 A 
HETATM    6  C10 UNL     1      24.822   1.435  51.965  1.00  0.00     0.018 A 
HETATM    7  C11 UNL     1      25.831   0.587  52.588  1.00  0.00     0.113 A 
HETATM    8  C12 UNL     1      25.470  -0.436  53.566  1.00  0.00     0.167 A 
HETATM    9  N1  UNL     1      26.296  -0.581  54.736  1.00  0.00    -0.282 NA
HETATM   10  C13 UNL     1      27.254   0.233  54.956  1.00  0.00     0.228 A 
HETATM   11  N2  UNL     1      27.611   1.332  54.085  1.00  0.00    -0.228 NA
HETATM   12  C14 UNL     1      26.914   1.485  52.980  1.00  0.00     0.116 A 
HETATM   13  N3  UNL     1      26.931   2.549  52.007  1.00  0.00    -0.343 N 
HETATM   14  H17 UNL     1      27.698   3.207  51.777  1.00  0.00     0.167 HD
ENDROOT
BRANCH   1  15
HETATM   15  O2  UNL     1      22.780   0.270  52.274  1.00  0.00    -0.323 OA
BRANCH  15  16
HETATM   16  C2  UNL     1      21.993   0.444  53.462  1.00  0.00     0.344 C 
BRANCH  16  17
HETATM   17  O1  UNL     1      20.974  -0.479  53.499  1.00  0.00    -0.371 OA
HETATM   18  C1  UNL     1      19.836  -0.133  52.811  1.00  0.00     0.204 C 
ENDBRANCH  16  17
ENDBRANCH  15  16
ENDBRANCH   1  15
BRANCH   2  19
HETATM   19  O3  UNL     1      21.571   2.158  50.605  1.00  0.00    -0.351 OA
HETATM   20  C5  UNL     1      21.016   1.398  49.562  1.00  0.00     0.210 C 
ENDBRANCH   2  19
BRANCH   3  21
HETATM   21  O4  UNL     1      23.063   4.215  49.506  1.00  0.00    -0.353 OA
HETATM   22  C7  UNL     1      22.741   5.502  50.012  1.00  0.00     0.210 C 
ENDBRANCH   3  21
TORSDOF 5
ENDMDL
MODEL 9
REMARK VINA RESULT:      -5.6      2.607      5.523
REMARK  5 active torsions:
REMARK  status: ('A' for Active; 'I' for Inactive)
REMARK    1  A    between atoms: O1_2  and  C2_3 
REMARK    2  A    between atoms: C2_3  and  O2_4 
REMARK    3  A    between atoms: O2_4  and  C3_5 
REMARK    4  A    between atoms: C4_6  and  O3_7 
REMARK    5  A    between atoms: C6_9  and  O4_10 
ROOT
HETATM    1  C3  UNL     1      24.390   2.941  50.631  1.00  0.00     0.117 A 
HETATM    2  C4  UNL     1      25.744   3.099  50.940  1.00  0.00     0.136 A 
HETATM    3  C6  UNL     1      26.393   2.251  51.842  1.00  0.00     0.106 A 
HETATM    4  C8  UNL     1      25.716   1.204  52.480  1.00  0.00     0.070 A 
HETATM    5  C9  UNL     1      24.358   1.067  52.157  1.00  0.00     0.046 A 
HETATM    6  C10 UNL     1      23.743   1.911  51.260  1.00  0.00     0.018 A 
HETATM    7  C11 UNL     1      22.444   1.267  51.103  1.00  0.00     0.113 A 
HETATM    8  C12 UNL     1      21.309   1.973  50.514  1.00  0.00     0.167 A 
HETATM    9  N1  UNL     1      20.016   1.813  51.127  1.00  0.00    -0.282 NA
HETATM   10  C13 UNL     1      19.892   1.154  52.212  1.00  0.00     0.228 A 
HETATM   11  N2  UNL     1      20.985   0.510  52.908  1.00  0.00    -0.228 NA
HETATM   12  C14 UNL     1      22.183   0.590  52.370  1.00  0.00     0.116 A 
HETATM   13  N3  UNL     1      23.467   0.189  52.888  1.00  0.00    -0.343 N 
HETATM   14  H17 UNL     1      23.685  -0.536  53.597  1.00  0.00     0.167 HD
ENDROOT
BRANCH   1  15
HETATM   15  O2  UNL     1      23.696   3.742  49.754  1.00  0.00    -0.323 OA
BRANCH  15  16
HETATM   16  C2  UNL     1      23.383   5.109  50.060  1.00  0.00     0.344 C 
BRANCH  16  17
HETATM   17  O1  UNL     1      22.717   5.189  51.262  1.00  0.00    -0.371 OA
HETATM   18  C1  UNL     1      21.419   5.631  51.192  1.00  0.00     0.204 C 
ENDBRANCH  16  17
ENDBRANCH  15  16
ENDBRANCH   1  15
BRANCH   2  19
HETATM   19  O3  UNL     1      26.406   4.136  50.312  1.00  0.00    -0.351 OA
HETATM   20  C5  UNL     1      27.023   4.053  49.053  1.00  0.00     0.210 C 
ENDBRANCH   2  19
BRANCH   3  21
HETATM   21  O4  UNL     1      27.726   2.473  52.088  1.00  0.00    -0.353 OA
HETATM   22  C7  UNL     1      28.228   2.301  53.405  1.00  0.00     0.210 C 
ENDBRANCH   3  21
TORSDOF 5
ENDMDL
