MODEL 1
REMARK VINA RESULT:      -9.1      0.000      0.000
REMARK  6 active torsions:
REMARK  status: ('A' for Active; 'I' for Inactive)
REMARK    1  A    between atoms: O1_2  and  C2_3 
REMARK    2  A    between atoms: C6_7  and  C7_8 
REMARK    3  A    between atoms: C8_9  and  C9_10 
REMARK       I    between atoms: C9_10  and  N1_12 
REMARK    4  A    between atoms: N1_12  and  C10_13 
REMARK    5  A    between atoms: C14_19  and  N4_20 
REMARK    6  A    between atoms: N4_20  and  C15_21 
ROOT
HETATM    1  C10 UNL     1      24.107   0.123  53.175  1.00  0.00     0.049 A 
HETATM    2  C11 UNL     1      25.052   0.205  54.088  1.00  0.00     0.035 A 
HETATM    3  C12 UNL     1      26.103   0.879  53.713  1.00  0.00     0.085 A 
HETATM    4  N2  UNL     1      27.290   1.209  54.305  1.00  0.00    -0.240 NA
HETATM    5  C13 UNL     1      28.194   1.951  53.613  1.00  0.00     0.236 A 
HETATM    6  N3  UNL     1      27.955   2.369  52.369  1.00  0.00    -0.224 NA
HETATM    7  C14 UNL     1      26.832   2.101  51.703  1.00  0.00     0.142 A 
HETATM    8  C21 UNL     1      25.934   1.346  52.432  1.00  0.00     0.042 A 
HETATM    9  C22 UNL     1      24.718   0.885  52.094  1.00  0.00     0.048 A 
ENDROOT
BRANCH   1  10
HETATM   10  N1  UNL     1      22.836  -0.512  53.196  1.00  0.00    -0.323 N 
HETATM   11  C9  UNL     1      21.646   0.286  53.262  1.00  0.00     0.245 C 
HETATM   12  O2  UNL     1      21.915   1.508  53.291  1.00  0.00    -0.268 OA
HETATM   13  H9  UNL     1      22.831  -1.543  53.163  1.00  0.00     0.169 HD
BRANCH  11  14
HETATM   14  C8  UNL     1      20.434  -0.463  53.278  1.00  0.00     0.075 C 
HETATM   15  C7  UNL     1      19.570  -1.342  53.671  1.00  0.00     0.017 C 
BRANCH  15  16
HETATM   16  C6  UNL     1      18.252  -1.781  53.271  1.00  0.00    -0.033 A 
HETATM   17  C5  UNL     1      17.617  -0.838  52.495  1.00  0.00     0.011 A 
HETATM   18  C4  UNL     1      16.345  -1.240  52.098  1.00  0.00     0.004 A 
HETATM   19  C3  UNL     1      15.788  -2.472  52.458  1.00  0.00     0.037 A 
HETATM   20  C2  UNL     1      16.502  -3.334  53.231  1.00  0.00     0.069 A 
HETATM   21  C23 UNL     1      17.767  -3.003  53.661  1.00  0.00     0.048 A 
BRANCH  20  22
HETATM   22  O1  UNL     1      15.959  -4.568  53.600  1.00  0.00    -0.356 OA
HETATM   23  C1  UNL     1      14.697  -4.892  53.099  1.00  0.00     0.210 C 
ENDBRANCH  20  22
ENDBRANCH  15  16
ENDBRANCH  11  14
ENDBRANCH   1  10
BRANCH   7  24
HETATM   24  N4  UNL     1      26.484   2.504  50.393  1.00  0.00    -0.340 N 
HETATM   25  H11 UNL     1      26.229   1.759  49.708  1.00  0.00     0.167 HD
BRANCH  24  26
HETATM   26  C15 UNL     1      26.444   3.827  49.900  1.00  0.00     0.035 A 
HETATM   27  C16 UNL     1      27.307   4.380  48.985  1.00  0.00     0.029 A 
HETATM   28  C17 UNL     1      27.282   5.667  48.504  1.00  0.00     0.004 A 
HETATM   29  C18 UNL     1      26.285   6.525  48.978  1.00  0.00     0.019 A 
HETATM   30  C19 UNL     1      25.409   5.992  49.893  1.00  0.00     0.013 A 
HETATM   31 BR1  UNL     1      24.018   7.134  50.580  1.00  0.00    -0.051 Br
HETATM   32  C20 UNL     1      25.462   4.709  50.349  1.00  0.00     0.048 A 
ENDBRANCH  24  26
ENDBRANCH   7  24
TORSDOF 6
ENDMDL
MODEL 2
REMARK VINA RESULT:      -9.0      0.870      1.314
REMARK  6 active torsions:
REMARK  status: ('A' for Active; 'I' for Inactive)
REMARK    1  A    between atoms: O1_2  and  C2_3 
REMARK    2  A    between atoms: C6_7  and  C7_8 
REMARK    3  A    between atoms: C8_9  and  C9_10 
REMARK       I    between atoms: C9_10  and  N1_12 
REMARK    4  A    between atoms: N1_12  and  C10_13 
REMARK    5  A    between atoms: C14_19  and  N4_20 
REMARK    6  A    between atoms: N4_20  and  C15_21 
ROOT
HETATM    1  C10 UNL     1      23.753   0.269  52.925  1.00  0.00     0.049 A 
HETATM    2  C11 UNL     1      24.640   0.287  53.897  1.00  0.00     0.035 A 
HETATM    3  C12 UNL     1      25.752   0.898  53.598  1.00  0.00     0.085 A 
HETATM    4  N2  UNL     1      26.916   1.152  54.269  1.00  0.00    -0.240 NA
HETATM    5  C13 UNL     1      27.906   1.843  53.644  1.00  0.00     0.236 A 
HETATM    6  N3  UNL     1      27.774   2.283  52.393  1.00  0.00    -0.224 NA
HETATM    7  C14 UNL     1      26.681   2.089  51.654  1.00  0.00     0.142 A 
HETATM    8  C21 UNL     1      25.694   1.384  52.314  1.00  0.00     0.042 A 
HETATM    9  C22 UNL     1      24.477   1.001  51.894  1.00  0.00     0.048 A 
ENDROOT
BRANCH   1  10
HETATM   10  N1  UNL     1      22.448  -0.287  52.857  1.00  0.00    -0.323 N 
HETATM   11  C9  UNL     1      21.304   0.575  52.926  1.00  0.00     0.245 C 
HETATM   12  O2  UNL     1      21.642   1.775  53.042  1.00  0.00    -0.268 OA
HETATM   13  H9  UNL     1      22.384  -1.312  52.759  1.00  0.00     0.169 HD
BRANCH  11  14
HETATM   14  C8  UNL     1      20.051  -0.098  52.849  1.00  0.00     0.075 C 
HETATM   15  C7  UNL     1      18.797  -0.276  52.583  1.00  0.00     0.017 C 
BRANCH  15  16
HETATM   16  C6  UNL     1      17.827  -1.338  52.728  1.00  0.00    -0.033 A 
HETATM   17  C5  UNL     1      18.305  -2.357  53.518  1.00  0.00     0.011 A 
HETATM   18  C4  UNL     1      17.387  -3.392  53.672  1.00  0.00     0.004 A 
HETATM   19  C3  UNL     1      16.119  -3.379  53.080  1.00  0.00     0.037 A 
HETATM   20  C2  UNL     1      15.744  -2.319  52.314  1.00  0.00     0.069 A 
HETATM   21  C23 UNL     1      16.601  -1.260  52.119  1.00  0.00     0.048 A 
BRANCH  20  22
HETATM   22  O1  UNL     1      14.481  -2.293  51.716  1.00  0.00    -0.356 OA
HETATM   23  C1  UNL     1      14.391  -2.697  50.383  1.00  0.00     0.210 C 
ENDBRANCH  20  22
ENDBRANCH  15  16
ENDBRANCH  11  14
ENDBRANCH   1  10
BRANCH   7  24
HETATM   24  N4  UNL     1      26.443   2.522  50.328  1.00  0.00    -0.340 N 
HETATM   25  H11 UNL     1      26.298   1.791  49.597  1.00  0.00     0.167 HD
BRANCH  24  26
HETATM   26  C15 UNL     1      26.382   3.859  49.876  1.00  0.00     0.035 A 
HETATM   27  C16 UNL     1      27.225   4.449  48.966  1.00  0.00     0.029 A 
HETATM   28  C17 UNL     1      27.179   5.750  48.525  1.00  0.00     0.004 A 
HETATM   29  C18 UNL     1      26.180   6.581  49.038  1.00  0.00     0.019 A 
HETATM   30  C19 UNL     1      25.323   6.011  49.950  1.00  0.00     0.013 A 
HETATM   31 BR1  UNL     1      23.930   7.116  50.691  1.00  0.00    -0.051 Br
HETATM   32  C20 UNL     1      25.397   4.716  50.366  1.00  0.00     0.048 A 
ENDBRANCH  24  26
ENDBRANCH   7  24
TORSDOF 6
ENDMDL
MODEL 3
REMARK VINA RESULT:      -9.0      2.668      4.430
REMARK  6 active torsions:
REMARK  status: ('A' for Active; 'I' for Inactive)
REMARK    1  A    between atoms: O1_2  and  C2_3 
REMARK    2  A    between atoms: C6_7  and  C7_8 
REMARK    3  A    between atoms: C8_9  and  C9_10 
REMARK       I    between atoms: C9_10  and  N1_12 
REMARK    4  A    between atoms: N1_12  and  C10_13 
REMARK    5  A    between atoms: C14_19  and  N4_20 
REMARK    6  A    between atoms: N4_20  and  C15_21 
ROOT
HETATM    1  C10 UNL     1      22.069   1.055  51.101  1.00  0.00     0.049 A 
HETATM    2  C11 UNL     1      22.248   1.751  49.998  1.00  0.00     0.035 A 
HETATM    3  C12 UNL     1      23.320   2.492  50.000  1.00  0.00     0.085 A 
HETATM    4  N2  UNL     1      23.889   3.355  49.105  1.00  0.00    -0.240 NA
HETATM    5  C13 UNL     1      25.051   3.981  49.432  1.00  0.00     0.236 A 
HETATM    6  N3  UNL     1      25.654   3.776  50.603  1.00  0.00    -0.224 NA
HETATM    7  C14 UNL     1      25.183   2.956  51.543  1.00  0.00     0.142 A 
HETATM    8  C21 UNL     1      24.002   2.336  51.182  1.00  0.00     0.042 A 
HETATM    9  C22 UNL     1      23.242   1.462  51.863  1.00  0.00     0.048 A 
ENDROOT
BRANCH   1  10
HETATM   10  N1  UNL     1      21.043   0.149  51.481  1.00  0.00    -0.323 N 
HETATM   11  C9  UNL     1      19.907   0.628  52.213  1.00  0.00     0.245 C 
HETATM   12  O2  UNL     1      19.987   1.860  52.426  1.00  0.00    -0.268 OA
HETATM   13  H9  UNL     1      21.168  -0.837  51.204  1.00  0.00     0.169 HD
BRANCH  11  14
HETATM   14  C8  UNL     1      18.947  -0.373  52.536  1.00  0.00     0.075 C 
HETATM   15  C7  UNL     1      18.187  -1.114  53.275  1.00  0.00     0.017 C 
BRANCH  15  16
HETATM   16  C6  UNL     1      17.225  -2.174  53.072  1.00  0.00    -0.033 A 
HETATM   17  C5  UNL     1      17.609  -3.335  53.703  1.00  0.00     0.011 A 
HETATM   18  C4  UNL     1      16.696  -4.371  53.521  1.00  0.00     0.004 A 
HETATM   19  C3  UNL     1      15.522  -4.228  52.774  1.00  0.00     0.037 A 
HETATM   20  C2  UNL     1      15.236  -3.034  52.189  1.00  0.00     0.069 A 
HETATM   21  C23 UNL     1      16.092  -1.966  52.327  1.00  0.00     0.048 A 
BRANCH  20  22
HETATM   22  O1  UNL     1      14.066  -2.877  51.440  1.00  0.00    -0.356 OA
HETATM   23  C1  UNL     1      13.947  -3.623  50.267  1.00  0.00     0.210 C 
ENDBRANCH  20  22
ENDBRANCH  15  16
ENDBRANCH  11  14
ENDBRANCH   1  10
BRANCH   7  24
HETATM   24  N4  UNL     1      25.751   2.666  52.805  1.00  0.00    -0.340 N 
HETATM   25  H11 UNL     1      25.344   3.141  53.641  1.00  0.00     0.167 HD
BRANCH  24  26
HETATM   26  C15 UNL     1      26.829   1.791  53.064  1.00  0.00     0.035 A 
HETATM   27  C16 UNL     1      28.063   2.143  53.553  1.00  0.00     0.029 A 
HETATM   28  C17 UNL     1      29.121   1.301  53.802  1.00  0.00     0.004 A 
HETATM   29  C18 UNL     1      28.950  -0.061  53.539  1.00  0.00     0.019 A 
HETATM   30  C19 UNL     1      27.722  -0.436  53.050  1.00  0.00     0.013 A 
HETATM   31 BR1  UNL     1      27.437  -2.303  52.667  1.00  0.00    -0.051 Br
HETATM   32  C20 UNL     1      26.693   0.426  52.815  1.00  0.00     0.048 A 
ENDBRANCH  24  26
ENDBRANCH   7  24
TORSDOF 6
ENDMDL
MODEL 4
REMARK VINA RESULT:      -8.7      4.581     11.176
REMARK  6 active torsions:
REMARK  status: ('A' for Active; 'I' for Inactive)
REMARK    1  A    between atoms: O1_2  and  C2_3 
REMARK    2  A    between atoms: C6_7  and  C7_8 
REMARK    3  A    between atoms: C8_9  and  C9_10 
REMARK       I    between atoms: C9_10  and  N1_12 
REMARK    4  A    between atoms: N1_12  and  C10_13 
REMARK    5  A    between atoms: C14_19  and  N4_20 
REMARK    6  A    between atoms: N4_20  and  C15_21 
ROOT
HETATM    1  C10 UNL     1      24.391   3.267  49.906  1.00  0.00     0.049 A 
HETATM    2  C11 UNL     1      23.237   2.818  49.460  1.00  0.00     0.035 A 
HETATM    3  C12 UNL     1      22.680   1.920  50.224  1.00  0.00     0.085 A 
HETATM    4  N2  UNL     1      21.522   1.196  50.163  1.00  0.00    -0.240 NA
HETATM    5  C13 UNL     1      21.233   0.319  51.161  1.00  0.00     0.236 A 
HETATM    6  N3  UNL     1      22.048   0.146  52.202  1.00  0.00    -0.224 NA
HETATM    7  C14 UNL     1      23.198   0.802  52.356  1.00  0.00     0.142 A 
HETATM    8  C21 UNL     1      23.465   1.684  51.327  1.00  0.00     0.042 A 
HETATM    9  C22 UNL     1      24.515   2.501  51.139  1.00  0.00     0.048 A 
ENDROOT
BRANCH   1  10
HETATM   10  N1  UNL     1      25.291   4.229  49.373  1.00  0.00    -0.323 N 
HETATM   11  C9  UNL     1      26.680   3.902  49.236  1.00  0.00     0.245 C 
HETATM   12  O2  UNL     1      26.917   2.738  49.630  1.00  0.00    -0.268 OA
HETATM   13  H9  UNL     1      24.889   5.141  49.103  1.00  0.00     0.169 HD
BRANCH  11  14
HETATM   14  C8  UNL     1      27.481   4.946  48.690  1.00  0.00     0.075 C 
HETATM   15  C7  UNL     1      27.792   6.135  48.284  1.00  0.00     0.017 C 
BRANCH  15  16
HETATM   16  C6  UNL     1      28.947   6.787  47.709  1.00  0.00    -0.033 A 
HETATM   17  C5  UNL     1      28.584   7.756  46.803  1.00  0.00     0.011 A 
HETATM   18  C4  UNL     1      29.682   8.398  46.236  1.00  0.00     0.004 A 
HETATM   19  C3  UNL     1      31.004   8.078  46.564  1.00  0.00     0.037 A 
HETATM   20  C2  UNL     1      31.254   7.099  47.475  1.00  0.00     0.069 A 
HETATM   21  C23 UNL     1      30.218   6.422  48.076  1.00  0.00     0.048 A 
BRANCH  20  22
HETATM   22  O1  UNL     1      32.570   6.768  47.812  1.00  0.00    -0.356 OA
HETATM   23  C1  UNL     1      33.295   7.694  48.564  1.00  0.00     0.210 C 
ENDBRANCH  20  22
ENDBRANCH  15  16
ENDBRANCH  11  14
ENDBRANCH   1  10
BRANCH   7  24
HETATM   24  N4  UNL     1      24.121   0.696  53.423  1.00  0.00    -0.340 N 
HETATM   25  H11 UNL     1      23.808   1.007  54.369  1.00  0.00     0.167 HD
BRANCH  24  26
HETATM   26  C15 UNL     1      25.444   0.208  53.348  1.00  0.00     0.035 A 
HETATM   27  C16 UNL     1      25.831  -1.030  52.894  1.00  0.00     0.029 A 
HETATM   28  C17 UNL     1      27.113  -1.517  52.824  1.00  0.00     0.004 A 
HETATM   29  C18 UNL     1      28.154  -0.688  53.251  1.00  0.00     0.019 A 
HETATM   30  C19 UNL     1      27.791   0.557  53.709  1.00  0.00     0.013 A 
HETATM   31 BR1  UNL     1      29.188   1.737  54.314  1.00  0.00    -0.051 Br
HETATM   32  C20 UNL     1      26.507   1.009  53.765  1.00  0.00     0.048 A 
ENDBRANCH  24  26
ENDBRANCH   7  24
TORSDOF 6
ENDMDL
MODEL 5
REMARK VINA RESULT:      -8.6      3.559      6.120
REMARK  6 active torsions:
REMARK  status: ('A' for Active; 'I' for Inactive)
REMARK    1  A    between atoms: O1_2  and  C2_3 
REMARK    2  A    between atoms: C6_7  and  C7_8 
REMARK    3  A    between atoms: C8_9  and  C9_10 
REMARK       I    between atoms: C9_10  and  N1_12 
REMARK    4  A    between atoms: N1_12  and  C10_13 
REMARK    5  A    between atoms: C14_19  and  N4_20 
REMARK    6  A    between atoms: N4_20  and  C15_21 
ROOT
HETATM    1  C10 UNL     1      24.841   4.585  49.560  1.00  0.00     0.049 A 
HETATM    2  C11 UNL     1      24.250   5.459  48.773  1.00  0.00     0.035 A 
HETATM    3  C12 UNL     1      25.051   6.360  48.275  1.00  0.00     0.085 A 
HETATM    4  N2  UNL     1      24.887   7.431  47.441  1.00  0.00    -0.240 NA
HETATM    5  C13 UNL     1      25.969   8.185  47.108  1.00  0.00     0.236 A 
HETATM    6  N3  UNL     1      27.187   7.908  47.572  1.00  0.00    -0.224 NA
HETATM    7  C14 UNL     1      27.453   6.889  48.389  1.00  0.00     0.142 A 
HETATM    8  C21 UNL     1      26.336   6.142  48.710  1.00  0.00     0.042 A 
HETATM    9  C22 UNL     1      26.217   5.062  49.498  1.00  0.00     0.048 A 
ENDROOT
BRANCH   1  10
HETATM   10  N1  UNL     1      24.326   3.473  50.279  1.00  0.00    -0.323 N 
HETATM   11  C9  UNL     1      23.789   3.667  51.595  1.00  0.00     0.245 C 
HETATM   12  O2  UNL     1      23.855   4.867  51.944  1.00  0.00    -0.268 OA
HETATM   13  H9  UNL     1      24.363   2.557  49.807  1.00  0.00     0.169 HD
BRANCH  11  14
HETATM   14  C8  UNL     1      23.303   2.480  52.214  1.00  0.00     0.075 C 
HETATM   15  C7  UNL     1      23.342   1.356  52.854  1.00  0.00     0.017 C 
BRANCH  15  16
HETATM   16  C6  UNL     1      22.392   0.367  53.312  1.00  0.00    -0.033 A 
HETATM   17  C5  UNL     1      22.995  -0.591  54.095  1.00  0.00     0.011 A 
HETATM   18  C4  UNL     1      22.099  -1.555  54.547  1.00  0.00     0.004 A 
HETATM   19  C3  UNL     1      20.736  -1.536  54.230  1.00  0.00     0.037 A 
HETATM   20  C2  UNL     1      20.240  -0.541  53.446  1.00  0.00     0.069 A 
HETATM   21  C23 UNL     1      21.068   0.446  52.962  1.00  0.00     0.048 A 
BRANCH  20  22
HETATM   22  O1  UNL     1      18.881  -0.510  53.121  1.00  0.00    -0.356 OA
HETATM   23  C1  UNL     1      18.538  -0.144  51.818  1.00  0.00     0.210 C 
ENDBRANCH  20  22
ENDBRANCH  15  16
ENDBRANCH  11  14
ENDBRANCH   1  10
BRANCH   7  24
HETATM   24  N4  UNL     1      28.707   6.511  48.924  1.00  0.00    -0.340 N 
HETATM   25  H11 UNL     1      28.749   6.274  49.940  1.00  0.00     0.167 HD
BRANCH  24  26
HETATM   26  C15 UNL     1      29.930   6.419  48.224  1.00  0.00     0.035 A 
HETATM   27  C16 UNL     1      30.739   7.467  47.859  1.00  0.00     0.029 A 
HETATM   28  C17 UNL     1      31.926   7.390  47.172  1.00  0.00     0.004 A 
HETATM   29  C18 UNL     1      32.383   6.125  46.793  1.00  0.00     0.019 A 
HETATM   30  C19 UNL     1      31.590   5.060  47.149  1.00  0.00     0.013 A 
HETATM   31 BR1  UNL     1      32.173   3.294  46.645  1.00  0.00    -0.051 Br
HETATM   32  C20 UNL     1      30.416   5.173  47.831  1.00  0.00     0.048 A 
ENDBRANCH  24  26
ENDBRANCH   7  24
TORSDOF 6
ENDMDL
MODEL 6
REMARK VINA RESULT:      -8.6      3.919     10.901
REMARK  6 active torsions:
REMARK  status: ('A' for Active; 'I' for Inactive)
REMARK    1  A    between atoms: O1_2  and  C2_3 
REMARK    2  A    between atoms: C6_7  and  C7_8 
REMARK    3  A    between atoms: C8_9  and  C9_10 
REMARK       I    between atoms: C9_10  and  N1_12 
REMARK    4  A    between atoms: N1_12  and  C10_13 
REMARK    5  A    between atoms: C14_19  and  N4_20 
REMARK    6  A    between atoms: N4_20  and  C15_21 
ROOT
HETATM    1  C10 UNL     1      26.029   2.446  51.663  1.00  0.00     0.049 A 
HETATM    2  C11 UNL     1      26.437   1.360  52.286  1.00  0.00     0.035 A 
HETATM    3  C12 UNL     1      25.484   0.681  52.860  1.00  0.00     0.085 A 
HETATM    4  N2  UNL     1      25.438  -0.469  53.598  1.00  0.00    -0.240 NA
HETATM    5  C13 UNL     1      24.240  -0.917  54.056  1.00  0.00     0.236 A 
HETATM    6  N3  UNL     1      23.104  -0.266  53.805  1.00  0.00    -0.224 NA
HETATM    7  C14 UNL     1      23.040   0.862  53.097  1.00  0.00     0.142 A 
HETATM    8  C21 UNL     1      24.273   1.292  52.646  1.00  0.00     0.042 A 
HETATM    9  C22 UNL     1      24.597   2.374  51.918  1.00  0.00     0.048 A 
ENDROOT
BRANCH   1  10
HETATM   10  N1  UNL     1      26.745   3.432  50.933  1.00  0.00    -0.323 N 
HETATM   11  C9  UNL     1      26.385   3.708  49.572  1.00  0.00     0.245 C 
HETATM   12  O2  UNL     1      25.426   2.995  49.199  1.00  0.00    -0.268 OA
HETATM   13  H9  UNL     1      27.510   3.914  51.430  1.00  0.00     0.169 HD
BRANCH  11  14
HETATM   14  C8  UNL     1      27.174   4.715  48.946  1.00  0.00     0.075 C 
HETATM   15  C7  UNL     1      27.508   5.893  48.527  1.00  0.00     0.017 C 
BRANCH  15  16
HETATM   16  C6  UNL     1      28.616   6.487  47.813  1.00  0.00    -0.033 A 
HETATM   17  C5  UNL     1      28.205   7.530  47.016  1.00  0.00     0.011 A 
HETATM   18  C4  UNL     1      29.257   8.116  46.318  1.00  0.00     0.004 A 
HETATM   19  C3  UNL     1      30.582   7.680  46.428  1.00  0.00     0.037 A 
HETATM   20  C2  UNL     1      30.882   6.637  47.248  1.00  0.00     0.069 A 
HETATM   21  C23 UNL     1      29.892   6.008  47.969  1.00  0.00     0.048 A 
BRANCH  20  22
HETATM   22  O1  UNL     1      32.200   6.190  47.368  1.00  0.00    -0.356 OA
HETATM   23  C1  UNL     1      32.411   4.971  48.014  1.00  0.00     0.210 C 
ENDBRANCH  20  22
ENDBRANCH  15  16
ENDBRANCH  11  14
ENDBRANCH   1  10
BRANCH   7  24
HETATM   24  N4  UNL     1      21.889   1.617  52.771  1.00  0.00    -0.340 N 
HETATM   25  H11 UNL     1      21.870   2.621  53.056  1.00  0.00     0.167 HD
BRANCH  24  26
HETATM   26  C15 UNL     1      20.740   1.153  52.091  1.00  0.00     0.035 A 
HETATM   27  C16 UNL     1      20.374   1.468  50.806  1.00  0.00     0.029 A 
HETATM   28  C17 UNL     1      19.256   1.029  50.138  1.00  0.00     0.004 A 
HETATM   29  C18 UNL     1      18.383   0.171  50.814  1.00  0.00     0.019 A 
HETATM   30  C19 UNL     1      18.731  -0.158  52.103  1.00  0.00     0.013 A 
HETATM   31 BR1  UNL     1      17.558  -1.333  53.080  1.00  0.00    -0.051 Br
HETATM   32  C20 UNL     1      19.849   0.296  52.735  1.00  0.00     0.048 A 
ENDBRANCH  24  26
ENDBRANCH   7  24
TORSDOF 6
ENDMDL
MODEL 7
REMARK VINA RESULT:      -8.6      3.529     10.730
REMARK  6 active torsions:
REMARK  status: ('A' for Active; 'I' for Inactive)
REMARK    1  A    between atoms: O1_2  and  C2_3 
REMARK    2  A    between atoms: C6_7  and  C7_8 
REMARK    3  A    between atoms: C8_9  and  C9_10 
REMARK       I    between atoms: C9_10  and  N1_12 
REMARK    4  A    between atoms: N1_12  and  C10_13 
REMARK    5  A    between atoms: C14_19  and  N4_20 
REMARK    6  A    between atoms: N4_20  and  C15_21 
ROOT
HETATM    1  C10 UNL     1      24.264   1.508  51.831  1.00  0.00     0.049 A 
HETATM    2  C11 UNL     1      24.614   0.709  52.816  1.00  0.00     0.035 A 
HETATM    3  C12 UNL     1      23.619   0.078  53.375  1.00  0.00     0.085 A 
HETATM    4  N2  UNL     1      23.509  -0.819  54.401  1.00  0.00    -0.240 NA
HETATM    5  C13 UNL     1      22.282  -1.298  54.735  1.00  0.00     0.236 A 
HETATM    6  N3  UNL     1      21.179  -0.919  54.089  1.00  0.00    -0.224 NA
HETATM    7  C14 UNL     1      21.178  -0.051  53.077  1.00  0.00     0.142 A 
HETATM    8  C21 UNL     1      22.438   0.419  52.761  1.00  0.00     0.042 A 
HETATM    9  C22 UNL     1      22.822   1.295  51.818  1.00  0.00     0.048 A 
ENDROOT
BRANCH   1  10
HETATM   10  N1  UNL     1      25.037   2.351  50.989  1.00  0.00    -0.323 N 
HETATM   11  C9  UNL     1      24.793   3.765  50.982  1.00  0.00     0.245 C 
HETATM   12  O2  UNL     1      23.873   4.074  51.774  1.00  0.00    -0.268 OA
HETATM   13  H9  UNL     1      25.756   1.894  50.407  1.00  0.00     0.169 HD
BRANCH  11  14
HETATM   14  C8  UNL     1      25.630   4.504  50.098  1.00  0.00     0.075 C 
HETATM   15  C7  UNL     1      25.948   5.283  49.115  1.00  0.00     0.017 C 
BRANCH  15  16
HETATM   16  C6  UNL     1      27.163   5.813  48.538  1.00  0.00    -0.033 A 
HETATM   17  C5  UNL     1      26.959   7.053  47.977  1.00  0.00     0.011 A 
HETATM   18  C4  UNL     1      28.116   7.583  47.414  1.00  0.00     0.004 A 
HETATM   19  C3  UNL     1      29.345   6.914  47.427  1.00  0.00     0.037 A 
HETATM   20  C2  UNL     1      29.439   5.688  48.009  1.00  0.00     0.069 A 
HETATM   21  C23 UNL     1      28.335   5.102  48.585  1.00  0.00     0.048 A 
BRANCH  20  22
HETATM   22  O1  UNL     1      30.659   5.008  48.028  1.00  0.00    -0.356 OA
HETATM   23  C1  UNL     1      31.727   5.616  48.691  1.00  0.00     0.210 C 
ENDBRANCH  20  22
ENDBRANCH  15  16
ENDBRANCH  11  14
ENDBRANCH   1  10
BRANCH   7  24
HETATM   24  N4  UNL     1      20.069   0.404  52.326  1.00  0.00    -0.340 N 
HETATM   25  H11 UNL     1      20.177   1.295  51.792  1.00  0.00     0.167 HD
BRANCH  24  26
HETATM   26  C15 UNL     1      18.808  -0.222  52.220  1.00  0.00     0.035 A 
HETATM   27  C16 UNL     1      18.231  -1.052  53.150  1.00  0.00     0.029 A 
HETATM   28  C17 UNL     1      17.008  -1.672  53.054  1.00  0.00     0.004 A 
HETATM   29  C18 UNL     1      16.251  -1.453  51.900  1.00  0.00     0.019 A 
HETATM   30  C19 UNL     1      16.809  -0.625  50.955  1.00  0.00     0.013 A 
HETATM   31 BR1  UNL     1      15.807  -0.295  49.343  1.00  0.00    -0.051 Br
HETATM   32  C20 UNL     1      18.025  -0.025  51.083  1.00  0.00     0.048 A 
ENDBRANCH  24  26
ENDBRANCH   7  24
TORSDOF 6
ENDMDL
MODEL 8
REMARK VINA RESULT:      -8.5      5.383     12.093
REMARK  6 active torsions:
REMARK  status: ('A' for Active; 'I' for Inactive)
REMARK    1  A    between atoms: O1_2  and  C2_3 
REMARK    2  A    between atoms: C6_7  and  C7_8 
REMARK    3  A    between atoms: C8_9  and  C9_10 
REMARK       I    between atoms: C9_10  and  N1_12 
REMARK    4  A    between atoms: N1_12  and  C10_13 
REMARK    5  A    between atoms: C14_19  and  N4_20 
REMARK    6  A    between atoms: N4_20  and  C15_21 
ROOT
HETATM    1  C10 UNL     1      26.094   4.986  49.228  1.00  0.00     0.049 A 
HETATM    2  C11 UNL     1      25.137   5.686  48.656  1.00  0.00     0.035 A 
HETATM    3  C12 UNL     1      24.020   5.714  49.327  1.00  0.00     0.085 A 
HETATM    4  N2  UNL     1      22.797   6.291  49.126  1.00  0.00    -0.240 NA
HETATM    5  C13 UNL     1      21.821   6.121  50.057  1.00  0.00     0.236 A 
HETATM    6  N3  UNL     1      22.023   5.406  51.164  1.00  0.00    -0.224 NA
HETATM    7  C14 UNL     1      23.176   4.804  51.454  1.00  0.00     0.142 A 
HETATM    8  C21 UNL     1      24.147   4.994  50.490  1.00  0.00     0.042 A 
HETATM    9  C22 UNL     1      25.411   4.542  50.436  1.00  0.00     0.048 A 
ENDROOT
BRANCH   1  10
HETATM   10  N1  UNL     1      27.429   4.718  48.822  1.00  0.00    -0.323 N 
HETATM   11  C9  UNL     1      28.307   5.807  48.505  1.00  0.00     0.245 C 
HETATM   12  O2  UNL     1      27.733   6.911  48.642  1.00  0.00    -0.268 OA
HETATM   13  H9  UNL     1      27.710   3.726  48.774  1.00  0.00     0.169 HD
BRANCH  11  14
HETATM   14  C8  UNL     1      29.618   5.413  48.111  1.00  0.00     0.075 C 
HETATM   15  C7  UNL     1      30.726   5.425  47.444  1.00  0.00     0.017 C 
BRANCH  15  16
HETATM   16  C6  UNL     1      31.963   4.677  47.437  1.00  0.00    -0.033 A 
HETATM   17  C5  UNL     1      31.817   3.462  46.808  1.00  0.00     0.011 A 
HETATM   18  C4  UNL     1      32.997   2.723  46.789  1.00  0.00     0.004 A 
HETATM   19  C3  UNL     1      34.193   3.183  47.353  1.00  0.00     0.037 A 
HETATM   20  C2  UNL     1      34.229   4.403  47.953  1.00  0.00     0.069 A 
HETATM   21  C23 UNL     1      33.100   5.188  48.009  1.00  0.00     0.048 A 
BRANCH  20  22
HETATM   22  O1  UNL     1      35.415   4.875  48.522  1.00  0.00    -0.356 OA
HETATM   23  C1  UNL     1      35.466   6.223  48.882  1.00  0.00     0.210 C 
ENDBRANCH  20  22
ENDBRANCH  15  16
ENDBRANCH  11  14
ENDBRANCH   1  10
BRANCH   7  24
HETATM   24  N4  UNL     1      23.489   4.035  52.599  1.00  0.00    -0.340 N 
HETATM   25  H11 UNL     1      23.838   4.542  53.443  1.00  0.00     0.167 HD
BRANCH  24  26
HETATM   26  C15 UNL     1      23.383   2.633  52.729  1.00  0.00     0.035 A 
HETATM   27  C16 UNL     1      22.233   1.890  52.618  1.00  0.00     0.029 A 
HETATM   28  C17 UNL     1      22.117   0.527  52.750  1.00  0.00     0.004 A 
HETATM   29  C18 UNL     1      23.275  -0.205  53.026  1.00  0.00     0.019 A 
HETATM   30  C19 UNL     1      24.438   0.517  53.140  1.00  0.00     0.013 A 
HETATM   31 BR1  UNL     1      26.062  -0.445  53.525  1.00  0.00    -0.051 Br
HETATM   32  C20 UNL     1      24.518   1.870  53.003  1.00  0.00     0.048 A 
ENDBRANCH  24  26
ENDBRANCH   7  24
TORSDOF 6
ENDMDL
MODEL 9
REMARK VINA RESULT:      -8.4      4.171      6.856
REMARK  6 active torsions:
REMARK  status: ('A' for Active; 'I' for Inactive)
REMARK    1  A    between atoms: O1_2  and  C2_3 
REMARK    2  A    between atoms: C6_7  and  C7_8 
REMARK    3  A    between atoms: C8_9  and  C9_10 
REMARK       I    between atoms: C9_10  and  N1_12 
REMARK    4  A    between atoms: N1_12  and  C10_13 
REMARK    5  A    between atoms: C14_19  and  N4_20 
REMARK    6  A    between atoms: N4_20  and  C15_21 
ROOT
HETATM    1  C10 UNL     1      25.728   4.764  49.756  1.00  0.00     0.049 A 
HETATM    2  C11 UNL     1      25.393   5.930  49.245  1.00  0.00     0.035 A 
HETATM    3  C12 UNL     1      26.337   6.503  48.551  1.00  0.00     0.085 A 
HETATM    4  N2  UNL     1      26.439   7.680  47.864  1.00  0.00    -0.240 NA
HETATM    5  C13 UNL     1      27.603   7.978  47.228  1.00  0.00     0.236 A 
HETATM    6  N3  UNL     1      28.650   7.153  47.253  1.00  0.00    -0.224 NA
HETATM    7  C14 UNL     1      28.652   5.983  47.893  1.00  0.00     0.142 A 
HETATM    8  C21 UNL     1      27.457   5.709  48.531  1.00  0.00     0.042 A 
HETATM    9  C22 UNL     1      27.096   4.645  49.268  1.00  0.00     0.048 A 
ENDROOT
BRANCH   1  10
HETATM   10  N1  UNL     1      24.996   3.847  50.556  1.00  0.00    -0.323 N 
HETATM   11  C9  UNL     1      24.032   2.981  49.942  1.00  0.00     0.245 C 
HETATM   12  O2  UNL     1      23.971   3.169  48.706  1.00  0.00    -0.268 OA
HETATM   13  H9  UNL     1      25.199   3.848  51.568  1.00  0.00     0.169 HD
BRANCH  11  14
HETATM   14  C8  UNL     1      23.362   2.107  50.846  1.00  0.00     0.075 C 
HETATM   15  C7  UNL     1      22.378   1.477  51.401  1.00  0.00     0.017 C 
BRANCH  15  16
HETATM   16  C6  UNL     1      22.202   0.534  52.482  1.00  0.00    -0.033 A 
HETATM   17  C5  UNL     1      20.896   0.112  52.580  1.00  0.00     0.011 A 
HETATM   18  C4  UNL     1      20.704  -0.798  53.616  1.00  0.00     0.004 A 
HETATM   19  C3  UNL     1      21.737  -1.225  54.457  1.00  0.00     0.037 A 
HETATM   20  C2  UNL     1      22.997  -0.744  54.274  1.00  0.00     0.069 A 
HETATM   21  C23 UNL     1      23.261   0.158  53.269  1.00  0.00     0.048 A 
BRANCH  20  22
HETATM   22  O1  UNL     1      24.039  -1.161  55.106  1.00  0.00    -0.356 OA
HETATM   23  C1  UNL     1      25.336  -0.778  54.757  1.00  0.00     0.210 C 
ENDBRANCH  20  22
ENDBRANCH  15  16
ENDBRANCH  11  14
ENDBRANCH   1  10
BRANCH   7  24
HETATM   24  N4  UNL     1      29.703   5.040  47.971  1.00  0.00    -0.340 N 
HETATM   25  H11 UNL     1      29.446   4.028  47.988  1.00  0.00     0.167 HD
BRANCH  24  26
HETATM   26  C15 UNL     1      31.086   5.320  48.033  1.00  0.00     0.035 A 
HETATM   27  C16 UNL     1      31.689   6.269  48.822  1.00  0.00     0.029 A 
HETATM   28  C17 UNL     1      33.031   6.555  48.884  1.00  0.00     0.004 A 
HETATM   29  C18 UNL     1      33.897   5.818  48.070  1.00  0.00     0.019 A 
HETATM   30  C19 UNL     1      33.315   4.862  47.272  1.00  0.00     0.013 A 
HETATM   31 BR1  UNL     1      34.464   3.823  46.128  1.00  0.00    -0.051 Br
HETATM   32  C20 UNL     1      31.978   4.604  47.236  1.00  0.00     0.048 A 
ENDBRANCH  24  26
ENDBRANCH   7  24
TORSDOF 6
ENDMDL
