MODEL 1
REMARK VINA RESULT:      -8.1      0.000      0.000
REMARK  9 active torsions:
REMARK  status: ('A' for Active; 'I' for Inactive)
REMARK    1  A    between atoms: N1_1  and  C1_2 
REMARK    2  A    between atoms: C1_2  and  C2_3 
REMARK    3  A    between atoms: C2_3  and  C3_4 
REMARK    4  A    between atoms: C3_4  and  N2_5 
REMARK       I    between atoms: N2_5  and  C4_6 
REMARK    5  A    between atoms: C4_6  and  C5_8 
REMARK    6  A    between atoms: C9_12  and  N3_13 
REMARK    7  A    between atoms: N3_13  and  C10_14 
REMARK    8  A    between atoms: C13_18  and  C14_19 
REMARK    9  A    between atoms: C14_19  and  C15_20 
ROOT
HETATM    1  C5  UNL     1      26.021   2.295  52.618  1.00  0.00     0.034 A 
HETATM    2  C6  UNL     1      26.408   2.307  51.284  1.00  0.00     0.017 A 
HETATM    3  C7  UNL     1      25.609   2.978  50.351  1.00  0.00     0.003 A 
HETATM    4  C8  UNL     1      24.449   3.611  50.816  1.00  0.00     0.030 A 
HETATM    5  C9  UNL     1      24.061   3.604  52.134  1.00  0.00     0.050 A 
HETATM    6  C20 UNL     1      24.873   2.927  53.042  1.00  0.00     0.047 A 
ENDROOT
BRANCH   5   7
HETATM    7  N3  UNL     1      22.855   4.285  52.539  1.00  0.00    -0.188 N 
HETATM    8  H13 UNL     1      22.967   5.229  52.998  1.00  0.00     0.184 HD
BRANCH   7   9
HETATM    9  C10 UNL     1      21.662   3.542  52.242  1.00  0.00     0.727 A 
HETATM   10  N4  UNL     1      20.615   4.221  51.701  1.00  0.00    -0.075 NA
HETATM   11  C11 UNL     1      19.481   3.563  51.406  1.00  0.00     0.138 A 
HETATM   12  C12 UNL     1      19.368   2.199  51.647  1.00  0.00     0.048 A 
HETATM   13  C13 UNL     1      20.433   1.522  52.195  1.00  0.00     0.059 A 
HETATM   14  N6  UNL     1      21.533   2.227  52.467  1.00  0.00    -0.067 NA
BRANCH  13  15
HETATM   15  C14 UNL     1      20.407   0.077  52.477  1.00  0.00     0.100 C 
BRANCH  15  16
HETATM   16  C15 UNL     1      21.567  -0.344  53.295  1.00  0.00    -0.035 A 
HETATM   17  C16 UNL     1      22.895  -0.276  52.956  1.00  0.00     0.010 A 
HETATM   18  C17 UNL     1      23.889  -0.705  53.816  1.00  0.00     0.020 A 
HETATM   19  C18 UNL     1      23.496  -1.219  55.058  1.00  0.00     0.116 A 
HETATM   20  N5  UNL     1      22.197  -1.273  55.356  1.00  0.00    -0.273 NA
HETATM   21  C19 UNL     1      21.210  -0.865  54.546  1.00  0.00     0.123 A 
ENDBRANCH  15  16
ENDBRANCH  13  15
ENDBRANCH   7   9
ENDBRANCH   5   7
BRANCH   1  22
HETATM   22  C4  UNL     1      26.916   1.581  53.518  1.00  0.00     0.251 C 
HETATM   23  N2  UNL     1      28.176   0.997  53.220  1.00  0.00    -0.357 N 
HETATM   24  H9  UNL     1      28.482   1.114  52.209  1.00  0.00     0.162 HD
HETATM   25  O1  UNL     1      26.556   1.443  54.730  1.00  0.00    -0.268 OA
BRANCH  23  26
HETATM   26  C3  UNL     1      28.958   0.306  54.227  1.00  0.00     0.124 C 
BRANCH  26  27
HETATM   27  C2  UNL     1      29.484  -1.025  53.787  1.00  0.00     0.049 C 
BRANCH  27  28
HETATM   28  C1  UNL     1      28.390  -1.778  53.026  1.00  0.00     0.268 C 
BRANCH  28  29
HETATM   29  N1  UNL     1      28.645  -3.185  53.198  1.00  0.00     0.078 N 
HETATM   30  H1  UNL     1      27.802  -3.709  53.466  1.00  0.00     0.312 HD
HETATM   31  H2  UNL     1      29.119  -3.606  52.359  1.00  0.00     0.312 HD
ENDBRANCH  28  29
ENDBRANCH  27  28
ENDBRANCH  26  27
ENDBRANCH  23  26
ENDBRANCH   1  22
TORSDOF 9
ENDMDL
MODEL 2
REMARK VINA RESULT:      -8.0      2.224      5.271
REMARK  9 active torsions:
REMARK  status: ('A' for Active; 'I' for Inactive)
REMARK    1  A    between atoms: N1_1  and  C1_2 
REMARK    2  A    between atoms: C1_2  and  C2_3 
REMARK    3  A    between atoms: C2_3  and  C3_4 
REMARK    4  A    between atoms: C3_4  and  N2_5 
REMARK       I    between atoms: N2_5  and  C4_6 
REMARK    5  A    between atoms: C4_6  and  C5_8 
REMARK    6  A    between atoms: C9_12  and  N3_13 
REMARK    7  A    between atoms: N3_13  and  C10_14 
REMARK    8  A    between atoms: C13_18  and  C14_19 
REMARK    9  A    between atoms: C14_19  and  C15_20 
ROOT
HETATM    1  C5  UNL     1      23.911  -0.065  53.485  1.00  0.00     0.034 A 
HETATM    2  C6  UNL     1      23.465  -0.928  54.478  1.00  0.00     0.017 A 
HETATM    3  C7  UNL     1      22.089  -1.053  54.702  1.00  0.00     0.003 A 
HETATM    4  C8  UNL     1      21.223  -0.293  53.904  1.00  0.00     0.030 A 
HETATM    5  C9  UNL     1      21.658   0.562  52.920  1.00  0.00     0.050 A 
HETATM    6  C20 UNL     1      23.033   0.669  52.718  1.00  0.00     0.047 A 
ENDROOT
BRANCH   5   7
HETATM    7  N3  UNL     1      20.705   1.306  52.133  1.00  0.00    -0.188 N 
HETATM    8  H13 UNL     1      19.746   1.453  52.551  1.00  0.00     0.184 HD
BRANCH   7   9
HETATM    9  C10 UNL     1      21.233   1.739  50.869  1.00  0.00     0.727 A 
HETATM   10  N4  UNL     1      21.088   0.902  49.806  1.00  0.00    -0.075 NA
HETATM   11  C11 UNL     1      21.566   1.270  48.605  1.00  0.00     0.138 A 
HETATM   12  C12 UNL     1      22.205   2.492  48.439  1.00  0.00     0.048 A 
HETATM   13  C13 UNL     1      22.346   3.331  49.521  1.00  0.00     0.059 A 
HETATM   14  N6  UNL     1      21.852   2.914  50.688  1.00  0.00    -0.067 NA
BRANCH  13  15
HETATM   15  C14 UNL     1      23.000   4.647  49.437  1.00  0.00     0.100 C 
BRANCH  15  16
HETATM   16  C15 UNL     1      24.472   4.524  49.329  1.00  0.00    -0.035 A 
HETATM   17  C16 UNL     1      25.245   3.441  49.663  1.00  0.00     0.010 A 
HETATM   18  C17 UNL     1      26.620   3.452  49.513  1.00  0.00     0.020 A 
HETATM   19  C18 UNL     1      27.207   4.617  49.003  1.00  0.00     0.116 A 
HETATM   20  N5  UNL     1      26.428   5.653  48.689  1.00  0.00    -0.273 NA
HETATM   21  C19 UNL     1      25.094   5.673  48.822  1.00  0.00     0.123 A 
ENDBRANCH  15  16
ENDBRANCH  13  15
ENDBRANCH   7   9
ENDBRANCH   5   7
BRANCH   1  22
HETATM   22  C4  UNL     1      25.356  -0.006  53.317  1.00  0.00     0.251 C 
HETATM   23  N2  UNL     1      26.354  -0.682  54.068  1.00  0.00    -0.357 N 
HETATM   24  H9  UNL     1      25.972  -1.305  54.839  1.00  0.00     0.162 HD
HETATM   25  O1  UNL     1      25.818   0.734  52.392  1.00  0.00    -0.268 OA
BRANCH  23  26
HETATM   26  C3  UNL     1      27.767  -0.519  53.786  1.00  0.00     0.124 C 
BRANCH  26  27
HETATM   27  C2  UNL     1      28.475   0.414  54.720  1.00  0.00     0.049 C 
BRANCH  27  28
HETATM   28  C1  UNL     1      28.947   1.648  53.946  1.00  0.00     0.268 C 
BRANCH  28  29
HETATM   29  N1  UNL     1      27.851   2.581  53.927  1.00  0.00     0.078 N 
HETATM   30  H1  UNL     1      28.135   3.518  53.613  1.00  0.00     0.312 HD
HETATM   31  H2  UNL     1      27.030   2.216  53.379  1.00  0.00     0.312 HD
ENDBRANCH  28  29
ENDBRANCH  27  28
ENDBRANCH  26  27
ENDBRANCH  23  26
ENDBRANCH   1  22
TORSDOF 9
ENDMDL
MODEL 3
REMARK VINA RESULT:      -7.6      2.659      5.977
REMARK  9 active torsions:
REMARK  status: ('A' for Active; 'I' for Inactive)
REMARK    1  A    between atoms: N1_1  and  C1_2 
REMARK    2  A    between atoms: C1_2  and  C2_3 
REMARK    3  A    between atoms: C2_3  and  C3_4 
REMARK    4  A    between atoms: C3_4  and  N2_5 
REMARK       I    between atoms: N2_5  and  C4_6 
REMARK    5  A    between atoms: C4_6  and  C5_8 
REMARK    6  A    between atoms: C9_12  and  N3_13 
REMARK    7  A    between atoms: N3_13  and  C10_14 
REMARK    8  A    between atoms: C13_18  and  C14_19 
REMARK    9  A    between atoms: C14_19  and  C15_20 
ROOT
HETATM    1  C5  UNL     1      24.184  -0.065  53.245  1.00  0.00     0.034 A 
HETATM    2  C6  UNL     1      23.182  -0.563  54.069  1.00  0.00     0.017 A 
HETATM    3  C7  UNL     1      21.856  -0.183  53.830  1.00  0.00     0.003 A 
HETATM    4  C8  UNL     1      21.605   0.687  52.762  1.00  0.00     0.030 A 
HETATM    5  C9  UNL     1      22.591   1.182  51.943  1.00  0.00     0.050 A 
HETATM    6  C20 UNL     1      23.903   0.790  52.203  1.00  0.00     0.047 A 
ENDROOT
BRANCH   5   7
HETATM    7  N3  UNL     1      22.254   2.070  50.856  1.00  0.00    -0.188 N 
HETATM    8  H13 UNL     1      21.646   1.678  50.087  1.00  0.00     0.184 HD
BRANCH   7   9
HETATM    9  C10 UNL     1      22.820   3.382  51.005  1.00  0.00     0.727 A 
HETATM   10  N4  UNL     1      22.922   3.885  52.264  1.00  0.00    -0.075 NA
HETATM   11  C11 UNL     1      23.449   5.109  52.447  1.00  0.00     0.138 A 
HETATM   12  C12 UNL     1      23.887   5.862  51.365  1.00  0.00     0.048 A 
HETATM   13  C13 UNL     1      23.779   5.343  50.095  1.00  0.00     0.059 A 
HETATM   14  N6  UNL     1      23.249   4.124  49.974  1.00  0.00    -0.067 NA
BRANCH  13  15
HETATM   15  C14 UNL     1      24.225   6.064  48.892  1.00  0.00     0.100 C 
BRANCH  15  16
HETATM   16  C15 UNL     1      25.687   5.942  48.689  1.00  0.00    -0.035 A 
HETATM   17  C16 UNL     1      26.477   4.852  48.950  1.00  0.00     0.010 A 
HETATM   18  C17 UNL     1      27.840   4.866  48.713  1.00  0.00     0.020 A 
HETATM   19  C18 UNL     1      28.396   6.041  48.193  1.00  0.00     0.116 A 
HETATM   20  N5  UNL     1      27.601   7.084  47.951  1.00  0.00    -0.273 NA
HETATM   21  C19 UNL     1      26.278   7.102  48.169  1.00  0.00     0.123 A 
ENDBRANCH  15  16
ENDBRANCH  13  15
ENDBRANCH   7   9
ENDBRANCH   5   7
BRANCH   1  22
HETATM   22  C4  UNL     1      25.531  -0.520  53.561  1.00  0.00     0.251 C 
HETATM   23  N2  UNL     1      26.724  -0.305  52.822  1.00  0.00    -0.357 N 
HETATM   24  H9  UNL     1      26.591   0.266  51.935  1.00  0.00     0.162 HD
HETATM   25  O1  UNL     1      25.696  -1.198  54.624  1.00  0.00    -0.268 OA
BRANCH  23  26
HETATM   26  C3  UNL     1      28.003  -0.829  53.262  1.00  0.00     0.124 C 
BRANCH  26  27
HETATM   27  C2  UNL     1      29.027   0.223  53.556  1.00  0.00     0.049 C 
BRANCH  27  28
HETATM   28  C1  UNL     1      28.339   1.586  53.671  1.00  0.00     0.268 C 
BRANCH  28  29
HETATM   29  N1  UNL     1      29.375   2.570  53.846  1.00  0.00     0.078 N 
HETATM   30  H1  UNL     1      30.136   2.469  53.162  1.00  0.00     0.312 HD
HETATM   31  H2  UNL     1      28.991   3.550  53.863  1.00  0.00     0.312 HD
ENDBRANCH  28  29
ENDBRANCH  27  28
ENDBRANCH  26  27
ENDBRANCH  23  26
ENDBRANCH   1  22
TORSDOF 9
ENDMDL
MODEL 4
REMARK VINA RESULT:      -7.6      4.865      7.113
REMARK  9 active torsions:
REMARK  status: ('A' for Active; 'I' for Inactive)
REMARK    1  A    between atoms: N1_1  and  C1_2 
REMARK    2  A    between atoms: C1_2  and  C2_3 
REMARK    3  A    between atoms: C2_3  and  C3_4 
REMARK    4  A    between atoms: C3_4  and  N2_5 
REMARK       I    between atoms: N2_5  and  C4_6 
REMARK    5  A    between atoms: C4_6  and  C5_8 
REMARK    6  A    between atoms: C9_12  and  N3_13 
REMARK    7  A    between atoms: N3_13  and  C10_14 
REMARK    8  A    between atoms: C13_18  and  C14_19 
REMARK    9  A    between atoms: C14_19  and  C15_20 
ROOT
HETATM    1  C5  UNL     1      28.022   6.189  48.390  1.00  0.00     0.034 A 
HETATM    2  C6  UNL     1      26.947   7.069  48.427  1.00  0.00     0.017 A 
HETATM    3  C7  UNL     1      25.684   6.583  48.782  1.00  0.00     0.003 A 
HETATM    4  C8  UNL     1      25.567   5.220  49.086  1.00  0.00     0.030 A 
HETATM    5  C9  UNL     1      26.626   4.345  49.052  1.00  0.00     0.050 A 
HETATM    6  C20 UNL     1      27.872   4.854  48.694  1.00  0.00     0.047 A 
ENDROOT
BRANCH   5   7
HETATM    7  N3  UNL     1      26.429   2.955  49.386  1.00  0.00    -0.188 N 
HETATM    8  H13 UNL     1      26.470   2.260  48.593  1.00  0.00     0.184 HD
BRANCH   7   9
HETATM    9  C10 UNL     1      26.200   2.740  50.788  1.00  0.00     0.727 A 
HETATM   10  N4  UNL     1      24.924   2.861  51.244  1.00  0.00    -0.075 NA
HETATM   11  C11 UNL     1      24.667   2.664  52.548  1.00  0.00     0.138 A 
HETATM   12  C12 UNL     1      25.687   2.340  53.433  1.00  0.00     0.048 A 
HETATM   13  C13 UNL     1      26.975   2.221  52.961  1.00  0.00     0.059 A 
HETATM   14  N6  UNL     1      27.171   2.426  51.657  1.00  0.00    -0.067 NA
BRANCH  13  15
HETATM   15  C14 UNL     1      28.117   1.873  53.822  1.00  0.00     0.100 C 
BRANCH  15  16
HETATM   16  C15 UNL     1      28.541   0.467  53.631  1.00  0.00    -0.035 A 
HETATM   17  C16 UNL     1      29.822  -0.022  53.603  1.00  0.00     0.010 A 
HETATM   18  C17 UNL     1      30.086  -1.366  53.415  1.00  0.00     0.020 A 
HETATM   19  C18 UNL     1      28.992  -2.225  53.254  1.00  0.00     0.116 A 
HETATM   20  N5  UNL     1      27.759  -1.719  53.286  1.00  0.00    -0.273 NA
HETATM   21  C19 UNL     1      27.471  -0.423  53.465  1.00  0.00     0.123 A 
ENDBRANCH  15  16
ENDBRANCH  13  15
ENDBRANCH   7   9
ENDBRANCH   5   7
BRANCH   1  22
HETATM   22  C4  UNL     1      29.299   6.784  48.019  1.00  0.00     0.251 C 
HETATM   23  N2  UNL     1      30.461   6.935  48.821  1.00  0.00    -0.357 N 
HETATM   24  H9  UNL     1      30.361   6.554  49.809  1.00  0.00     0.162 HD
HETATM   25  O1  UNL     1      29.424   7.235  46.837  1.00  0.00    -0.268 OA
BRANCH  23  26
HETATM   26  C3  UNL     1      31.668   7.558  48.312  1.00  0.00     0.124 C 
BRANCH  26  27
HETATM   27  C2  UNL     1      32.925   6.815  48.641  1.00  0.00     0.049 C 
BRANCH  27  28
HETATM   28  C1  UNL     1      33.425   6.082  47.393  1.00  0.00     0.268 C 
BRANCH  28  29
HETATM   29  N1  UNL     1      34.864   6.103  47.437  1.00  0.00     0.078 N 
HETATM   30  H1  UNL     1      35.253   5.334  47.997  1.00  0.00     0.312 HD
HETATM   31  H2  UNL     1      35.288   6.140  46.474  1.00  0.00     0.312 HD
ENDBRANCH  28  29
ENDBRANCH  27  28
ENDBRANCH  26  27
ENDBRANCH  23  26
ENDBRANCH   1  22
TORSDOF 9
ENDMDL
MODEL 5
REMARK VINA RESULT:      -7.5      1.952      2.508
REMARK  9 active torsions:
REMARK  status: ('A' for Active; 'I' for Inactive)
REMARK    1  A    between atoms: N1_1  and  C1_2 
REMARK    2  A    between atoms: C1_2  and  C2_3 
REMARK    3  A    between atoms: C2_3  and  C3_4 
REMARK    4  A    between atoms: C3_4  and  N2_5 
REMARK       I    between atoms: N2_5  and  C4_6 
REMARK    5  A    between atoms: C4_6  and  C5_8 
REMARK    6  A    between atoms: C9_12  and  N3_13 
REMARK    7  A    between atoms: N3_13  and  C10_14 
REMARK    8  A    between atoms: C13_18  and  C14_19 
REMARK    9  A    between atoms: C14_19  and  C15_20 
ROOT
HETATM    1  C5  UNL     1      25.985   3.035  50.754  1.00  0.00     0.034 A 
HETATM    2  C6  UNL     1      26.782   3.741  49.861  1.00  0.00     0.017 A 
HETATM    3  C7  UNL     1      26.196   4.734  49.067  1.00  0.00     0.003 A 
HETATM    4  C8  UNL     1      24.823   4.967  49.216  1.00  0.00     0.030 A 
HETATM    5  C9  UNL     1      24.030   4.273  50.098  1.00  0.00     0.050 A 
HETATM    6  C20 UNL     1      24.637   3.289  50.875  1.00  0.00     0.047 A 
ENDROOT
BRANCH   5   7
HETATM    7  N3  UNL     1      22.623   4.576  50.200  1.00  0.00    -0.188 N 
HETATM    8  H13 UNL     1      22.360   5.576  50.414  1.00  0.00     0.184 HD
BRANCH   7   9
HETATM    9  C10 UNL     1      21.783   3.428  49.989  1.00  0.00     0.727 A 
HETATM   10  N4  UNL     1      21.654   2.968  48.716  1.00  0.00    -0.075 NA
HETATM   11  C11 UNL     1      20.880   1.896  48.476  1.00  0.00     0.138 A 
HETATM   12  C12 UNL     1      20.213   1.255  49.512  1.00  0.00     0.048 A 
HETATM   13  C13 UNL     1      20.350   1.729  50.797  1.00  0.00     0.059 A 
HETATM   14  N6  UNL     1      21.132   2.797  50.976  1.00  0.00    -0.067 NA
BRANCH  13  15
HETATM   15  C14 UNL     1      19.689   1.110  51.957  1.00  0.00     0.100 C 
BRANCH  15  16
HETATM   16  C15 UNL     1      20.660   0.431  52.845  1.00  0.00    -0.035 A 
HETATM   17  C16 UNL     1      20.618   0.341  54.213  1.00  0.00     0.010 A 
HETATM   18  C17 UNL     1      21.594  -0.327  54.931  1.00  0.00     0.020 A 
HETATM   19  C18 UNL     1      22.639  -0.917  54.209  1.00  0.00     0.116 A 
HETATM   20  N5  UNL     1      22.651  -0.812  52.880  1.00  0.00    -0.273 NA
HETATM   21  C19 UNL     1      21.722  -0.172  52.157  1.00  0.00     0.123 A 
ENDBRANCH  15  16
ENDBRANCH  13  15
ENDBRANCH   7   9
ENDBRANCH   5   7
BRANCH   1  22
HETATM   22  C4  UNL     1      26.681   2.029  51.545  1.00  0.00     0.251 C 
HETATM   23  N2  UNL     1      26.349   0.657  51.704  1.00  0.00    -0.357 N 
HETATM   24  H9  UNL     1      25.485   0.352  51.165  1.00  0.00     0.162 HD
HETATM   25  O1  UNL     1      27.717   2.388  52.187  1.00  0.00    -0.268 OA
BRANCH  23  26
HETATM   26  C3  UNL     1      27.139  -0.230  52.536  1.00  0.00     0.124 C 
BRANCH  26  27
HETATM   27  C2  UNL     1      26.414  -0.746  53.741  1.00  0.00     0.049 C 
BRANCH  27  28
HETATM   28  C1  UNL     1      26.568   0.251  54.892  1.00  0.00     0.268 C 
BRANCH  28  29
HETATM   29  N1  UNL     1      27.922   0.739  54.853  1.00  0.00     0.078 N 
HETATM   30  H1  UNL     1      28.070   1.543  55.477  1.00  0.00     0.312 HD
HETATM   31  H2  UNL     1      28.623  -0.027  55.027  1.00  0.00     0.312 HD
ENDBRANCH  28  29
ENDBRANCH  27  28
ENDBRANCH  26  27
ENDBRANCH  23  26
ENDBRANCH   1  22
TORSDOF 9
ENDMDL
MODEL 6
REMARK VINA RESULT:      -7.4      5.055      7.401
REMARK  9 active torsions:
REMARK  status: ('A' for Active; 'I' for Inactive)
REMARK    1  A    between atoms: N1_1  and  C1_2 
REMARK    2  A    between atoms: C1_2  and  C2_3 
REMARK    3  A    between atoms: C2_3  and  C3_4 
REMARK    4  A    between atoms: C3_4  and  N2_5 
REMARK       I    between atoms: N2_5  and  C4_6 
REMARK    5  A    between atoms: C4_6  and  C5_8 
REMARK    6  A    between atoms: C9_12  and  N3_13 
REMARK    7  A    between atoms: N3_13  and  C10_14 
REMARK    8  A    between atoms: C13_18  and  C14_19 
REMARK    9  A    between atoms: C14_19  and  C15_20 
ROOT
HETATM    1  C5  UNL     1      28.191   5.885  48.445  1.00  0.00     0.034 A 
HETATM    2  C6  UNL     1      27.438   7.041  48.611  1.00  0.00     0.017 A 
HETATM    3  C7  UNL     1      26.115   6.931  49.052  1.00  0.00     0.003 A 
HETATM    4  C8  UNL     1      25.612   5.648  49.307  1.00  0.00     0.030 A 
HETATM    5  C9  UNL     1      26.352   4.501  49.146  1.00  0.00     0.050 A 
HETATM    6  C20 UNL     1      27.666   4.638  48.704  1.00  0.00     0.047 A 
ENDROOT
BRANCH   5   7
HETATM    7  N3  UNL     1      25.767   3.214  49.436  1.00  0.00    -0.188 N 
HETATM    8  H13 UNL     1      25.410   2.652  48.617  1.00  0.00     0.184 HD
BRANCH   7   9
HETATM    9  C10 UNL     1      25.765   2.900  50.838  1.00  0.00     0.727 A 
HETATM   10  N4  UNL     1      24.646   3.204  51.550  1.00  0.00    -0.075 NA
HETATM   11  C11 UNL     1      24.602   2.923  52.864  1.00  0.00     0.138 A 
HETATM   12  C12 UNL     1      25.685   2.330  53.500  1.00  0.00     0.048 A 
HETATM   13  C13 UNL     1      26.812   2.027  52.771  1.00  0.00     0.059 A 
HETATM   14  N6  UNL     1      26.799   2.327  51.470  1.00  0.00    -0.067 NA
BRANCH  13  15
HETATM   15  C14 UNL     1      28.002   1.389  53.358  1.00  0.00     0.100 C 
BRANCH  15  16
HETATM   16  C15 UNL     1      27.985  -0.080  53.174  1.00  0.00    -0.035 A 
HETATM   17  C16 UNL     1      26.964  -0.847  52.673  1.00  0.00     0.010 A 
HETATM   18  C17 UNL     1      27.075  -2.220  52.551  1.00  0.00     0.020 A 
HETATM   19  C18 UNL     1      28.277  -2.811  52.959  1.00  0.00     0.116 A 
HETATM   20  N5  UNL     1      29.250  -2.039  53.443  1.00  0.00    -0.273 NA
HETATM   21  C19 UNL     1      29.173  -0.707  53.573  1.00  0.00     0.123 A 
ENDBRANCH  15  16
ENDBRANCH  13  15
ENDBRANCH   7   9
ENDBRANCH   5   7
BRANCH   1  22
HETATM   22  C4  UNL     1      29.559   6.095  47.992  1.00  0.00     0.251 C 
HETATM   23  N2  UNL     1      30.026   7.006  47.007  1.00  0.00    -0.357 N 
HETATM   24  H9  UNL     1      29.262   7.599  46.566  1.00  0.00     0.162 HD
HETATM   25  O1  UNL     1      30.476   5.391  48.521  1.00  0.00    -0.268 OA
BRANCH  23  26
HETATM   26  C3  UNL     1      31.429   7.099  46.654  1.00  0.00     0.124 C 
BRANCH  26  27
HETATM   27  C2  UNL     1      31.811   8.391  45.999  1.00  0.00     0.049 C 
BRANCH  27  28
HETATM   28  C1  UNL     1      31.000   8.568  44.713  1.00  0.00     0.268 C 
BRANCH  28  29
HETATM   29  N1  UNL     1      31.449   7.562  43.786  1.00  0.00     0.078 N 
HETATM   30  H1  UNL     1      32.348   7.802  43.347  1.00  0.00     0.312 HD
HETATM   31  H2  UNL     1      31.469   6.604  44.220  1.00  0.00     0.312 HD
ENDBRANCH  28  29
ENDBRANCH  27  28
ENDBRANCH  26  27
ENDBRANCH  23  26
ENDBRANCH   1  22
TORSDOF 9
ENDMDL
MODEL 7
REMARK VINA RESULT:      -7.3      4.439      6.297
REMARK  9 active torsions:
REMARK  status: ('A' for Active; 'I' for Inactive)
REMARK    1  A    between atoms: N1_1  and  C1_2 
REMARK    2  A    between atoms: C1_2  and  C2_3 
REMARK    3  A    between atoms: C2_3  and  C3_4 
REMARK    4  A    between atoms: C3_4  and  N2_5 
REMARK       I    between atoms: N2_5  and  C4_6 
REMARK    5  A    between atoms: C4_6  and  C5_8 
REMARK    6  A    between atoms: C9_12  and  N3_13 
REMARK    7  A    between atoms: N3_13  and  C10_14 
REMARK    8  A    between atoms: C13_18  and  C14_19 
REMARK    9  A    between atoms: C14_19  and  C15_20 
ROOT
HETATM    1  C5  UNL     1      27.764   5.820  48.572  1.00  0.00     0.034 A 
HETATM    2  C6  UNL     1      27.412   7.144  48.342  1.00  0.00     0.017 A 
HETATM    3  C7  UNL     1      26.057   7.497  48.357  1.00  0.00     0.003 A 
HETATM    4  C8  UNL     1      25.118   6.488  48.606  1.00  0.00     0.030 A 
HETATM    5  C9  UNL     1      25.461   5.177  48.834  1.00  0.00     0.050 A 
HETATM    6  C20 UNL     1      26.815   4.851  48.813  1.00  0.00     0.047 A 
ENDROOT
BRANCH   5   7
HETATM    7  N3  UNL     1      24.436   4.194  49.091  1.00  0.00    -0.188 N 
HETATM    8  H13 UNL     1      23.823   3.915  48.278  1.00  0.00     0.184 HD
BRANCH   7   9
HETATM    9  C10 UNL     1      24.417   3.743  50.455  1.00  0.00     0.727 A 
HETATM   10  N4  UNL     1      23.889   4.580  51.388  1.00  0.00    -0.075 NA
HETATM   11  C11 UNL     1      23.850   4.196  52.675  1.00  0.00     0.138 A 
HETATM   12  C12 UNL     1      24.343   2.956  53.062  1.00  0.00     0.048 A 
HETATM   13  C13 UNL     1      24.875   2.116  52.110  1.00  0.00     0.059 A 
HETATM   14  N6  UNL     1      24.887   2.551  50.847  1.00  0.00    -0.067 NA
BRANCH  13  15
HETATM   15  C14 UNL     1      25.412   0.782  52.425  1.00  0.00     0.100 C 
BRANCH  15  16
HETATM   16  C15 UNL     1      26.702   0.866  53.147  1.00  0.00    -0.035 A 
HETATM   17  C16 UNL     1      27.111   0.106  54.213  1.00  0.00     0.010 A 
HETATM   18  C17 UNL     1      28.350   0.284  54.802  1.00  0.00     0.020 A 
HETATM   19  C18 UNL     1      29.184   1.275  54.270  1.00  0.00     0.116 A 
HETATM   20  N5  UNL     1      28.756   1.997  53.234  1.00  0.00    -0.273 NA
HETATM   21  C19 UNL     1      27.563   1.849  52.642  1.00  0.00     0.123 A 
ENDBRANCH  15  16
ENDBRANCH  13  15
ENDBRANCH   7   9
ENDBRANCH   5   7
BRANCH   1  22
HETATM   22  C4  UNL     1      29.194   5.545  48.547  1.00  0.00     0.251 C 
HETATM   23  N2  UNL     1      30.236   6.262  49.193  1.00  0.00    -0.357 N 
HETATM   24  H9  UNL     1      29.903   7.095  49.764  1.00  0.00     0.162 HD
HETATM   25  O1  UNL     1      29.597   4.547  47.871  1.00  0.00    -0.268 OA
BRANCH  23  26
HETATM   26  C3  UNL     1      31.627   5.871  49.071  1.00  0.00     0.124 C 
BRANCH  26  27
HETATM   27  C2  UNL     1      32.444   6.777  48.203  1.00  0.00     0.049 C 
BRANCH  27  28
HETATM   28  C1  UNL     1      33.238   5.939  47.198  1.00  0.00     0.268 C 
BRANCH  28  29
HETATM   29  N1  UNL     1      32.337   4.952  46.662  1.00  0.00     0.078 N 
HETATM   30  H1  UNL     1      31.365   5.099  46.964  1.00  0.00     0.312 HD
HETATM   31  H2  UNL     1      32.414   4.873  45.615  1.00  0.00     0.312 HD
ENDBRANCH  28  29
ENDBRANCH  27  28
ENDBRANCH  26  27
ENDBRANCH  23  26
ENDBRANCH   1  22
TORSDOF 9
ENDMDL
MODEL 8
REMARK VINA RESULT:      -7.3      3.226      7.059
REMARK  9 active torsions:
REMARK  status: ('A' for Active; 'I' for Inactive)
REMARK    1  A    between atoms: N1_1  and  C1_2 
REMARK    2  A    between atoms: C1_2  and  C2_3 
REMARK    3  A    between atoms: C2_3  and  C3_4 
REMARK    4  A    between atoms: C3_4  and  N2_5 
REMARK       I    between atoms: N2_5  and  C4_6 
REMARK    5  A    between atoms: C4_6  and  C5_8 
REMARK    6  A    between atoms: C9_12  and  N3_13 
REMARK    7  A    between atoms: N3_13  and  C10_14 
REMARK    8  A    between atoms: C13_18  and  C14_19 
REMARK    9  A    between atoms: C14_19  and  C15_20 
ROOT
HETATM    1  C5  UNL     1      20.408  -0.134  53.094  1.00  0.00     0.034 A 
HETATM    2  C6  UNL     1      21.466  -0.898  53.572  1.00  0.00     0.017 A 
HETATM    3  C7  UNL     1      22.746  -0.332  53.614  1.00  0.00     0.003 A 
HETATM    4  C8  UNL     1      22.895   0.988  53.169  1.00  0.00     0.030 A 
HETATM    5  C9  UNL     1      21.853   1.748  52.696  1.00  0.00     0.050 A 
HETATM    6  C20 UNL     1      20.589   1.161  52.662  1.00  0.00     0.047 A 
ENDROOT
BRANCH   5   7
HETATM    7  N3  UNL     1      22.084   3.104  52.261  1.00  0.00    -0.188 N 
HETATM    8  H13 UNL     1      21.459   3.852  52.667  1.00  0.00     0.184 HD
BRANCH   7   9
HETATM    9  C10 UNL     1      23.159   3.217  51.314  1.00  0.00     0.727 A 
HETATM   10  N4  UNL     1      22.856   3.670  50.068  1.00  0.00    -0.075 NA
HETATM   11  C11 UNL     1      23.833   3.793  49.153  1.00  0.00     0.138 A 
HETATM   12  C12 UNL     1      25.146   3.462  49.467  1.00  0.00     0.048 A 
HETATM   13  C13 UNL     1      25.441   3.005  50.731  1.00  0.00     0.059 A 
HETATM   14  N6  UNL     1      24.431   2.903  51.598  1.00  0.00    -0.067 NA
BRANCH  13  15
HETATM   15  C14 UNL     1      26.802   2.639  51.156  1.00  0.00     0.100 C 
BRANCH  15  16
HETATM   16  C15 UNL     1      26.789   1.593  52.203  1.00  0.00    -0.035 A 
HETATM   17  C16 UNL     1      26.543   0.253  52.041  1.00  0.00     0.010 A 
HETATM   18  C17 UNL     1      26.561  -0.626  53.109  1.00  0.00     0.020 A 
HETATM   19  C18 UNL     1      26.841  -0.101  54.377  1.00  0.00     0.116 A 
HETATM   20  N5  UNL     1      27.075   1.206  54.501  1.00  0.00    -0.273 NA
HETATM   21  C19 UNL     1      27.065   2.083  53.487  1.00  0.00     0.123 A 
ENDBRANCH  15  16
ENDBRANCH  13  15
ENDBRANCH   7   9
ENDBRANCH   5   7
BRANCH   1  22
HETATM   22  C4  UNL     1      19.112  -0.800  53.094  1.00  0.00     0.251 C 
HETATM   23  N2  UNL     1      18.730  -1.972  53.799  1.00  0.00    -0.357 N 
HETATM   24  H9  UNL     1      19.502  -2.393  54.397  1.00  0.00     0.162 HD
HETATM   25  O1  UNL     1      18.185  -0.297  52.386  1.00  0.00    -0.268 OA
BRANCH  23  26
HETATM   26  C3  UNL     1      17.394  -2.526  53.696  1.00  0.00     0.124 C 
BRANCH  26  27
HETATM   27  C2  UNL     1      17.359  -4.013  53.520  1.00  0.00     0.049 C 
BRANCH  27  28
HETATM   28  C1  UNL     1      15.950  -4.444  53.107  1.00  0.00     0.268 C 
BRANCH  28  29
HETATM   29  N1  UNL     1      15.149  -3.250  53.023  1.00  0.00     0.078 N 
HETATM   30  H1  UNL     1      14.974  -2.826  53.943  1.00  0.00     0.312 HD
HETATM   31  H2  UNL     1      15.546  -2.555  52.340  1.00  0.00     0.312 HD
ENDBRANCH  28  29
ENDBRANCH  27  28
ENDBRANCH  26  27
ENDBRANCH  23  26
ENDBRANCH   1  22
TORSDOF 9
ENDMDL
MODEL 9
REMARK VINA RESULT:      -7.2      4.911      7.148
REMARK  9 active torsions:
REMARK  status: ('A' for Active; 'I' for Inactive)
REMARK    1  A    between atoms: N1_1  and  C1_2 
REMARK    2  A    between atoms: C1_2  and  C2_3 
REMARK    3  A    between atoms: C2_3  and  C3_4 
REMARK    4  A    between atoms: C3_4  and  N2_5 
REMARK       I    between atoms: N2_5  and  C4_6 
REMARK    5  A    between atoms: C4_6  and  C5_8 
REMARK    6  A    between atoms: C9_12  and  N3_13 
REMARK    7  A    between atoms: N3_13  and  C10_14 
REMARK    8  A    between atoms: C13_18  and  C14_19 
REMARK    9  A    between atoms: C14_19  and  C15_20 
ROOT
HETATM    1  C5  UNL     1      25.861   7.789  49.605  1.00  0.00     0.034 A 
HETATM    2  C6  UNL     1      25.389   7.586  48.314  1.00  0.00     0.017 A 
HETATM    3  C7  UNL     1      24.262   6.778  48.123  1.00  0.00     0.003 A 
HETATM    4  C8  UNL     1      23.662   6.210  49.254  1.00  0.00     0.030 A 
HETATM    5  C9  UNL     1      24.123   6.408  50.533  1.00  0.00     0.050 A 
HETATM    6  C20 UNL     1      25.247   7.215  50.696  1.00  0.00     0.047 A 
ENDROOT
BRANCH   5   7
HETATM    7  N3  UNL     1      23.447   5.795  51.651  1.00  0.00    -0.188 N 
HETATM    8  H13 UNL     1      22.880   6.429  52.276  1.00  0.00     0.184 HD
BRANCH   7   9
HETATM    9  C10 UNL     1      23.664   4.377  51.732  1.00  0.00     0.727 A 
HETATM   10  N4  UNL     1      22.617   3.601  52.121  1.00  0.00    -0.075 NA
HETATM   11  C11 UNL     1      22.778   2.269  52.208  1.00  0.00     0.138 A 
HETATM   12  C12 UNL     1      23.999   1.680  51.905  1.00  0.00     0.048 A 
HETATM   13  C13 UNL     1      25.052   2.475  51.513  1.00  0.00     0.059 A 
HETATM   14  N6  UNL     1      24.834   3.790  51.445  1.00  0.00    -0.067 NA
BRANCH  13  15
HETATM   15  C14 UNL     1      26.378   1.938  51.165  1.00  0.00     0.100 C 
BRANCH  15  16
HETATM   16  C15 UNL     1      26.985   1.199  52.295  1.00  0.00    -0.035 A 
HETATM   17  C16 UNL     1      27.085  -0.161  52.445  1.00  0.00     0.010 A 
HETATM   18  C17 UNL     1      27.680  -0.730  53.556  1.00  0.00     0.020 A 
HETATM   19  C18 UNL     1      28.185   0.134  54.536  1.00  0.00     0.116 A 
HETATM   20  N5  UNL     1      28.071   1.451  54.361  1.00  0.00    -0.273 NA
HETATM   21  C19 UNL     1      27.501   2.033  53.296  1.00  0.00     0.123 A 
ENDBRANCH  15  16
ENDBRANCH  13  15
ENDBRANCH   7   9
ENDBRANCH   5   7
BRANCH   1  22
HETATM   22  C4  UNL     1      27.031   8.650  49.710  1.00  0.00     0.251 C 
HETATM   23  N2  UNL     1      28.355   8.387  49.268  1.00  0.00    -0.357 N 
HETATM   24  H9  UNL     1      28.479   7.440  48.802  1.00  0.00     0.162 HD
HETATM   25  O1  UNL     1      26.886   9.786  50.261  1.00  0.00    -0.268 OA
BRANCH  23  26
HETATM   26  C3  UNL     1      29.427   9.346  49.448  1.00  0.00     0.124 C 
BRANCH  26  27
HETATM   27  C2  UNL     1      29.800  10.089  48.202  1.00  0.00     0.049 C 
BRANCH  27  28
HETATM   28  C1  UNL     1      29.683  11.594  48.452  1.00  0.00     0.268 C 
BRANCH  28  29
HETATM   29  N1  UNL     1      30.510  11.900  49.591  1.00  0.00     0.078 N 
HETATM   30  H1  UNL     1      30.592  11.111  50.244  1.00  0.00     0.312 HD
HETATM   31  H2  UNL     1      31.453  12.273  49.306  1.00  0.00     0.312 HD
ENDBRANCH  28  29
ENDBRANCH  27  28
ENDBRANCH  26  27
ENDBRANCH  23  26
ENDBRANCH   1  22
TORSDOF 9
ENDMDL
