MODEL 1
REMARK VINA RESULT:      -8.5      0.000      0.000
REMARK  7 active torsions:
REMARK  status: ('A' for Active; 'I' for Inactive)
REMARK    1  A    between atoms: C2_2  and  O1_3 
REMARK    2  A    between atoms: O1_3  and  C3_4 
REMARK    3  A    between atoms: C6_7  and  C7_8 
REMARK    4  A    between atoms: C10_12  and  N2_13 
REMARK    5  A    between atoms: N2_13  and  C11_14 
REMARK    6  A    between atoms: N4_22  and  C18_23 
REMARK    7  A    between atoms: C21_26  and  O2_27 
ROOT
HETATM    1  C7  UNL     1      23.790   1.321  51.165  1.00  0.00     0.158 A 
HETATM    2  C8  UNL     1      23.554   2.716  50.612  1.00  0.00     0.034 A 
HETATM    3  C9  UNL     1      22.813   3.617  49.901  1.00  0.00     0.149 A 
HETATM    4  N1  UNL     1      23.179   4.901  49.830  1.00  0.00    -0.074 NA
HETATM    5  C10 UNL     1      24.260   5.419  50.423  1.00  0.00     0.728 A 
HETATM    6  N3  UNL     1      24.964   4.514  51.109  1.00  0.00    -0.044 NA
HETATM    7  C17 UNL     1      24.675   3.210  51.234  1.00  0.00     0.156 A 
HETATM    8  N4  UNL     1      24.992   1.878  51.710  1.00  0.00    -0.347 N 
ENDROOT
BRANCH   1   9
HETATM    9  C6  UNL     1      22.681   0.936  52.061  1.00  0.00    -0.030 A 
HETATM   10  C5  UNL     1      22.360   0.796  53.384  1.00  0.00     0.012 A 
HETATM   11  C4  UNL     1      21.173   0.353  53.894  1.00  0.00     0.037 A 
HETATM   12  C3  UNL     1      20.168   0.002  53.030  1.00  0.00     0.068 A 
HETATM   13  C24 UNL     1      20.388   0.105  51.687  1.00  0.00     0.037 A 
HETATM   14  C23 UNL     1      21.622   0.564  51.211  1.00  0.00     0.012 A 
BRANCH  12  15
HETATM   15  O1  UNL     1      18.993  -0.437  53.607  1.00  0.00    -0.352 OA
BRANCH  15  16
HETATM   16  C2  UNL     1      18.054  -1.184  52.877  1.00  0.00     0.171 C 
HETATM   17  C1  UNL     1      17.803  -2.495  53.562  1.00  0.00     0.034 C 
ENDBRANCH  15  16
ENDBRANCH  12  15
ENDBRANCH   1   9
BRANCH   8  18
HETATM   18  C18 UNL     1      26.215   1.509  52.396  1.00  0.00     0.089 C 
HETATM   19  C19 UNL     1      26.382  -0.000  52.084  1.00  0.00     0.028 C 
HETATM   20  C20 UNL     1      27.536  -0.306  53.021  1.00  0.00     0.034 C 
HETATM   21  C21 UNL     1      27.156   0.453  54.273  1.00  0.00     0.120 C 
HETATM   22  C22 UNL     1      26.035   1.405  53.885  1.00  0.00     0.057 C 
BRANCH  21  23
HETATM   23  O2  UNL     1      26.760  -0.470  55.223  1.00  0.00    -0.396 OA
HETATM   24  H22 UNL     1      25.775  -0.642  55.158  1.00  0.00     0.210 HD
ENDBRANCH  21  23
ENDBRANCH   8  18
BRANCH   5  25
HETATM   25  N2  UNL     1      24.707   6.762  50.394  1.00  0.00    -0.188 N 
HETATM   26  H10 UNL     1      24.104   7.475  50.861  1.00  0.00     0.184 HD
BRANCH  25  27
HETATM   27  C11 UNL     1      25.899   7.221  49.790  1.00  0.00     0.049 A 
HETATM   28  C12 UNL     1      26.586   8.367  50.046  1.00  0.00     0.030 A 
HETATM   29  C13 UNL     1      27.740   8.761  49.426  1.00  0.00     0.002 A 
HETATM   30  C14 UNL     1      28.291   7.957  48.451  1.00  0.00     0.000 A 
HETATM   31  C15 UNL     1      27.650   6.796  48.150  1.00  0.00     0.002 A 
HETATM   32  C16 UNL     1      26.491   6.446  48.803  1.00  0.00     0.030 A 
ENDBRANCH  25  27
ENDBRANCH   5  25
TORSDOF 7
ENDMDL
MODEL 2
REMARK VINA RESULT:      -8.5      2.937      6.260
REMARK  7 active torsions:
REMARK  status: ('A' for Active; 'I' for Inactive)
REMARK    1  A    between atoms: C2_2  and  O1_3 
REMARK    2  A    between atoms: O1_3  and  C3_4 
REMARK    3  A    between atoms: C6_7  and  C7_8 
REMARK    4  A    between atoms: C10_12  and  N2_13 
REMARK    5  A    between atoms: N2_13  and  C11_14 
REMARK    6  A    between atoms: N4_22  and  C18_23 
REMARK    7  A    between atoms: C21_26  and  O2_27 
ROOT
HETATM    1  C7  UNL     1      24.004   1.992  52.552  1.00  0.00     0.158 A 
HETATM    2  C8  UNL     1      23.896   2.619  51.171  1.00  0.00     0.034 A 
HETATM    3  C9  UNL     1      24.275   3.543  50.239  1.00  0.00     0.149 A 
HETATM    4  N1  UNL     1      23.758   3.523  49.006  1.00  0.00    -0.074 NA
HETATM    5  C10 UNL     1      22.857   2.635  48.572  1.00  0.00     0.728 A 
HETATM    6  N3  UNL     1      22.506   1.746  49.506  1.00  0.00    -0.044 NA
HETATM    7  C17 UNL     1      22.969   1.691  50.763  1.00  0.00     0.156 A 
HETATM    8  N4  UNL     1      22.970   1.113  52.093  1.00  0.00    -0.347 N 
ENDROOT
BRANCH   1   9
HETATM    9  C6  UNL     1      25.370   1.476  52.769  1.00  0.00    -0.030 A 
HETATM   10  C5  UNL     1      26.562   1.270  52.128  1.00  0.00     0.012 A 
HETATM   11  C4  UNL     1      27.685   0.699  52.656  1.00  0.00     0.037 A 
HETATM   12  C3  UNL     1      27.663   0.272  53.959  1.00  0.00     0.068 A 
HETATM   13  C24 UNL     1      26.520   0.431  54.686  1.00  0.00     0.037 A 
HETATM   14  C23 UNL     1      25.393   1.023  54.102  1.00  0.00     0.012 A 
BRANCH  12  15
HETATM   15  O1  UNL     1      28.829  -0.296  54.433  1.00  0.00    -0.352 OA
BRANCH  15  16
HETATM   16  C2  UNL     1      29.762  -0.886  53.565  1.00  0.00     0.171 C 
HETATM   17  C1  UNL     1      29.377  -2.311  53.295  1.00  0.00     0.034 C 
ENDBRANCH  15  16
ENDBRANCH  12  15
ENDBRANCH   1   9
BRANCH   8  18
HETATM   18  C18 UNL     1      22.066   0.075  52.549  1.00  0.00     0.089 C 
HETATM   19  C19 UNL     1      21.400   0.682  53.811  1.00  0.00     0.028 C 
HETATM   20  C20 UNL     1      20.673  -0.554  54.308  1.00  0.00     0.034 C 
HETATM   21  C21 UNL     1      21.701  -1.646  54.107  1.00  0.00     0.120 C 
HETATM   22  C22 UNL     1      22.784  -1.069  53.211  1.00  0.00     0.057 C 
BRANCH  21  23
HETATM   23  O2  UNL     1      22.182  -2.008  55.352  1.00  0.00    -0.396 OA
HETATM   24  H22 UNL     1      22.683  -2.872  55.298  1.00  0.00     0.210 HD
ENDBRANCH  21  23
ENDBRANCH   8  18
BRANCH   5  25
HETATM   25  N2  UNL     1      22.270   2.551  47.286  1.00  0.00    -0.188 N 
HETATM   26  H10 UNL     1      22.253   1.612  46.831  1.00  0.00     0.184 HD
BRANCH  25  27
HETATM   27  C11 UNL     1      21.705   3.628  46.567  1.00  0.00     0.049 A 
HETATM   28  C12 UNL     1      21.874   3.944  45.254  1.00  0.00     0.030 A 
HETATM   29  C13 UNL     1      21.298   5.004  44.609  1.00  0.00     0.002 A 
HETATM   30  C14 UNL     1      20.466   5.851  45.310  1.00  0.00     0.000 A 
HETATM   31  C15 UNL     1      20.258   5.587  46.628  1.00  0.00     0.002 A 
HETATM   32  C16 UNL     1      20.862   4.507  47.231  1.00  0.00     0.030 A 
ENDBRANCH  25  27
ENDBRANCH   5  25
TORSDOF 7
ENDMDL
MODEL 3
REMARK VINA RESULT:      -8.2      4.565      9.316
REMARK  7 active torsions:
REMARK  status: ('A' for Active; 'I' for Inactive)
REMARK    1  A    between atoms: C2_2  and  O1_3 
REMARK    2  A    between atoms: O1_3  and  C3_4 
REMARK    3  A    between atoms: C6_7  and  C7_8 
REMARK    4  A    between atoms: C10_12  and  N2_13 
REMARK    5  A    between atoms: N2_13  and  C11_14 
REMARK    6  A    between atoms: N4_22  and  C18_23 
REMARK    7  A    between atoms: C21_26  and  O2_27 
ROOT
HETATM    1  C7  UNL     1      25.164   5.872  49.043  1.00  0.00     0.158 A 
HETATM    2  C8  UNL     1      25.808   4.578  49.510  1.00  0.00     0.034 A 
HETATM    3  C9  UNL     1      26.782   3.622  49.427  1.00  0.00     0.149 A 
HETATM    4  N1  UNL     1      26.825   2.610  50.299  1.00  0.00    -0.074 NA
HETATM    5  C10 UNL     1      25.959   2.434  51.304  1.00  0.00     0.728 A 
HETATM    6  N3  UNL     1      25.020   3.382  51.359  1.00  0.00    -0.044 NA
HETATM    7  C17 UNL     1      24.899   4.429  50.528  1.00  0.00     0.156 A 
HETATM    8  N4  UNL     1      24.196   5.609  50.066  1.00  0.00    -0.347 N 
ENDROOT
BRANCH   1   9
HETATM    9  C6  UNL     1      26.112   6.995  49.194  1.00  0.00    -0.030 A 
HETATM   10  C5  UNL     1      26.421   8.044  50.016  1.00  0.00     0.012 A 
HETATM   11  C4  UNL     1      27.407   8.970  49.823  1.00  0.00     0.037 A 
HETATM   12  C3  UNL     1      28.194   8.878  48.704  1.00  0.00     0.068 A 
HETATM   13  C24 UNL     1      27.965   7.865  47.819  1.00  0.00     0.037 A 
HETATM   14  C23 UNL     1      26.943   6.939  48.060  1.00  0.00     0.012 A 
BRANCH  12  15
HETATM   15  O1  UNL     1      29.172   9.843  48.566  1.00  0.00    -0.352 OA
BRANCH  15  16
HETATM   16  C2  UNL     1      30.239   9.938  49.474  1.00  0.00     0.171 C 
HETATM   17  C1  UNL     1      31.186   8.792  49.269  1.00  0.00     0.034 C 
ENDBRANCH  15  16
ENDBRANCH  12  15
ENDBRANCH   1   9
BRANCH   8  18
HETATM   18  C18 UNL     1      22.925   6.078  50.586  1.00  0.00     0.089 C 
HETATM   19  C19 UNL     1      21.914   5.761  49.454  1.00  0.00     0.028 C 
HETATM   20  C20 UNL     1      20.704   6.487  50.012  1.00  0.00     0.034 C 
HETATM   21  C21 UNL     1      21.303   7.777  50.530  1.00  0.00     0.120 C 
HETATM   22  C22 UNL     1      22.810   7.577  50.567  1.00  0.00     0.057 C 
BRANCH  21  23
HETATM   23  O2  UNL     1      20.926   8.793  49.670  1.00  0.00    -0.396 OA
HETATM   24  H22 UNL     1      21.682   9.037  49.061  1.00  0.00     0.210 HD
ENDBRANCH  21  23
ENDBRANCH   8  18
BRANCH   5  25
HETATM   25  N2  UNL     1      25.944   1.393  52.264  1.00  0.00    -0.188 N 
HETATM   26  H10 UNL     1      25.016   1.122  52.658  1.00  0.00     0.184 HD
BRANCH  25  27
HETATM   27  C11 UNL     1      27.075   0.688  52.733  1.00  0.00     0.049 A 
HETATM   28  C12 UNL     1      28.208   1.192  53.293  1.00  0.00     0.030 A 
HETATM   29  C13 UNL     1      29.276   0.458  53.731  1.00  0.00     0.002 A 
HETATM   30  C14 UNL     1      29.244  -0.915  53.616  1.00  0.00     0.000 A 
HETATM   31  C15 UNL     1      28.137  -1.479  53.064  1.00  0.00     0.002 A 
HETATM   32  C16 UNL     1      27.089  -0.696  52.638  1.00  0.00     0.030 A 
ENDBRANCH  25  27
ENDBRANCH   5  25
TORSDOF 7
ENDMDL
MODEL 4
REMARK VINA RESULT:      -7.9      2.674      8.225
REMARK  7 active torsions:
REMARK  status: ('A' for Active; 'I' for Inactive)
REMARK    1  A    between atoms: C2_2  and  O1_3 
REMARK    2  A    between atoms: O1_3  and  C3_4 
REMARK    3  A    between atoms: C6_7  and  C7_8 
REMARK    4  A    between atoms: C10_12  and  N2_13 
REMARK    5  A    between atoms: N2_13  and  C11_14 
REMARK    6  A    between atoms: N4_22  and  C18_23 
REMARK    7  A    between atoms: C21_26  and  O2_27 
ROOT
HETATM    1  C7  UNL     1      24.756   3.634  51.251  1.00  0.00     0.158 A 
HETATM    2  C8  UNL     1      23.359   3.563  50.657  1.00  0.00     0.034 A 
HETATM    3  C9  UNL     1      22.261   4.153  50.097  1.00  0.00     0.149 A 
HETATM    4  N1  UNL     1      21.228   3.417  49.676  1.00  0.00    -0.074 NA
HETATM    5  C10 UNL     1      21.162   2.082  49.751  1.00  0.00     0.728 A 
HETATM    6  N3  UNL     1      22.250   1.536  50.303  1.00  0.00    -0.044 NA
HETATM    7  C17 UNL     1      23.328   2.194  50.754  1.00  0.00     0.156 A 
HETATM    8  N4  UNL     1      24.622   2.216  51.408  1.00  0.00    -0.347 N 
ENDROOT
BRANCH   1   9
HETATM    9  C6  UNL     1      25.703   4.181  50.259  1.00  0.00    -0.030 A 
HETATM   10  C5  UNL     1      26.768   3.831  49.475  1.00  0.00     0.012 A 
HETATM   11  C4  UNL     1      27.477   4.653  48.645  1.00  0.00     0.037 A 
HETATM   12  C3  UNL     1      27.120   5.974  48.556  1.00  0.00     0.068 A 
HETATM   13  C24 UNL     1      26.069   6.425  49.300  1.00  0.00     0.037 A 
HETATM   14  C23 UNL     1      25.372   5.544  50.136  1.00  0.00     0.012 A 
BRANCH  12  15
HETATM   15  O1  UNL     1      27.875   6.753  47.701  1.00  0.00    -0.352 OA
BRANCH  15  16
HETATM   16  C2  UNL     1      29.276   6.779  47.780  1.00  0.00     0.171 C 
HETATM   17  C1  UNL     1      29.717   7.921  48.647  1.00  0.00     0.034 C 
ENDBRANCH  15  16
ENDBRANCH  12  15
ENDBRANCH   1   9
BRANCH   8  18
HETATM   18  C18 UNL     1      25.274   1.064  52.000  1.00  0.00     0.089 C 
HETATM   19  C19 UNL     1      24.365   0.689  53.198  1.00  0.00     0.028 C 
HETATM   20  C20 UNL     1      25.255  -0.353  53.849  1.00  0.00     0.034 C 
HETATM   21  C21 UNL     1      26.628   0.276  53.752  1.00  0.00     0.120 C 
HETATM   22  C22 UNL     1      26.512   1.433  52.772  1.00  0.00     0.057 C 
BRANCH  21  23
HETATM   23  O2  UNL     1      26.992   0.693  55.020  1.00  0.00    -0.396 OA
HETATM   24  H22 UNL     1      26.224   1.145  55.475  1.00  0.00     0.210 HD
ENDBRANCH  21  23
ENDBRANCH   8  18
BRANCH   5  25
HETATM   25  N2  UNL     1      20.108   1.239  49.325  1.00  0.00    -0.188 N 
HETATM   26  H10 UNL     1      20.064   1.007  48.309  1.00  0.00     0.184 HD
BRANCH  25  27
HETATM   27  C11 UNL     1      19.111   0.683  50.158  1.00  0.00     0.049 A 
HETATM   28  C12 UNL     1      17.787   0.517  49.889  1.00  0.00     0.030 A 
HETATM   29  C13 UNL     1      16.864  -0.030  50.738  1.00  0.00     0.002 A 
HETATM   30  C14 UNL     1      17.265  -0.465  51.984  1.00  0.00     0.000 A 
HETATM   31  C15 UNL     1      18.577  -0.325  52.311  1.00  0.00     0.002 A 
HETATM   32  C16 UNL     1      19.467   0.233  51.421  1.00  0.00     0.030 A 
ENDBRANCH  25  27
ENDBRANCH   5  25
TORSDOF 7
ENDMDL
MODEL 5
REMARK VINA RESULT:      -7.8      3.193      7.807
REMARK  7 active torsions:
REMARK  status: ('A' for Active; 'I' for Inactive)
REMARK    1  A    between atoms: C2_2  and  O1_3 
REMARK    2  A    between atoms: O1_3  and  C3_4 
REMARK    3  A    between atoms: C6_7  and  C7_8 
REMARK    4  A    between atoms: C10_12  and  N2_13 
REMARK    5  A    between atoms: N2_13  and  C11_14 
REMARK    6  A    between atoms: N4_22  and  C18_23 
REMARK    7  A    between atoms: C21_26  and  O2_27 
ROOT
HETATM    1  C7  UNL     1      23.557   3.505  50.008  1.00  0.00     0.158 A 
HETATM    2  C8  UNL     1      24.979   3.207  50.456  1.00  0.00     0.034 A 
HETATM    3  C9  UNL     1      26.333   3.316  50.307  1.00  0.00     0.149 A 
HETATM    4  N1  UNL     1      27.166   2.791  51.211  1.00  0.00    -0.074 NA
HETATM    5  C10 UNL     1      26.780   2.134  52.311  1.00  0.00     0.728 A 
HETATM    6  N3  UNL     1      25.452   2.043  52.428  1.00  0.00    -0.044 NA
HETATM    7  C17 UNL     1      24.544   2.536  51.572  1.00  0.00     0.156 A 
HETATM    8  N4  UNL     1      23.172   2.717  51.140  1.00  0.00    -0.347 N 
ENDROOT
BRANCH   1   9
HETATM    9  C6  UNL     1      23.320   4.963  50.007  1.00  0.00    -0.030 A 
HETATM   10  C5  UNL     1      22.994   6.005  50.833  1.00  0.00     0.012 A 
HETATM   11  C4  UNL     1      22.810   7.308  50.468  1.00  0.00     0.037 A 
HETATM   12  C3  UNL     1      22.957   7.657  49.151  1.00  0.00     0.068 A 
HETATM   13  C24 UNL     1      23.282   6.689  48.245  1.00  0.00     0.037 A 
HETATM   14  C23 UNL     1      23.461   5.366  48.666  1.00  0.00     0.012 A 
BRANCH  12  15
HETATM   15  O1  UNL     1      22.758   8.989  48.847  1.00  0.00    -0.352 OA
BRANCH  15  16
HETATM   16  C2  UNL     1      23.663   9.698  48.041  1.00  0.00     0.171 C 
HETATM   17  C1  UNL     1      23.022  10.034  46.726  1.00  0.00     0.034 C 
ENDBRANCH  15  16
ENDBRANCH  12  15
ENDBRANCH   1   9
BRANCH   8  18
HETATM   18  C18 UNL     1      22.014   2.118  51.775  1.00  0.00     0.089 C 
HETATM   19  C19 UNL     1      21.148   1.620  50.590  1.00  0.00     0.028 C 
HETATM   20  C20 UNL     1      19.898   1.234  51.359  1.00  0.00     0.034 C 
HETATM   21  C21 UNL     1      19.747   2.376  52.340  1.00  0.00     0.120 C 
HETATM   22  C22 UNL     1      21.061   3.142  52.327  1.00  0.00     0.057 C 
BRANCH  21  23
HETATM   23  O2  UNL     1      18.680   3.151  51.925  1.00  0.00    -0.396 OA
HETATM   24  H22 UNL     1      17.866   2.950  52.473  1.00  0.00     0.210 HD
ENDBRANCH  21  23
ENDBRANCH   8  18
BRANCH   5  25
HETATM   25  N2  UNL     1      27.600   1.556  53.309  1.00  0.00    -0.188 N 
HETATM   26  H10 UNL     1      27.828   2.146  54.140  1.00  0.00     0.184 HD
BRANCH  25  27
HETATM   27  C11 UNL     1      28.136   0.249  53.280  1.00  0.00     0.049 A 
HETATM   28  C12 UNL     1      29.382  -0.159  53.645  1.00  0.00     0.030 A 
HETATM   29  C13 UNL     1      29.847  -1.445  53.595  1.00  0.00     0.002 A 
HETATM   30  C14 UNL     1      29.015  -2.447  53.143  1.00  0.00     0.000 A 
HETATM   31  C15 UNL     1      27.755  -2.102  52.764  1.00  0.00     0.002 A 
HETATM   32  C16 UNL     1      27.336  -0.793  52.833  1.00  0.00     0.030 A 
ENDBRANCH  25  27
ENDBRANCH   5  25
TORSDOF 7
ENDMDL
MODEL 6
REMARK VINA RESULT:      -7.8      2.840      8.250
REMARK  7 active torsions:
REMARK  status: ('A' for Active; 'I' for Inactive)
REMARK    1  A    between atoms: C2_2  and  O1_3 
REMARK    2  A    between atoms: O1_3  and  C3_4 
REMARK    3  A    between atoms: C6_7  and  C7_8 
REMARK    4  A    between atoms: C10_12  and  N2_13 
REMARK    5  A    between atoms: N2_13  and  C11_14 
REMARK    6  A    between atoms: N4_22  and  C18_23 
REMARK    7  A    between atoms: C21_26  and  O2_27 
ROOT
HETATM    1  C7  UNL     1      24.064   2.532  50.502  1.00  0.00     0.158 A 
HETATM    2  C8  UNL     1      22.718   1.832  50.595  1.00  0.00     0.034 A 
HETATM    3  C9  UNL     1      21.955   0.702  50.690  1.00  0.00     0.149 A 
HETATM    4  N1  UNL     1      20.626   0.781  50.809  1.00  0.00    -0.074 NA
HETATM    5  C10 UNL     1      19.931   1.924  50.848  1.00  0.00     0.728 A 
HETATM    6  N3  UNL     1      20.704   3.010  50.752  1.00  0.00    -0.044 NA
HETATM    7  C17 UNL     1      22.039   3.026  50.628  1.00  0.00     0.156 A 
HETATM    8  N4  UNL     1      23.291   3.736  50.450  1.00  0.00    -0.347 N 
ENDROOT
BRANCH   1   9
HETATM    9  C6  UNL     1      24.878   2.227  51.696  1.00  0.00    -0.030 A 
HETATM   10  C5  UNL     1      24.772   1.927  53.027  1.00  0.00     0.012 A 
HETATM   11  C4  UNL     1      25.801   1.728  53.903  1.00  0.00     0.037 A 
HETATM   12  C3  UNL     1      27.090   1.828  53.448  1.00  0.00     0.068 A 
HETATM   13  C24 UNL     1      27.303   2.125  52.133  1.00  0.00     0.037 A 
HETATM   14  C23 UNL     1      26.217   2.320  51.272  1.00  0.00     0.012 A 
BRANCH  12  15
HETATM   15  O1  UNL     1      28.085   1.615  54.381  1.00  0.00    -0.352 OA
BRANCH  15  16
HETATM   16  C2  UNL     1      28.443   0.320  54.787  1.00  0.00     0.171 C 
HETATM   17  C1  UNL     1      29.499  -0.228  53.871  1.00  0.00     0.034 C 
ENDBRANCH  15  16
ENDBRANCH  12  15
ENDBRANCH   1   9
BRANCH   8  18
HETATM   18  C18 UNL     1      23.412   5.164  50.229  1.00  0.00     0.089 C 
HETATM   19  C19 UNL     1      24.457   5.283  49.091  1.00  0.00     0.028 C 
HETATM   20  C20 UNL     1      24.658   6.787  49.114  1.00  0.00     0.034 C 
HETATM   21  C21 UNL     1      24.707   7.091  50.596  1.00  0.00     0.120 C 
HETATM   22  C22 UNL     1      24.193   5.854  51.314  1.00  0.00     0.057 C 
BRANCH  21  23
HETATM   23  O2  UNL     1      26.018   7.386  50.924  1.00  0.00    -0.396 OA
HETATM   24  H22 UNL     1      26.602   7.343  50.111  1.00  0.00     0.210 HD
ENDBRANCH  21  23
ENDBRANCH   8  18
BRANCH   5  25
HETATM   25  N2  UNL     1      18.530   2.084  50.975  1.00  0.00    -0.188 N 
HETATM   26  H10 UNL     1      18.171   3.056  51.102  1.00  0.00     0.184 HD
BRANCH  25  27
HETATM   27  C11 UNL     1      17.576   1.043  50.941  1.00  0.00     0.049 A 
HETATM   28  C12 UNL     1      17.226   0.189  51.942  1.00  0.00     0.030 A 
HETATM   29  C13 UNL     1      16.290  -0.804  51.851  1.00  0.00     0.002 A 
HETATM   30  C14 UNL     1      15.617  -0.993  50.663  1.00  0.00     0.000 A 
HETATM   31  C15 UNL     1      15.923  -0.170  49.624  1.00  0.00     0.002 A 
HETATM   32  C16 UNL     1      16.874   0.815  49.767  1.00  0.00     0.030 A 
ENDBRANCH  25  27
ENDBRANCH   5  25
TORSDOF 7
ENDMDL
MODEL 7
REMARK VINA RESULT:      -7.7      3.638      7.771
REMARK  7 active torsions:
REMARK  status: ('A' for Active; 'I' for Inactive)
REMARK    1  A    between atoms: C2_2  and  O1_3 
REMARK    2  A    between atoms: O1_3  and  C3_4 
REMARK    3  A    between atoms: C6_7  and  C7_8 
REMARK    4  A    between atoms: C10_12  and  N2_13 
REMARK    5  A    between atoms: N2_13  and  C11_14 
REMARK    6  A    between atoms: N4_22  and  C18_23 
REMARK    7  A    between atoms: C21_26  and  O2_27 
ROOT
HETATM    1  C7  UNL     1      23.804   2.803  50.671  1.00  0.00     0.158 A 
HETATM    2  C8  UNL     1      22.381   2.406  51.026  1.00  0.00     0.034 A 
HETATM    3  C9  UNL     1      21.449   1.474  51.385  1.00  0.00     0.149 A 
HETATM    4  N1  UNL     1      20.186   1.831  51.641  1.00  0.00    -0.074 NA
HETATM    5  C10 UNL     1      19.722   3.085  51.578  1.00  0.00     0.728 A 
HETATM    6  N3  UNL     1      20.657   3.972  51.223  1.00  0.00    -0.044 NA
HETATM    7  C17 UNL     1      21.941   3.704  50.948  1.00  0.00     0.156 A 
HETATM    8  N4  UNL     1      23.262   4.120  50.517  1.00  0.00    -0.347 N 
ENDROOT
BRANCH   1   9
HETATM    9  C6  UNL     1      24.711   2.504  51.797  1.00  0.00    -0.030 A 
HETATM   10  C5  UNL     1      24.726   2.327  53.154  1.00  0.00     0.012 A 
HETATM   11  C4  UNL     1      25.820   2.082  53.934  1.00  0.00     0.037 A 
HETATM   12  C3  UNL     1      27.053   1.994  53.339  1.00  0.00     0.068 A 
HETATM   13  C24 UNL     1      27.146   2.156  51.988  1.00  0.00     0.037 A 
HETATM   14  C23 UNL     1      25.996   2.406  51.230  1.00  0.00     0.012 A 
BRANCH  12  15
HETATM   15  O1  UNL     1      28.119   1.743  54.181  1.00  0.00    -0.352 OA
BRANCH  15  16
HETATM   16  C2  UNL     1      28.353   0.461  54.703  1.00  0.00     0.171 C 
HETATM   17  C1  UNL     1      29.447  -0.213  53.928  1.00  0.00     0.034 C 
ENDBRANCH  15  16
ENDBRANCH  12  15
ENDBRANCH   1   9
BRANCH   8  18
HETATM   18  C18 UNL     1      23.607   5.453  50.062  1.00  0.00     0.089 C 
HETATM   19  C19 UNL     1      24.827   5.230  49.132  1.00  0.00     0.028 C 
HETATM   20  C20 UNL     1      25.221   6.679  48.912  1.00  0.00     0.034 C 
HETATM   21  C21 UNL     1      25.073   7.276  50.295  1.00  0.00     0.120 C 
HETATM   22  C22 UNL     1      24.290   6.270  51.124  1.00  0.00     0.057 C 
BRANCH  21  23
HETATM   23  O2  UNL     1      26.342   7.500  50.797  1.00  0.00    -0.396 OA
HETATM   24  H22 UNL     1      26.298   8.054  51.630  1.00  0.00     0.210 HD
ENDBRANCH  21  23
ENDBRANCH   8  18
BRANCH   5  25
HETATM   25  N2  UNL     1      18.406   3.537  51.836  1.00  0.00    -0.188 N 
HETATM   26  H10 UNL     1      18.186   3.829  52.814  1.00  0.00     0.184 HD
BRANCH  25  27
HETATM   27  C11 UNL     1      17.365   3.629  50.885  1.00  0.00     0.049 A 
HETATM   28  C12 UNL     1      17.382   3.246  49.579  1.00  0.00     0.030 A 
HETATM   29  C13 UNL     1      16.339   3.359  48.701  1.00  0.00     0.002 A 
HETATM   30  C14 UNL     1      15.147   3.901  49.134  1.00  0.00     0.000 A 
HETATM   31  C15 UNL     1      15.068   4.303  50.431  1.00  0.00     0.002 A 
HETATM   32  C16 UNL     1      16.147   4.168  51.274  1.00  0.00     0.030 A 
ENDBRANCH  25  27
ENDBRANCH   5  25
TORSDOF 7
ENDMDL
MODEL 8
REMARK VINA RESULT:      -7.7      5.476     10.846
REMARK  7 active torsions:
REMARK  status: ('A' for Active; 'I' for Inactive)
REMARK    1  A    between atoms: C2_2  and  O1_3 
REMARK    2  A    between atoms: O1_3  and  C3_4 
REMARK    3  A    between atoms: C6_7  and  C7_8 
REMARK    4  A    between atoms: C10_12  and  N2_13 
REMARK    5  A    between atoms: N2_13  and  C11_14 
REMARK    6  A    between atoms: N4_22  and  C18_23 
REMARK    7  A    between atoms: C21_26  and  O2_27 
ROOT
HETATM    1  C7  UNL     1      28.842   7.945  47.698  1.00  0.00     0.158 A 
HETATM    2  C8  UNL     1      27.645   7.248  48.322  1.00  0.00     0.034 A 
HETATM    3  C9  UNL     1      26.766   6.204  48.396  1.00  0.00     0.149 A 
HETATM    4  N1  UNL     1      25.835   6.160  49.353  1.00  0.00    -0.074 NA
HETATM    5  C10 UNL     1      25.672   7.089  50.302  1.00  0.00     0.728 A 
HETATM    6  N3  UNL     1      26.544   8.096  50.203  1.00  0.00    -0.044 NA
HETATM    7  C17 UNL     1      27.507   8.225  49.278  1.00  0.00     0.156 A 
HETATM    8  N4  UNL     1      28.587   8.972  48.663  1.00  0.00    -0.347 N 
ENDROOT
BRANCH   1   9
HETATM    9  C6  UNL     1      30.045   7.096  47.822  1.00  0.00    -0.030 A 
HETATM   10  C5  UNL     1      30.577   6.080  48.567  1.00  0.00     0.012 A 
HETATM   11  C4  UNL     1      31.815   5.522  48.420  1.00  0.00     0.037 A 
HETATM   12  C3  UNL     1      32.645   5.995  47.437  1.00  0.00     0.068 A 
HETATM   13  C24 UNL     1      32.208   7.011  46.638  1.00  0.00     0.037 A 
HETATM   14  C23 UNL     1      30.930   7.552  46.826  1.00  0.00     0.012 A 
BRANCH  12  15
HETATM   15  O1  UNL     1      33.883   5.390  47.340  1.00  0.00    -0.352 OA
BRANCH  15  16
HETATM   16  C2  UNL     1      34.774   5.368  48.424  1.00  0.00     0.171 C 
HETATM   17  C1  UNL     1      35.418   6.715  48.582  1.00  0.00     0.034 C 
ENDBRANCH  15  16
ENDBRANCH  12  15
ENDBRANCH   1   9
BRANCH   8  18
HETATM   18  C18 UNL     1      28.994  10.311  49.043  1.00  0.00     0.089 C 
HETATM   19  C19 UNL     1      28.846  11.135  47.738  1.00  0.00     0.028 C 
HETATM   20  C20 UNL     1      29.503  12.423  48.200  1.00  0.00     0.034 C 
HETATM   21  C21 UNL     1      30.703  11.923  48.975  1.00  0.00     0.120 C 
HETATM   22  C22 UNL     1      30.483  10.438  49.213  1.00  0.00     0.057 C 
BRANCH  21  23
HETATM   23  O2  UNL     1      31.831  12.175  48.216  1.00  0.00    -0.396 OA
HETATM   24  H22 UNL     1      32.424  12.838  48.676  1.00  0.00     0.210 HD
ENDBRANCH  21  23
ENDBRANCH   8  18
BRANCH   5  25
HETATM   25  N2  UNL     1      24.714   7.108  51.344  1.00  0.00    -0.188 N 
HETATM   26  H10 UNL     1      24.840   7.822  52.094  1.00  0.00     0.184 HD
BRANCH  25  27
HETATM   27  C11 UNL     1      23.602   6.243  51.456  1.00  0.00     0.049 A 
HETATM   28  C12 UNL     1      23.506   5.081  52.156  1.00  0.00     0.030 A 
HETATM   29  C13 UNL     1      22.398   4.282  52.229  1.00  0.00     0.002 A 
HETATM   30  C14 UNL     1      21.255   4.648  51.549  1.00  0.00     0.000 A 
HETATM   31  C15 UNL     1      21.289   5.802  50.830  1.00  0.00     0.002 A 
HETATM   32  C16 UNL     1      22.430   6.570  50.789  1.00  0.00     0.030 A 
ENDBRANCH  25  27
ENDBRANCH   5  25
TORSDOF 7
ENDMDL
MODEL 9
REMARK VINA RESULT:      -7.3      5.156      9.816
REMARK  7 active torsions:
REMARK  status: ('A' for Active; 'I' for Inactive)
REMARK    1  A    between atoms: C2_2  and  O1_3 
REMARK    2  A    between atoms: O1_3  and  C3_4 
REMARK    3  A    between atoms: C6_7  and  C7_8 
REMARK    4  A    between atoms: C10_12  and  N2_13 
REMARK    5  A    between atoms: N2_13  and  C11_14 
REMARK    6  A    between atoms: N4_22  and  C18_23 
REMARK    7  A    between atoms: C21_26  and  O2_27 
ROOT
HETATM    1  C7  UNL     1      18.820   0.349  51.195  1.00  0.00     0.158 A 
HETATM    2  C8  UNL     1      17.473  -0.176  51.662  1.00  0.00     0.034 A 
HETATM    3  C9  UNL     1      16.641  -1.199  52.021  1.00  0.00     0.149 A 
HETATM    4  N1  UNL     1      15.400  -0.954  52.454  1.00  0.00    -0.074 NA
HETATM    5  C10 UNL     1      14.865   0.266  52.579  1.00  0.00     0.728 A 
HETATM    6  N3  UNL     1      15.702   1.244  52.220  1.00  0.00    -0.044 NA
HETATM    7  C17 UNL     1      16.957   1.092  51.774  1.00  0.00     0.156 A 
HETATM    8  N4  UNL     1      18.193   1.635  51.246  1.00  0.00    -0.347 N 
ENDROOT
BRANCH   1   9
HETATM    9  C6  UNL     1      19.869  -0.003  52.174  1.00  0.00    -0.030 A 
HETATM   10  C5  UNL     1      20.044  -0.441  53.458  1.00  0.00     0.012 A 
HETATM   11  C4  UNL     1      21.235  -0.637  54.098  1.00  0.00     0.037 A 
HETATM   12  C3  UNL     1      22.401  -0.383  53.424  1.00  0.00     0.068 A 
HETATM   13  C24 UNL     1      22.335   0.060  52.136  1.00  0.00     0.037 A 
HETATM   14  C23 UNL     1      21.091   0.246  51.520  1.00  0.00     0.012 A 
BRANCH  12  15
HETATM   15  O1  UNL     1      23.571  -0.601  54.126  1.00  0.00    -0.352 OA
BRANCH  15  16
HETATM   16  C2  UNL     1      24.754   0.083  53.805  1.00  0.00     0.171 C 
HETATM   17  C1  UNL     1      25.757  -0.874  53.231  1.00  0.00     0.034 C 
ENDBRANCH  15  16
ENDBRANCH  12  15
ENDBRANCH   1   9
BRANCH   8  18
HETATM   18  C18 UNL     1      18.409   3.027  50.902  1.00  0.00     0.089 C 
HETATM   19  C19 UNL     1      18.962   2.977  49.454  1.00  0.00     0.028 C 
HETATM   20  C20 UNL     1      19.352   4.435  49.301  1.00  0.00     0.034 C 
HETATM   21  C21 UNL     1      19.987   4.749  50.639  1.00  0.00     0.120 C 
HETATM   22  C22 UNL     1      19.620   3.610  51.577  1.00  0.00     0.057 C 
BRANCH  21  23
HETATM   23  O2  UNL     1      21.352   4.854  50.443  1.00  0.00    -0.396 OA
HETATM   24  H22 UNL     1      21.641   5.812  50.484  1.00  0.00     0.210 HD
ENDBRANCH  21  23
ENDBRANCH   8  18
BRANCH   5  25
HETATM   25  N2  UNL     1      13.566   0.602  53.031  1.00  0.00    -0.188 N 
HETATM   26  H10 UNL     1      12.859  -0.165  53.062  1.00  0.00     0.184 HD
BRANCH  25  27
HETATM   27  C11 UNL     1      13.144   1.885  53.445  1.00  0.00     0.049 A 
HETATM   28  C12 UNL     1      13.509   3.095  52.940  1.00  0.00     0.030 A 
HETATM   29  C13 UNL     1      13.066   4.311  53.383  1.00  0.00     0.002 A 
HETATM   30  C14 UNL     1      12.170   4.363  54.430  1.00  0.00     0.000 A 
HETATM   31  C15 UNL     1      11.767   3.185  54.977  1.00  0.00     0.002 A 
HETATM   32  C16 UNL     1      12.243   1.988  54.495  1.00  0.00     0.030 A 
ENDBRANCH  25  27
ENDBRANCH   5  25
TORSDOF 7
ENDMDL
