MODEL 1
REMARK VINA RESULT:      -8.6      0.000      0.000
REMARK  0 active torsions:
REMARK  status: ('A' for Active; 'I' for Inactive)
ROOT
HETATM    1  C1  UNL     1      29.149  -0.845  54.043  1.00  0.00     0.030 C 
HETATM    2  C2  UNL     1      27.836  -0.060  53.924  1.00  0.00     0.037 A 
HETATM    3  C3  UNL     1      26.507  -0.470  53.721  1.00  0.00     0.103 A 
HETATM    4  C4  UNL     1      25.143  -1.097  53.495  1.00  0.00     0.016 C 
HETATM    5  C5  UNL     1      24.090  -0.243  53.291  1.00  0.00    -0.019 C 
HETATM    6  C6  UNL     1      23.442   1.040  53.124  1.00  0.00     0.077 C 
HETATM    7  S1  UNL     1      24.360   2.557  52.815  1.00  0.00    -0.242 SA
HETATM    8  C7  UNL     1      23.589   3.965  52.847  1.00  0.00    -0.007 C 
HETATM    9  C8  UNL     1      24.071   4.771  51.949  1.00  0.00     0.061 C 
HETATM   10  C9  UNL     1      24.811   4.988  50.869  1.00  0.00     0.022 C 
HETATM   11  C10 UNL     1      25.442   5.418  49.830  1.00  0.00    -0.020 C 
HETATM   12  C11 UNL     1      26.333   4.663  48.986  1.00  0.00     0.008 C 
HETATM   13  C12 UNL     1      26.423   3.348  49.374  1.00  0.00     0.057 C 
HETATM   14  N1  UNL     1      25.623   2.995  50.498  1.00  0.00    -0.295 NA
HETATM   15  C13 UNL     1      24.503   2.548  51.280  1.00  0.00     0.141 C 
HETATM   16  C14 UNL     1      26.108   2.359  53.214  1.00  0.00    -0.040 C 
HETATM   17  C15 UNL     1      27.397   2.527  53.432  1.00  0.00    -0.012 C 
HETATM   18  C16 UNL     1      28.293   1.346  53.876  1.00  0.00     0.051 C 
HETATM   19  C17 UNL     1      26.208   1.152  54.071  1.00  0.00     0.137 A 
HETATM   20  S2  UNL     1      26.473   0.359  52.496  1.00  0.00    -0.180 SA
HETATM   21  C18 UNL     1      27.110  -1.154  51.966  1.00  0.00     0.229 A 
HETATM   22  O1  UNL     1      27.044  -1.789  53.453  1.00  0.00    -0.360 OA
HETATM   23  H8  UNL     1      24.311   2.915  54.129  1.00  0.00     0.079 HD
HETATM   24  H14 UNL     1      25.119   2.874  49.537  1.00  0.00     0.127 HD
ENDROOT
TORSDOF 0
ENDMDL
MODEL 2
REMARK VINA RESULT:      -8.2      2.171      5.392
REMARK  0 active torsions:
REMARK  status: ('A' for Active; 'I' for Inactive)
ROOT
HETATM    1  C1  UNL     1      23.671   5.149  49.998  1.00  0.00     0.030 C 
HETATM    2  C2  UNL     1      23.925   3.758  50.593  1.00  0.00     0.037 A 
HETATM    3  C3  UNL     1      23.232   3.001  51.553  1.00  0.00     0.103 A 
HETATM    4  C4  UNL     1      22.359   2.337  52.603  1.00  0.00     0.016 C 
HETATM    5  C5  UNL     1      22.797   1.144  53.115  1.00  0.00    -0.019 C 
HETATM    6  C6  UNL     1      23.708   0.032  53.282  1.00  0.00     0.077 C 
HETATM    7  S1  UNL     1      25.407   0.073  52.689  1.00  0.00    -0.242 SA
HETATM    8  C7  UNL     1      26.288  -1.269  52.727  1.00  0.00    -0.007 C 
HETATM    9  C8  UNL     1      27.525  -0.995  53.015  1.00  0.00     0.061 C 
HETATM   10  C9  UNL     1      28.449  -0.152  53.459  1.00  0.00     0.022 C 
HETATM   11  C10 UNL     1      29.493   0.481  53.874  1.00  0.00    -0.020 C 
HETATM   12  C11 UNL     1      29.562   1.862  54.280  1.00  0.00     0.008 C 
HETATM   13  C12 UNL     1      28.334   2.477  54.232  1.00  0.00     0.057 C 
HETATM   14  N1  UNL     1      27.257   1.642  53.817  1.00  0.00    -0.295 NA
HETATM   15  C13 UNL     1      26.152   0.725  53.871  1.00  0.00     0.141 C 
HETATM   16  C14 UNL     1      25.653   1.404  51.496  1.00  0.00    -0.040 C 
HETATM   17  C15 UNL     1      26.128   2.249  50.603  1.00  0.00    -0.012 C 
HETATM   18  C16 UNL     1      25.257   3.406  50.055  1.00  0.00     0.051 C 
HETATM   19  C17 UNL     1      24.302   1.807  51.034  1.00  0.00     0.137 A 
HETATM   20  S2  UNL     1      24.463   2.973  52.373  1.00  0.00    -0.180 SA
HETATM   21  C18 UNL     1      23.679   4.438  52.837  1.00  0.00     0.229 A 
HETATM   22  O1  UNL     1      22.453   4.197  51.809  1.00  0.00    -0.360 OA
HETATM   23  H8  UNL     1      25.082  -0.607  51.554  1.00  0.00     0.079 HD
HETATM   24  H14 UNL     1      27.428   1.645  54.895  1.00  0.00     0.127 HD
ENDROOT
TORSDOF 0
ENDMDL
MODEL 3
REMARK VINA RESULT:      -7.6      3.255      6.016
REMARK  0 active torsions:
REMARK  status: ('A' for Active; 'I' for Inactive)
ROOT
HETATM    1  C1  UNL     1      23.941   6.077  50.284  1.00  0.00     0.030 C 
HETATM    2  C2  UNL     1      23.764   4.802  51.120  1.00  0.00     0.037 A 
HETATM    3  C3  UNL     1      24.544   3.640  51.246  1.00  0.00     0.103 A 
HETATM    4  C4  UNL     1      25.509   2.467  51.249  1.00  0.00     0.016 C 
HETATM    5  C5  UNL     1      25.137   1.356  51.961  1.00  0.00    -0.019 C 
HETATM    6  C6  UNL     1      24.267   0.543  52.782  1.00  0.00     0.077 C 
HETATM    7  S1  UNL     1      22.528   0.932  53.034  1.00  0.00    -0.242 SA
HETATM    8  C7  UNL     1      21.683   0.102  54.119  1.00  0.00    -0.007 C 
HETATM    9  C8  UNL     1      20.465  -0.082  53.706  1.00  0.00     0.061 C 
HETATM   10  C9  UNL     1      19.558  -0.062  52.737  1.00  0.00     0.022 C 
HETATM   11  C10 UNL     1      18.534  -0.143  51.958  1.00  0.00    -0.020 C 
HETATM   12  C11 UNL     1      18.464   0.266  50.578  1.00  0.00     0.008 C 
HETATM   13  C12 UNL     1      19.670   0.733  50.115  1.00  0.00     0.057 C 
HETATM   14  N1  UNL     1      20.732   0.706  51.064  1.00  0.00    -0.295 NA
HETATM   15  C13 UNL     1      21.859   0.244  51.828  1.00  0.00     0.141 C 
HETATM   16  C14 UNL     1      22.163   2.635  52.564  1.00  0.00    -0.040 C 
HETATM   17  C15 UNL     1      21.603   3.806  52.332  1.00  0.00    -0.012 C 
HETATM   18  C16 UNL     1      22.404   4.959  51.680  1.00  0.00     0.051 C 
HETATM   19  C17 UNL     1      23.466   3.342  52.507  1.00  0.00     0.137 A 
HETATM   20  S2  UNL     1      23.379   2.848  50.797  1.00  0.00    -0.180 SA
HETATM   21  C18 UNL     1      24.162   3.317  49.333  1.00  0.00     0.229 A 
HETATM   22  O1  UNL     1      25.313   4.137  50.122  1.00  0.00    -0.360 OA
HETATM   23  H8  UNL     1      22.783   1.533  54.230  1.00  0.00     0.079 HD
HETATM   24  H14 UNL     1      20.642  -0.205  50.471  1.00  0.00     0.127 HD
ENDROOT
TORSDOF 0
ENDMDL
MODEL 4
REMARK VINA RESULT:      -7.5      3.230      6.694
REMARK  0 active torsions:
REMARK  status: ('A' for Active; 'I' for Inactive)
ROOT
HETATM    1  C1  UNL     1      21.900   7.697  49.425  1.00  0.00     0.030 C 
HETATM    2  C2  UNL     1      22.814   6.631  50.045  1.00  0.00     0.037 A 
HETATM    3  C3  UNL     1      24.023   6.059  49.614  1.00  0.00     0.103 A 
HETATM    4  C4  UNL     1      25.312   5.555  48.988  1.00  0.00     0.016 C 
HETATM    5  C5  UNL     1      25.944   4.513  49.615  1.00  0.00    -0.019 C 
HETATM    6  C6  UNL     1      26.119   3.483  50.616  1.00  0.00     0.077 C 
HETATM    7  S1  UNL     1      24.789   2.958  51.710  1.00  0.00    -0.242 SA
HETATM    8  C7  UNL     1      25.116   1.961  52.926  1.00  0.00    -0.007 C 
HETATM    9  C8  UNL     1      24.135   1.129  53.110  1.00  0.00     0.061 C 
HETATM   10  C9  UNL     1      23.012   0.557  52.696  1.00  0.00     0.022 C 
HETATM   11  C10 UNL     1      21.945  -0.135  52.486  1.00  0.00    -0.020 C 
HETATM   12  C11 UNL     1      21.031  -0.002  51.380  1.00  0.00     0.008 C 
HETATM   13  C12 UNL     1      21.444   0.952  50.481  1.00  0.00     0.057 C 
HETATM   14  N1  UNL     1      22.674   1.594  50.805  1.00  0.00    -0.295 NA
HETATM   15  C13 UNL     1      24.082   1.876  50.871  1.00  0.00     0.141 C 
HETATM   16  C14 UNL     1      23.443   4.158  51.728  1.00  0.00    -0.040 C 
HETATM   17  C15 UNL     1      22.338   4.837  51.964  1.00  0.00    -0.012 C 
HETATM   18  C16 UNL     1      22.021   6.142  51.194  1.00  0.00     0.051 C 
HETATM   19  C17 UNL     1      23.996   5.418  51.173  1.00  0.00     0.137 A 
HETATM   20  S2  UNL     1      23.370   4.732  49.651  1.00  0.00    -0.180 SA
HETATM   21  C18 UNL     1      23.001   5.342  48.080  1.00  0.00     0.229 A 
HETATM   22  O1  UNL     1      23.791   6.729  48.350  1.00  0.00    -0.360 OA
HETATM   23  H8  UNL     1      25.238   3.754  52.721  1.00  0.00     0.079 HD
HETATM   24  H14 UNL     1      22.787   0.697  50.194  1.00  0.00     0.127 HD
ENDROOT
TORSDOF 0
ENDMDL
MODEL 5
REMARK VINA RESULT:      -7.3      2.884      5.186
REMARK  0 active torsions:
REMARK  status: ('A' for Active; 'I' for Inactive)
ROOT
HETATM    1  C1  UNL     1      19.056   0.233  50.950  1.00  0.00     0.030 C 
HETATM    2  C2  UNL     1      20.538   0.627  50.989  1.00  0.00     0.037 A 
HETATM    3  C3  UNL     1      21.523   0.495  51.983  1.00  0.00     0.103 A 
HETATM    4  C4  UNL     1      22.446   0.272  53.168  1.00  0.00     0.016 C 
HETATM    5  C5  UNL     1      23.710   0.793  53.082  1.00  0.00    -0.019 C 
HETATM    6  C6  UNL     1      24.798   1.529  52.473  1.00  0.00     0.077 C 
HETATM    7  S1  UNL     1      24.559   2.625  51.065  1.00  0.00    -0.242 SA
HETATM    8  C7  UNL     1      25.841   3.243  50.321  1.00  0.00    -0.007 C 
HETATM    9  C8  UNL     1      25.599   4.458  49.928  1.00  0.00     0.061 C 
HETATM   10  C9  UNL     1      24.853   5.555  49.956  1.00  0.00     0.022 C 
HETATM   11  C10 UNL     1      24.300   6.714  49.850  1.00  0.00    -0.020 C 
HETATM   12  C11 UNL     1      23.052   7.134  50.436  1.00  0.00     0.008 C 
HETATM   13  C12 UNL     1      22.486   6.148  51.208  1.00  0.00     0.057 C 
HETATM   14  N1  UNL     1      23.236   4.940  51.289  1.00  0.00    -0.295 NA
HETATM   15  C13 UNL     1      24.179   3.955  51.746  1.00  0.00     0.141 C 
HETATM   16  C14 UNL     1      22.978   2.317  50.255  1.00  0.00    -0.040 C 
HETATM   17  C15 UNL     1      21.930   2.312  49.455  1.00  0.00    -0.012 C 
HETATM   18  C16 UNL     1      20.707   1.408  49.744  1.00  0.00     0.051 C 
HETATM   19  C17 UNL     1      22.524   0.982  50.716  1.00  0.00     0.137 A 
HETATM   20  S2  UNL     1      21.701   1.963  51.956  1.00  0.00    -0.180 SA
HETATM   21  C18 UNL     1      20.415   1.712  53.079  1.00  0.00     0.229 A 
HETATM   22  O1  UNL     1      20.450   0.107  52.876  1.00  0.00    -0.360 OA
HETATM   23  H8  UNL     1      24.964   1.667  50.185  1.00  0.00     0.079 HD
HETATM   24  H14 UNL     1      23.481   5.669  52.063  1.00  0.00     0.127 HD
ENDROOT
TORSDOF 0
ENDMDL
MODEL 6
REMARK VINA RESULT:      -7.2      8.139      9.784
REMARK  0 active torsions:
REMARK  status: ('A' for Active; 'I' for Inactive)
ROOT
HETATM    1  C1  UNL     1      35.037   3.762  47.373  1.00  0.00     0.030 C 
HETATM    2  C2  UNL     1      33.905   4.692  47.829  1.00  0.00     0.037 A 
HETATM    3  C3  UNL     1      32.508   4.612  47.698  1.00  0.00     0.103 A 
HETATM    4  C4  UNL     1      31.030   4.357  47.458  1.00  0.00     0.016 C 
HETATM    5  C5  UNL     1      30.158   5.349  47.824  1.00  0.00    -0.019 C 
HETATM    6  C6  UNL     1      29.771   6.645  48.340  1.00  0.00     0.077 C 
HETATM    7  S1  UNL     1      30.947   7.989  48.566  1.00  0.00    -0.242 SA
HETATM    8  C7  UNL     1      30.482   9.322  49.332  1.00  0.00    -0.007 C 
HETATM    9  C8  UNL     1      31.037  10.370  48.802  1.00  0.00     0.061 C 
HETATM   10  C9  UNL     1      31.708  10.948  47.814  1.00  0.00     0.022 C 
HETATM   11  C10 UNL     1      32.318  11.710  46.972  1.00  0.00    -0.020 C 
HETATM   12  C11 UNL     1      32.960  11.305  45.747  1.00  0.00     0.008 C 
HETATM   13  C12 UNL     1      32.816   9.960  45.508  1.00  0.00     0.057 C 
HETATM   14  N1  UNL     1      32.063   9.250  46.487  1.00  0.00    -0.295 NA
HETATM   15  C13 UNL     1      30.949   8.659  47.177  1.00  0.00     0.141 C 
HETATM   16  C14 UNL     1      32.646   7.386  48.537  1.00  0.00    -0.040 C 
HETATM   17  C15 UNL     1      33.956   7.252  48.584  1.00  0.00    -0.012 C 
HETATM   18  C16 UNL     1      34.631   5.885  48.316  1.00  0.00     0.051 C 
HETATM   19  C17 UNL     1      32.575   5.921  48.758  1.00  0.00     0.137 A 
HETATM   20  S2  UNL     1      32.534   5.904  46.976  1.00  0.00    -0.180 SA
HETATM   21  C18 UNL     1      32.802   4.724  45.745  1.00  0.00     0.229 A 
HETATM   22  O1  UNL     1      32.741   3.499  46.800  1.00  0.00    -0.360 OA
HETATM   23  H8  UNL     1      31.087   7.712  49.892  1.00  0.00     0.079 HD
HETATM   24  H14 UNL     1      31.463   9.653  45.669  1.00  0.00     0.127 HD
ENDROOT
TORSDOF 0
ENDMDL
MODEL 7
REMARK VINA RESULT:      -7.1      3.748      6.699
REMARK  0 active torsions:
REMARK  status: ('A' for Active; 'I' for Inactive)
ROOT
HETATM    1  C1  UNL     1      21.947   4.380  46.201  1.00  0.00     0.030 C 
HETATM    2  C2  UNL     1      21.739   3.916  47.649  1.00  0.00     0.037 A 
HETATM    3  C3  UNL     1      21.371   4.604  48.817  1.00  0.00     0.103 A 
HETATM    4  C4  UNL     1      20.970   5.512  49.967  1.00  0.00     0.016 C 
HETATM    5  C5  UNL     1      20.945   4.957  51.220  1.00  0.00    -0.019 C 
HETATM    6  C6  UNL     1      21.114   3.912  52.206  1.00  0.00     0.077 C 
HETATM    7  S1  UNL     1      22.017   2.392  51.864  1.00  0.00    -0.242 SA
HETATM    8  C7  UNL     1      21.984   1.198  52.937  1.00  0.00    -0.007 C 
HETATM    9  C8  UNL     1      23.133   0.592  52.981  1.00  0.00     0.061 C 
HETATM   10  C9  UNL     1      24.426   0.544  52.686  1.00  0.00     0.022 C 
HETATM   11  C10 UNL     1      25.684   0.303  52.537  1.00  0.00    -0.020 C 
HETATM   12  C11 UNL     1      26.628   1.080  51.774  1.00  0.00     0.008 C 
HETATM   13  C12 UNL     1      26.051   2.199  51.223  1.00  0.00     0.057 C 
HETATM   14  N1  UNL     1      24.670   2.375  51.523  1.00  0.00    -0.295 NA
HETATM   15  C13 UNL     1      23.469   2.793  52.193  1.00  0.00     0.141 C 
HETATM   16  C14 UNL     1      22.238   2.146  50.091  1.00  0.00    -0.040 C 
HETATM   17  C15 UNL     1      22.531   1.688  48.891  1.00  0.00    -0.012 C 
HETATM   18  C16 UNL     1      22.218   2.516  47.620  1.00  0.00     0.051 C 
HETATM   19  C17 UNL     1      21.257   3.034  49.419  1.00  0.00     0.137 A 
HETATM   20  S2  UNL     1      22.638   4.162  49.439  1.00  0.00    -0.180 SA
HETATM   21  C18 UNL     1      23.058   5.616  48.611  1.00  0.00     0.229 A 
HETATM   22  O1  UNL     1      21.553   5.823  48.054  1.00  0.00    -0.360 OA
HETATM   23  H8  UNL     1      20.867   1.706  51.609  1.00  0.00     0.079 HD
HETATM   24  H14 UNL     1      25.345   2.844  52.241  1.00  0.00     0.127 HD
ENDROOT
TORSDOF 0
ENDMDL
MODEL 8
REMARK VINA RESULT:      -7.1      9.024     11.380
REMARK  0 active torsions:
REMARK  status: ('A' for Active; 'I' for Inactive)
ROOT
HETATM    1  C1  UNL     1      28.528   9.188  47.882  1.00  0.00     0.030 C 
HETATM    2  C2  UNL     1      30.037   8.935  47.995  1.00  0.00     0.037 A 
HETATM    3  C3  UNL     1      31.139   9.480  47.313  1.00  0.00     0.103 A 
HETATM    4  C4  UNL     1      32.197  10.174  46.473  1.00  0.00     0.016 C 
HETATM    5  C5  UNL     1      33.490   9.742  46.617  1.00  0.00    -0.019 C 
HETATM    6  C6  UNL     1      34.556   8.912  47.136  1.00  0.00     0.077 C 
HETATM    7  S1  UNL     1      34.247   7.372  48.015  1.00  0.00    -0.242 SA
HETATM    8  C7  UNL     1      35.468   6.617  48.735  1.00  0.00    -0.007 C 
HETATM    9  C8  UNL     1      35.329   5.329  48.639  1.00  0.00     0.061 C 
HETATM   10  C9  UNL     1      34.745   4.267  48.098  1.00  0.00     0.022 C 
HETATM   11  C10 UNL     1      34.338   3.111  47.697  1.00  0.00    -0.020 C 
HETATM   12  C11 UNL     1      33.262   2.846  46.776  1.00  0.00     0.008 C 
HETATM   13  C12 UNL     1      32.699   4.001  46.292  1.00  0.00     0.057 C 
HETATM   14  N1  UNL     1      33.288   5.207  46.770  1.00  0.00    -0.295 NA
HETATM   15  C13 UNL     1      34.154   6.351  46.864  1.00  0.00     0.141 C 
HETATM   16  C14 UNL     1      32.533   7.264  48.564  1.00  0.00    -0.040 C 
HETATM   17  C15 UNL     1      31.382   6.911  49.102  1.00  0.00    -0.012 C 
HETATM   18  C16 UNL     1      30.112   7.775  48.909  1.00  0.00     0.051 C 
HETATM   19  C17 UNL     1      31.986   8.641  48.506  1.00  0.00     0.137 A 
HETATM   20  S2  UNL     1      31.501   8.114  46.873  1.00  0.00    -0.180 SA
HETATM   21  C18 UNL     1      30.382   8.663  45.679  1.00  0.00     0.229 A 
HETATM   22  O1  UNL     1      30.176  10.088  46.417  1.00  0.00    -0.360 OA
HETATM   23  H8  UNL     1      34.383   7.977  49.228  1.00  0.00     0.079 HD
HETATM   24  H14 UNL     1      33.743   4.820  45.857  1.00  0.00     0.127 HD
ENDROOT
TORSDOF 0
ENDMDL
MODEL 9
REMARK VINA RESULT:      -7.0      3.025      3.848
REMARK  0 active torsions:
REMARK  status: ('A' for Active; 'I' for Inactive)
ROOT
HETATM    1  C1  UNL     1      26.586   2.438  53.785  1.00  0.00     0.030 C 
HETATM    2  C2  UNL     1      25.134   2.049  53.478  1.00  0.00     0.037 A 
HETATM    3  C3  UNL     1      24.468   0.812  53.483  1.00  0.00     0.103 A 
HETATM    4  C4  UNL     1      23.922  -0.605  53.538  1.00  0.00     0.016 C 
HETATM    5  C5  UNL     1      22.632  -0.793  53.116  1.00  0.00    -0.019 C 
HETATM    6  C6  UNL     1      21.350  -0.403  52.571  1.00  0.00     0.077 C 
HETATM    7  S1  UNL     1      21.087   1.172  51.740  1.00  0.00    -0.242 SA
HETATM    8  C7  UNL     1      19.595   1.616  51.347  1.00  0.00    -0.007 C 
HETATM    9  C8  UNL     1      19.592   2.251  50.213  1.00  0.00     0.061 C 
HETATM   10  C9  UNL     1      20.197   2.610  49.088  1.00  0.00     0.022 C 
HETATM   11  C10 UNL     1      20.574   3.052  47.937  1.00  0.00    -0.020 C 
HETATM   12  C11 UNL     1      21.881   2.915  47.344  1.00  0.00     0.008 C 
HETATM   13  C12 UNL     1      22.734   2.184  48.136  1.00  0.00     0.057 C 
HETATM   14  N1  UNL     1      22.166   1.703  49.350  1.00  0.00    -0.295 NA
HETATM   15  C13 UNL     1      21.490   0.848  50.288  1.00  0.00     0.141 C 
HETATM   16  C14 UNL     1      22.421   2.332  52.099  1.00  0.00    -0.040 C 
HETATM   17  C15 UNL     1      23.213   3.382  52.189  1.00  0.00    -0.012 C 
HETATM   18  C16 UNL     1      24.558   3.306  52.952  1.00  0.00     0.051 C 
HETATM   19  C17 UNL     1      23.121   1.808  53.297  1.00  0.00     0.137 A 
HETATM   20  S2  UNL     1      24.133   1.023  52.057  1.00  0.00    -0.180 SA
HETATM   21  C18 UNL     1      25.690   0.281  52.022  1.00  0.00     0.229 A 
HETATM   22  O1  UNL     1      25.775   0.205  53.636  1.00  0.00    -0.360 OA
HETATM   23  H8  UNL     1      20.568   1.737  52.866  1.00  0.00     0.079 HD
HETATM   24  H14 UNL     1      22.058   1.019  48.506  1.00  0.00     0.127 HD
ENDROOT
TORSDOF 0
ENDMDL
