MODEL 1
REMARK VINA RESULT:      -7.6      0.000      0.000
REMARK  6 active torsions:
REMARK  status: ('A' for Active; 'I' for Inactive)
REMARK    1  A    between atoms: C2_2  and  O1_3 
REMARK    2  A    between atoms: C2_2  and  C4_5 
REMARK    3  A    between atoms: C13_17  and  C14_18 
REMARK    4  A    between atoms: C14_18  and  C15_19 
REMARK    5  A    between atoms: C18_22  and  C19_23 
REMARK    6  A    between atoms: C19_23  and  N4_24 
ROOT
HETATM    1  C4  UNL     1      25.726   4.606  49.260  1.00  0.00     0.102 C 
HETATM    2  C5  UNL     1      24.801   5.539  49.094  1.00  0.00     0.042 C 
HETATM    3  C6  UNL     1      24.340   6.895  48.834  1.00  0.00     0.037 C 
HETATM    4  C7  UNL     1      24.709   7.433  49.984  1.00  0.00     0.087 C 
HETATM    5  N1  UNL     1      24.340   6.849  51.037  1.00  0.00    -0.240 NA
HETATM    6  C8  UNL     1      23.039   6.215  51.018  1.00  0.00     0.229 C 
HETATM    7  N2  UNL     1      22.814   5.413  51.999  1.00  0.00    -0.264 NA
HETATM    8  C9  UNL     1      21.632   4.680  52.214  1.00  0.00     0.267 C 
HETATM    9  N3  UNL     1      21.408   3.614  51.360  1.00  0.00    -0.397 N 
HETATM   10  C10 UNL     1      22.149   2.442  51.313  1.00  0.00     0.105 C 
HETATM   11  C11 UNL     1      22.338   1.687  52.611  1.00  0.00     0.037 C 
HETATM   12  C12 UNL     1      23.338   2.545  50.454  1.00  0.00    -0.031 C 
HETATM   13  C13 UNL     1      23.148   2.245  49.146  1.00  0.00    -0.015 C 
HETATM   14  C18 UNL     1      24.746   2.935  50.720  1.00  0.00     0.188 C 
HETATM   15  O3  UNL     1      25.411   3.311  49.533  1.00  0.00    -0.337 OA
HETATM   16  H11 UNL     1      20.778   3.827  50.582  1.00  0.00     0.155 HD
ENDROOT
BRANCH  14  17
HETATM   17  C19 UNL     1      25.447   1.842  51.463  1.00  0.00     0.309 C 
BRANCH  17  18
HETATM   18  N4  UNL     1      26.078   2.200  52.692  1.00  0.00     0.095 N 
HETATM   19  C20 UNL     1      27.521   2.318  52.384  1.00  0.00     0.298 C 
HETATM   20  C21 UNL     1      28.355   2.005  53.589  1.00  0.00     0.198 C 
HETATM   21  O2  UNL     1      28.315   0.664  53.879  1.00  0.00    -0.388 OA
HETATM   22  C22 UNL     1      27.031   0.162  53.662  1.00  0.00     0.198 C 
HETATM   23  C23 UNL     1      25.996   1.265  53.765  1.00  0.00     0.298 C 
ENDBRANCH  17  18
ENDBRANCH  14  17
BRANCH  13  24
HETATM   24  C14 UNL     1      22.093   1.820  48.197  1.00  0.00     0.054 C 
BRANCH  24  25
HETATM   25  C15 UNL     1      21.961   2.680  47.008  1.00  0.00    -0.027 C 
HETATM   26  C16 UNL     1      21.981   3.960  46.645  1.00  0.00    -0.035 C 
HETATM   27  C17 UNL     1      21.808   4.579  45.286  1.00  0.00     0.036 C 
ENDBRANCH  24  25
ENDBRANCH  13  24
BRANCH   1  28
HETATM   28  C2  UNL     1      26.695   5.609  49.032  1.00  0.00     0.092 C 
HETATM   29  C1  UNL     1      27.647   4.733  48.665  1.00  0.00     0.053 C 
BRANCH  28  30
HETATM   30  O1  UNL     1      27.291   6.805  48.936  1.00  0.00    -0.354 OA
HETATM   31  C3  UNL     1      28.374   6.964  48.002  1.00  0.00     0.210 C 
ENDBRANCH  28  30
ENDBRANCH   1  28
TORSDOF 6
ENDMDL
MODEL 2
REMARK VINA RESULT:      -7.5      2.652      5.800
REMARK  6 active torsions:
REMARK  status: ('A' for Active; 'I' for Inactive)
REMARK    1  A    between atoms: C2_2  and  O1_3 
REMARK    2  A    between atoms: C2_2  and  C4_5 
REMARK    3  A    between atoms: C13_17  and  C14_18 
REMARK    4  A    between atoms: C14_18  and  C15_19 
REMARK    5  A    between atoms: C18_22  and  C19_23 
REMARK    6  A    between atoms: C19_23  and  N4_24 
ROOT
HETATM    1  C4  UNL     1      22.228   1.354  53.076  1.00  0.00     0.102 C 
HETATM    2  C5  UNL     1      21.221   1.740  52.308  1.00  0.00     0.042 C 
HETATM    3  C6  UNL     1      19.863   1.659  51.791  1.00  0.00     0.037 C 
HETATM    4  C7  UNL     1      20.007   0.551  51.083  1.00  0.00     0.087 C 
HETATM    5  N1  UNL     1      20.976   0.504  50.280  1.00  0.00    -0.240 NA
HETATM    6  C8  UNL     1      21.343   1.736  49.616  1.00  0.00     0.229 C 
HETATM    7  N2  UNL     1      22.484   1.711  49.022  1.00  0.00    -0.264 NA
HETATM    8  C9  UNL     1      23.066   2.772  48.304  1.00  0.00     0.267 C 
HETATM    9  N3  UNL     1      23.541   3.833  49.055  1.00  0.00    -0.397 N 
HETATM   10  C10 UNL     1      24.627   3.796  49.918  1.00  0.00     0.105 C 
HETATM   11  C11 UNL     1      25.936   3.276  49.363  1.00  0.00     0.037 C 
HETATM   12  C12 UNL     1      24.276   3.333  51.268  1.00  0.00    -0.031 C 
HETATM   13  C13 UNL     1      23.872   4.294  52.134  1.00  0.00    -0.015 C 
HETATM   14  C18 UNL     1      24.254   1.990  51.902  1.00  0.00     0.188 C 
HETATM   15  O3  UNL     1      23.437   1.977  53.054  1.00  0.00    -0.337 OA
HETATM   16  H11 UNL     1      22.895   4.625  49.115  1.00  0.00     0.155 HD
ENDROOT
BRANCH  14  17
HETATM   17  C19 UNL     1      25.652   1.528  52.169  1.00  0.00     0.309 C 
BRANCH  17  18
HETATM   18  N4  UNL     1      25.882   0.859  53.408  1.00  0.00     0.095 N 
HETATM   19  C20 UNL     1      27.228   1.285  53.852  1.00  0.00     0.298 C 
HETATM   20  C21 UNL     1      27.879   0.226  54.687  1.00  0.00     0.198 C 
HETATM   21  O2  UNL     1      28.248  -0.850  53.917  1.00  0.00    -0.388 OA
HETATM   22  C22 UNL     1      27.278  -1.101  52.946  1.00  0.00     0.198 C 
HETATM   23  C23 UNL     1      25.927  -0.566  53.381  1.00  0.00     0.298 C 
ENDBRANCH  17  18
ENDBRANCH  14  17
BRANCH  13  24
HETATM   24  C14 UNL     1      23.638   5.755  52.216  1.00  0.00     0.054 C 
BRANCH  24  25
HETATM   25  C15 UNL     1      22.475   6.229  51.445  1.00  0.00    -0.027 C 
HETATM   26  C16 UNL     1      22.093   7.225  50.649  1.00  0.00    -0.035 C 
HETATM   27  C17 UNL     1      20.774   7.463  49.969  1.00  0.00     0.036 C 
ENDBRANCH  24  25
ENDBRANCH  13  24
BRANCH   1  28
HETATM   28  C2  UNL     1      21.378   0.346  53.584  1.00  0.00     0.092 C 
HETATM   29  C1  UNL     1      22.324  -0.609  53.520  1.00  0.00     0.053 C 
BRANCH  28  30
HETATM   30  O1  UNL     1      20.302  -0.286  54.071  1.00  0.00    -0.354 OA
HETATM   31  C3  UNL     1      20.324  -1.723  54.157  1.00  0.00     0.210 C 
ENDBRANCH  28  30
ENDBRANCH   1  28
TORSDOF 6
ENDMDL
MODEL 3
REMARK VINA RESULT:      -6.8      5.587      9.753
REMARK  6 active torsions:
REMARK  status: ('A' for Active; 'I' for Inactive)
REMARK    1  A    between atoms: C2_2  and  O1_3 
REMARK    2  A    between atoms: C2_2  and  C4_5 
REMARK    3  A    between atoms: C13_17  and  C14_18 
REMARK    4  A    between atoms: C14_18  and  C15_19 
REMARK    5  A    between atoms: C18_22  and  C19_23 
REMARK    6  A    between atoms: C19_23  and  N4_24 
ROOT
HETATM    1  C4  UNL     1      28.943   8.093  48.400  1.00  0.00     0.102 C 
HETATM    2  C5  UNL     1      28.180   8.769  47.556  1.00  0.00     0.042 C 
HETATM    3  C6  UNL     1      27.020   8.950  46.696  1.00  0.00     0.037 C 
HETATM    4  C7  UNL     1      27.376   8.113  45.737  1.00  0.00     0.087 C 
HETATM    5  N1  UNL     1      28.530   8.251  45.251  1.00  0.00    -0.240 NA
HETATM    6  C8  UNL     1      29.041   9.600  45.142  1.00  0.00     0.229 C 
HETATM    7  N2  UNL     1      30.302   9.682  44.899  1.00  0.00    -0.264 NA
HETATM    8  C9  UNL     1      31.038  10.871  44.742  1.00  0.00     0.267 C 
HETATM    9  N3  UNL     1      31.266  11.607  45.892  1.00  0.00    -0.397 N 
HETATM   10  C10 UNL     1      32.072  11.225  46.954  1.00  0.00     0.105 C 
HETATM   11  C11 UNL     1      33.494  10.814  46.635  1.00  0.00     0.037 C 
HETATM   12  C12 UNL     1      31.372  10.389  47.939  1.00  0.00    -0.031 C 
HETATM   13  C13 UNL     1      30.725  11.056  48.926  1.00  0.00    -0.015 C 
HETATM   14  C18 UNL     1      31.202   8.920  48.079  1.00  0.00     0.188 C 
HETATM   15  O3  UNL     1      30.099   8.604  48.903  1.00  0.00    -0.337 OA
HETATM   16  H11 UNL     1      30.614  12.384  46.027  1.00  0.00     0.155 HD
ENDROOT
BRANCH  14  17
HETATM   17  C19 UNL     1      32.480   8.300  48.549  1.00  0.00     0.309 C 
BRANCH  17  18
HETATM   18  N4  UNL     1      33.025   7.258  47.740  1.00  0.00     0.095 N 
HETATM   19  C20 UNL     1      32.844   6.011  48.514  1.00  0.00     0.298 C 
HETATM   20  C21 UNL     1      33.906   5.010  48.177  1.00  0.00     0.198 C 
HETATM   21  O2  UNL     1      35.122   5.393  48.687  1.00  0.00    -0.388 OA
HETATM   22  C22 UNL     1      35.279   6.775  48.569  1.00  0.00     0.198 C 
HETATM   23  C23 UNL     1      34.419   7.322  47.446  1.00  0.00     0.298 C 
ENDBRANCH  17  18
ENDBRANCH  14  17
BRANCH  13  24
HETATM   24  C14 UNL     1      30.448  12.431  49.405  1.00  0.00     0.054 C 
BRANCH  24  25
HETATM   25  C15 UNL     1      29.114  12.943  49.049  1.00  0.00    -0.027 C 
HETATM   26  C16 UNL     1      28.053  12.646  48.302  1.00  0.00    -0.035 C 
HETATM   27  C17 UNL     1      26.761  13.393  48.122  1.00  0.00     0.036 C 
ENDBRANCH  24  25
ENDBRANCH  13  24
BRANCH   1  28
HETATM   28  C2  UNL     1      28.007   7.038  48.310  1.00  0.00     0.092 C 
HETATM   29  C1  UNL     1      28.951   6.091  48.171  1.00  0.00     0.053 C 
BRANCH  28  30
HETATM   30  O1  UNL     1      26.851   6.362  48.272  1.00  0.00    -0.354 OA
HETATM   31  C3  UNL     1      26.787   5.068  48.899  1.00  0.00     0.210 C 
ENDBRANCH  28  30
ENDBRANCH   1  28
TORSDOF 6
ENDMDL
MODEL 4
REMARK VINA RESULT:      -6.6      6.037      9.349
REMARK  6 active torsions:
REMARK  status: ('A' for Active; 'I' for Inactive)
REMARK    1  A    between atoms: C2_2  and  O1_3 
REMARK    2  A    between atoms: C2_2  and  C4_5 
REMARK    3  A    between atoms: C13_17  and  C14_18 
REMARK    4  A    between atoms: C14_18  and  C15_19 
REMARK    5  A    between atoms: C18_22  and  C19_23 
REMARK    6  A    between atoms: C19_23  and  N4_24 
ROOT
HETATM    1  C4  UNL     1      31.636   7.708  44.403  1.00  0.00     0.102 C 
HETATM    2  C5  UNL     1      31.008   8.867  44.281  1.00  0.00     0.042 C 
HETATM    3  C6  UNL     1      30.643  10.092  43.584  1.00  0.00     0.037 C 
HETATM    4  C7  UNL     1      31.809  10.708  43.681  1.00  0.00     0.087 C 
HETATM    5  N1  UNL     1      32.327  10.783  44.826  1.00  0.00    -0.240 NA
HETATM    6  C8  UNL     1      31.426  10.944  45.948  1.00  0.00     0.229 C 
HETATM    7  N2  UNL     1      31.959  10.749  47.102  1.00  0.00    -0.264 NA
HETATM    8  C9  UNL     1      31.304  10.847  48.343  1.00  0.00     0.267 C 
HETATM    9  N3  UNL     1      30.407   9.838  48.645  1.00  0.00    -0.397 N 
HETATM   10  C10 UNL     1      30.732   8.513  48.901  1.00  0.00     0.105 C 
HETATM   11  C11 UNL     1      31.776   8.247  49.964  1.00  0.00     0.037 C 
HETATM   12  C12 UNL     1      30.840   7.699  47.682  1.00  0.00    -0.031 C 
HETATM   13  C13 UNL     1      29.688   7.128  47.250  1.00  0.00    -0.015 C 
HETATM   14  C18 UNL     1      31.975   7.371  46.782  1.00  0.00     0.188 C 
HETATM   15  O3  UNL     1      31.523   6.936  45.517  1.00  0.00    -0.337 OA
HETATM   16  H11 UNL     1      29.430  10.073  48.450  1.00  0.00     0.155 HD
ENDROOT
BRANCH  14  17
HETATM   17  C19 UNL     1      32.887   6.390  47.448  1.00  0.00     0.309 C 
BRANCH  17  18
HETATM   18  N4  UNL     1      33.111   5.155  46.768  1.00  0.00     0.095 N 
HETATM   19  C20 UNL     1      32.394   4.128  47.555  1.00  0.00     0.298 C 
HETATM   20  C21 UNL     1      33.052   2.789  47.416  1.00  0.00     0.198 C 
HETATM   21  O2  UNL     1      34.251   2.759  48.084  1.00  0.00    -0.388 OA
HETATM   22  C22 UNL     1      34.914   3.978  47.937  1.00  0.00     0.198 C 
HETATM   23  C23 UNL     1      34.457   4.693  46.681  1.00  0.00     0.298 C 
ENDBRANCH  17  18
ENDBRANCH  14  17
BRANCH  13  24
HETATM   24  C14 UNL     1      28.250   7.021  47.591  1.00  0.00     0.054 C 
BRANCH  24  25
HETATM   25  C15 UNL     1      27.870   5.753  48.238  1.00  0.00    -0.027 C 
HETATM   26  C16 UNL     1      26.845   5.166  48.849  1.00  0.00    -0.035 C 
HETATM   27  C17 UNL     1      26.735   3.788  49.440  1.00  0.00     0.036 C 
ENDBRANCH  24  25
ENDBRANCH  13  24
BRANCH   1  28
HETATM   28  C2  UNL     1      32.171   7.928  43.114  1.00  0.00     0.092 C 
HETATM   29  C1  UNL     1      33.385   7.447  43.438  1.00  0.00     0.053 C 
BRANCH  28  30
HETATM   30  O1  UNL     1      32.287   8.280  41.827  1.00  0.00    -0.354 OA
HETATM   31  C3  UNL     1      33.601   8.522  41.292  1.00  0.00     0.210 C 
ENDBRANCH  28  30
ENDBRANCH   1  28
TORSDOF 6
ENDMDL
MODEL 5
REMARK VINA RESULT:      -6.4      5.193      9.235
REMARK  6 active torsions:
REMARK  status: ('A' for Active; 'I' for Inactive)
REMARK    1  A    between atoms: C2_2  and  O1_3 
REMARK    2  A    between atoms: C2_2  and  C4_5 
REMARK    3  A    between atoms: C13_17  and  C14_18 
REMARK    4  A    between atoms: C14_18  and  C15_19 
REMARK    5  A    between atoms: C18_22  and  C19_23 
REMARK    6  A    between atoms: C19_23  and  N4_24 
ROOT
HETATM    1  C4  UNL     1      27.622   8.638  44.913  1.00  0.00     0.102 C 
HETATM    2  C5  UNL     1      26.573   8.370  45.676  1.00  0.00     0.042 C 
HETATM    3  C6  UNL     1      25.149   8.291  45.963  1.00  0.00     0.037 C 
HETATM    4  C7  UNL     1      24.912   9.589  46.053  1.00  0.00     0.087 C 
HETATM    5  N1  UNL     1      25.657  10.258  46.817  1.00  0.00    -0.240 NA
HETATM    6  C8  UNL     1      26.116   9.608  48.026  1.00  0.00     0.229 C 
HETATM    7  N2  UNL     1      27.074  10.213  48.634  1.00  0.00    -0.264 NA
HETATM    8  C9  UNL     1      27.692   9.793  49.827  1.00  0.00     0.267 C 
HETATM    9  N3  UNL     1      28.520   8.688  49.733  1.00  0.00    -0.397 N 
HETATM   10  C10 UNL     1      29.735   8.639  49.063  1.00  0.00     0.105 C 
HETATM   11  C11 UNL     1      30.763   9.694  49.412  1.00  0.00     0.037 C 
HETATM   12  C12 UNL     1      29.594   8.333  47.633  1.00  0.00    -0.031 C 
HETATM   13  C13 UNL     1      29.587   7.017  47.310  1.00  0.00    -0.015 C 
HETATM   14  C18 UNL     1      29.437   9.186  46.427  1.00  0.00     0.188 C 
HETATM   15  O3  UNL     1      28.899   8.456  45.345  1.00  0.00    -0.337 OA
HETATM   16  H11 UNL     1      28.076   7.808  50.006  1.00  0.00     0.155 HD
ENDROOT
BRANCH  14  17
HETATM   17  C19 UNL     1      30.736   9.850  46.098  1.00  0.00     0.309 C 
BRANCH  17  18
HETATM   18  N4  UNL     1      30.792  11.268  46.254  1.00  0.00     0.095 N 
HETATM   19  C20 UNL     1      29.386  11.725  46.278  1.00  0.00     0.298 C 
HETATM   20  C21 UNL     1      29.267  13.124  45.754  1.00  0.00     0.198 C 
HETATM   21  O2  UNL     1      29.471  13.160  44.397  1.00  0.00    -0.388 OA
HETATM   22  C22 UNL     1      30.486  12.272  44.040  1.00  0.00     0.198 C 
HETATM   23  C23 UNL     1      31.415  12.014  45.211  1.00  0.00     0.298 C 
ENDBRANCH  17  18
ENDBRANCH  14  17
BRANCH  13  24
HETATM   24  C14 UNL     1      29.676   5.672  47.927  1.00  0.00     0.054 C 
BRANCH  24  25
HETATM   25  C15 UNL     1      28.416   5.190  48.520  1.00  0.00    -0.027 C 
HETATM   26  C16 UNL     1      27.122   5.490  48.594  1.00  0.00    -0.035 C 
HETATM   27  C17 UNL     1      26.007   4.779  49.310  1.00  0.00     0.036 C 
ENDBRANCH  24  25
ENDBRANCH  13  24
BRANCH   1  28
HETATM   28  C2  UNL     1      26.714   9.032  43.904  1.00  0.00     0.092 C 
HETATM   29  C1  UNL     1      27.424  10.123  43.566  1.00  0.00     0.053 C 
BRANCH  28  30
HETATM   30  O1  UNL     1      25.658   9.055  43.080  1.00  0.00    -0.354 OA
HETATM   31  C3  UNL     1      25.391  10.256  42.334  1.00  0.00     0.210 C 
ENDBRANCH  28  30
ENDBRANCH   1  28
TORSDOF 6
ENDMDL
MODEL 6
REMARK VINA RESULT:      -6.4      3.267      6.594
REMARK  6 active torsions:
REMARK  status: ('A' for Active; 'I' for Inactive)
REMARK    1  A    between atoms: C2_2  and  O1_3 
REMARK    2  A    between atoms: C2_2  and  C4_5 
REMARK    3  A    between atoms: C13_17  and  C14_18 
REMARK    4  A    between atoms: C14_18  and  C15_19 
REMARK    5  A    between atoms: C18_22  and  C19_23 
REMARK    6  A    between atoms: C19_23  and  N4_24 
ROOT
HETATM    1  C4  UNL     1      22.723   0.754  51.946  1.00  0.00     0.102 C 
HETATM    2  C5  UNL     1      23.911   1.333  51.874  1.00  0.00     0.042 C 
HETATM    3  C6  UNL     1      25.285   1.559  52.296  1.00  0.00     0.037 C 
HETATM    4  C7  UNL     1      25.024   2.186  53.430  1.00  0.00     0.087 C 
HETATM    5  N1  UNL     1      24.227   3.160  53.379  1.00  0.00    -0.240 NA
HETATM    6  C8  UNL     1      24.271   3.985  52.191  1.00  0.00     0.229 C 
HETATM    7  N2  UNL     1      23.278   4.792  52.057  1.00  0.00    -0.264 NA
HETATM    8  C9  UNL     1      23.087   5.699  50.998  1.00  0.00     0.267 C 
HETATM    9  N3  UNL     1      22.737   5.151  49.776  1.00  0.00    -0.397 N 
HETATM   10  C10 UNL     1      21.534   4.524  49.482  1.00  0.00     0.105 C 
HETATM   11  C11 UNL     1      20.262   5.284  49.789  1.00  0.00     0.037 C 
HETATM   12  C12 UNL     1      21.527   3.096  49.833  1.00  0.00    -0.031 C 
HETATM   13  C13 UNL     1      21.976   2.251  48.874  1.00  0.00    -0.015 C 
HETATM   14  C18 UNL     1      21.133   2.360  51.062  1.00  0.00     0.188 C 
HETATM   15  O3  UNL     1      21.708   1.071  51.097  1.00  0.00    -0.337 OA
HETATM   16  H11 UNL     1      23.523   5.029  49.132  1.00  0.00     0.155 HD
ENDROOT
BRANCH  14  17
HETATM   17  C19 UNL     1      19.643   2.341  51.190  1.00  0.00     0.309 C 
BRANCH  17  18
HETATM   18  N4  UNL     1      18.942   1.373  50.410  1.00  0.00     0.095 N 
HETATM   19  C20 UNL     1      17.910   2.128  49.666  1.00  0.00     0.298 C 
HETATM   20  C21 UNL     1      16.718   1.267  49.376  1.00  0.00     0.198 C 
HETATM   21  O2  UNL     1      16.004   1.015  50.521  1.00  0.00    -0.388 OA
HETATM   22  C22 UNL     1      16.871   0.819  51.596  1.00  0.00     0.198 C 
HETATM   23  C23 UNL     1      18.233   0.357  51.114  1.00  0.00     0.298 C 
ENDBRANCH  17  18
ENDBRANCH  14  17
BRANCH  13  24
HETATM   24  C14 UNL     1      22.514   2.247  47.494  1.00  0.00     0.054 C 
BRANCH  24  25
HETATM   25  C15 UNL     1      21.773   3.100  46.548  1.00  0.00    -0.027 C 
HETATM   26  C16 UNL     1      21.948   4.123  45.715  1.00  0.00    -0.035 C 
HETATM   27  C17 UNL     1      20.957   4.825  44.830  1.00  0.00     0.036 C 
ENDBRANCH  24  25
ENDBRANCH  13  24
BRANCH   1  28
HETATM   28  C2  UNL     1      23.220   0.003  53.035  1.00  0.00     0.092 C 
HETATM   29  C1  UNL     1      22.073   0.086  53.732  1.00  0.00     0.053 C 
BRANCH  28  30
HETATM   30  O1  UNL     1      24.034  -0.715  53.821  1.00  0.00    -0.354 OA
HETATM   31  C3  UNL     1      23.570  -1.100  55.127  1.00  0.00     0.210 C 
ENDBRANCH  28  30
ENDBRANCH   1  28
TORSDOF 6
ENDMDL
MODEL 7
REMARK VINA RESULT:      -6.3      3.416      6.721
REMARK  6 active torsions:
REMARK  status: ('A' for Active; 'I' for Inactive)
REMARK    1  A    between atoms: C2_2  and  O1_3 
REMARK    2  A    between atoms: C2_2  and  C4_5 
REMARK    3  A    between atoms: C13_17  and  C14_18 
REMARK    4  A    between atoms: C14_18  and  C15_19 
REMARK    5  A    between atoms: C18_22  and  C19_23 
REMARK    6  A    between atoms: C19_23  and  N4_24 
ROOT
HETATM    1  C4  UNL     1      22.184   5.559  50.865  1.00  0.00     0.102 C 
HETATM    2  C5  UNL     1      23.098   5.148  50.000  1.00  0.00     0.042 C 
HETATM    3  C6  UNL     1      24.089   5.341  48.951  1.00  0.00     0.037 C 
HETATM    4  C7  UNL     1      23.255   5.630  47.967  1.00  0.00     0.087 C 
HETATM    5  N1  UNL     1      22.298   4.834  47.771  1.00  0.00    -0.240 NA
HETATM    6  C8  UNL     1      22.553   3.428  47.998  1.00  0.00     0.229 C 
HETATM    7  N2  UNL     1      21.502   2.689  48.050  1.00  0.00    -0.264 NA
HETATM    8  C9  UNL     1      21.478   1.297  48.253  1.00  0.00     0.267 C 
HETATM    9  N3  UNL     1      21.784   0.859  49.530  1.00  0.00    -0.397 N 
HETATM   10  C10 UNL     1      21.008   1.057  50.664  1.00  0.00     0.105 C 
HETATM   11  C11 UNL     1      19.557   0.635  50.595  1.00  0.00     0.037 C 
HETATM   12  C12 UNL     1      21.269   2.345  51.323  1.00  0.00    -0.031 C 
HETATM   13  C13 UNL     1      22.264   2.346  52.243  1.00  0.00    -0.015 C 
HETATM   14  C18 UNL     1      20.664   3.694  51.180  1.00  0.00     0.188 C 
HETATM   15  O3  UNL     1      21.519   4.699  51.683  1.00  0.00    -0.337 OA
HETATM   16  H11 UNL     1      22.754   0.557  49.648  1.00  0.00     0.155 HD
ENDROOT
BRANCH  14  17
HETATM   17  C19 UNL     1      19.305   3.714  51.805  1.00  0.00     0.309 C 
BRANCH  17  18
HETATM   18  N4  UNL     1      18.304   4.489  51.145  1.00  0.00     0.095 N 
HETATM   19  C20 UNL     1      17.020   3.810  51.425  1.00  0.00     0.298 C 
HETATM   20  C21 UNL     1      16.036   4.042  50.319  1.00  0.00     0.198 C 
HETATM   21  O2  UNL     1      16.393   3.348  49.190  1.00  0.00    -0.388 OA
HETATM   22  C22 UNL     1      17.779   3.375  49.027  1.00  0.00     0.198 C 
HETATM   23  C23 UNL     1      18.382   4.579  49.724  1.00  0.00     0.298 C 
ENDBRANCH  17  18
ENDBRANCH  14  17
BRANCH  13  24
HETATM   24  C14 UNL     1      23.261   1.447  52.871  1.00  0.00     0.054 C 
BRANCH  24  25
HETATM   25  C15 UNL     1      22.678   0.345  53.656  1.00  0.00    -0.027 C 
HETATM   26  C16 UNL     1      22.187  -0.884  53.514  1.00  0.00    -0.035 C 
HETATM   27  C17 UNL     1      21.633  -1.825  54.547  1.00  0.00     0.036 C 
ENDBRANCH  24  25
ENDBRANCH  13  24
BRANCH   1  28
HETATM   28  C2  UNL     1      22.422   6.874  50.403  1.00  0.00     0.092 C 
HETATM   29  C1  UNL     1      21.116   7.188  50.350  1.00  0.00     0.053 C 
BRANCH  28  30
HETATM   30  O1  UNL     1      23.048   7.986  49.996  1.00  0.00    -0.354 OA
HETATM   31  C3  UNL     1      24.321   8.316  50.580  1.00  0.00     0.210 C 
ENDBRANCH  28  30
ENDBRANCH   1  28
TORSDOF 6
ENDMDL
MODEL 8
REMARK VINA RESULT:      -6.1      3.809      7.577
REMARK  6 active torsions:
REMARK  status: ('A' for Active; 'I' for Inactive)
REMARK    1  A    between atoms: C2_2  and  O1_3 
REMARK    2  A    between atoms: C2_2  and  C4_5 
REMARK    3  A    between atoms: C13_17  and  C14_18 
REMARK    4  A    between atoms: C14_18  and  C15_19 
REMARK    5  A    between atoms: C18_22  and  C19_23 
REMARK    6  A    between atoms: C19_23  and  N4_24 
ROOT
HETATM    1  C4  UNL     1      29.812   6.418  47.916  1.00  0.00     0.102 C 
HETATM    2  C5  UNL     1      30.663   7.360  47.540  1.00  0.00     0.042 C 
HETATM    3  C6  UNL     1      31.990   7.930  47.360  1.00  0.00     0.037 C 
HETATM    4  C7  UNL     1      32.256   8.168  48.633  1.00  0.00     0.087 C 
HETATM    5  N1  UNL     1      31.395   8.808  49.292  1.00  0.00    -0.240 NA
HETATM    6  C8  UNL     1      30.663   9.841  48.590  1.00  0.00     0.229 C 
HETATM    7  N2  UNL     1      29.624  10.282  49.207  1.00  0.00    -0.264 NA
HETATM    8  C9  UNL     1      28.750  11.283  48.745  1.00  0.00     0.267 C 
HETATM    9  N3  UNL     1      27.915  10.934  47.698  1.00  0.00    -0.397 N 
HETATM   10  C10 UNL     1      26.869  10.024  47.763  1.00  0.00     0.105 C 
HETATM   11  C11 UNL     1      25.835  10.231  48.849  1.00  0.00     0.037 C 
HETATM   12  C12 UNL     1      27.297   8.635  47.545  1.00  0.00    -0.031 C 
HETATM   13  C13 UNL     1      27.318   8.220  46.255  1.00  0.00    -0.015 C 
HETATM   14  C18 UNL     1      27.742   7.558  48.466  1.00  0.00     0.188 C 
HETATM   15  O3  UNL     1      28.466   6.559  47.780  1.00  0.00    -0.337 OA
HETATM   16  H11 UNL     1      28.254  11.225  46.777  1.00  0.00     0.155 HD
ENDROOT
BRANCH  14  17
HETATM   17  C19 UNL     1      26.571   7.018  49.223  1.00  0.00     0.309 C 
BRANCH  17  18
HETATM   18  N4  UNL     1      25.917   5.876  48.669  1.00  0.00     0.095 N 
HETATM   19  C20 UNL     1      24.497   6.261  48.516  1.00  0.00     0.298 C 
HETATM   20  C21 UNL     1      23.601   5.064  48.618  1.00  0.00     0.198 C 
HETATM   21  O2  UNL     1      23.550   4.597  49.908  1.00  0.00    -0.388 OA
HETATM   22  C22 UNL     1      24.809   4.689  50.503  1.00  0.00     0.198 C 
HETATM   23  C23 UNL     1      25.904   4.687  49.454  1.00  0.00     0.298 C 
ENDBRANCH  17  18
ENDBRANCH  14  17
BRANCH  13  24
HETATM   24  C14 UNL     1      27.044   8.700  44.880  1.00  0.00     0.054 C 
BRANCH  24  25
HETATM   25  C15 UNL     1      28.226   9.218  44.169  1.00  0.00    -0.027 C 
HETATM   26  C16 UNL     1      29.342   9.911  44.378  1.00  0.00    -0.035 C 
HETATM   27  C17 UNL     1      30.423  10.311  43.413  1.00  0.00     0.036 C 
ENDBRANCH  24  25
ENDBRANCH  13  24
BRANCH   1  28
HETATM   28  C2  UNL     1      30.929   5.654  48.324  1.00  0.00     0.092 C 
HETATM   29  C1  UNL     1      30.773   4.740  47.351  1.00  0.00     0.053 C 
BRANCH  28  30
HETATM   30  O1  UNL     1      32.006   5.235  49.003  1.00  0.00    -0.354 OA
HETATM   31  C3  UNL     1      33.023   4.500  48.298  1.00  0.00     0.210 C 
ENDBRANCH  28  30
ENDBRANCH   1  28
TORSDOF 6
ENDMDL
MODEL 9
REMARK VINA RESULT:      -6.1      2.321      4.336
REMARK  6 active torsions:
REMARK  status: ('A' for Active; 'I' for Inactive)
REMARK    1  A    between atoms: C2_2  and  O1_3 
REMARK    2  A    between atoms: C2_2  and  C4_5 
REMARK    3  A    between atoms: C13_17  and  C14_18 
REMARK    4  A    between atoms: C14_18  and  C15_19 
REMARK    5  A    between atoms: C18_22  and  C19_23 
REMARK    6  A    between atoms: C19_23  and  N4_24 
ROOT
HETATM    1  C4  UNL     1      23.868   3.295  49.475  1.00  0.00     0.102 C 
HETATM    2  C5  UNL     1      23.904   4.618  49.462  1.00  0.00     0.042 C 
HETATM    3  C6  UNL     1      24.410   5.919  49.876  1.00  0.00     0.037 C 
HETATM    4  C7  UNL     1      23.917   5.921  51.103  1.00  0.00     0.087 C 
HETATM    5  N1  UNL     1      22.689   5.670  51.230  1.00  0.00    -0.240 NA
HETATM    6  C8  UNL     1      21.807   6.149  50.187  1.00  0.00     0.229 C 
HETATM    7  N2  UNL     1      20.621   5.651  50.211  1.00  0.00    -0.264 NA
HETATM    8  C9  UNL     1      19.579   5.953  49.315  1.00  0.00     0.267 C 
HETATM    9  N3  UNL     1      19.707   5.450  48.032  1.00  0.00    -0.397 N 
HETATM   10  C10 UNL     1      19.650   4.110  47.676  1.00  0.00     0.105 C 
HETATM   11  C11 UNL     1      18.443   3.321  48.135  1.00  0.00     0.037 C 
HETATM   12  C12 UNL     1      20.945   3.425  47.796  1.00  0.00    -0.031 C 
HETATM   13  C13 UNL     1      21.744   3.479  46.702  1.00  0.00    -0.015 C 
HETATM   14  C18 UNL     1      21.593   2.675  48.902  1.00  0.00     0.188 C 
HETATM   15  O3  UNL     1      22.990   2.586  48.716  1.00  0.00    -0.337 OA
HETATM   16  H11 UNL     1      20.079   6.121  47.355  1.00  0.00     0.155 HD
ENDROOT
BRANCH  14  17
HETATM   17  C19 UNL     1      20.937   1.341  49.068  1.00  0.00     0.309 C 
BRANCH  17  18
HETATM   18  N4  UNL     1      20.472   1.011  50.376  1.00  0.00     0.095 N 
HETATM   19  C20 UNL     1      20.444   2.286  51.127  1.00  0.00     0.298 C 
HETATM   20  C21 UNL     1      20.656   2.051  52.592  1.00  0.00     0.198 C 
HETATM   21  O2  UNL     1      21.955   1.690  52.848  1.00  0.00    -0.388 OA
HETATM   22  C22 UNL     1      22.428   0.847  51.842  1.00  0.00     0.198 C 
HETATM   23  C23 UNL     1      21.281   0.132  51.154  1.00  0.00     0.298 C 
ENDBRANCH  17  18
ENDBRANCH  14  17
BRANCH  13  24
HETATM   24  C14 UNL     1      21.785   4.022  45.324  1.00  0.00     0.054 C 
BRANCH  24  25
HETATM   25  C15 UNL     1      22.166   5.443  45.241  1.00  0.00    -0.027 C 
HETATM   26  C16 UNL     1      22.556   6.460  46.005  1.00  0.00    -0.035 C 
HETATM   27  C17 UNL     1      22.894   7.875  45.627  1.00  0.00     0.036 C 
ENDBRANCH  24  25
ENDBRANCH  13  24
BRANCH   1  28
HETATM   28  C2  UNL     1      24.921   3.333  50.416  1.00  0.00     0.092 C 
HETATM   29  C1  UNL     1      25.879   3.165  49.487  1.00  0.00     0.053 C 
BRANCH  28  30
HETATM   30  O1  UNL     1      25.593   3.421  51.572  1.00  0.00    -0.354 OA
HETATM   31  C3  UNL     1      26.018   2.208  52.218  1.00  0.00     0.210 C 
ENDBRANCH  28  30
ENDBRANCH   1  28
TORSDOF 6
ENDMDL
