MODEL 1
REMARK VINA RESULT:      -8.2      0.000      0.000
REMARK  4 active torsions:
REMARK  status: ('A' for Active; 'I' for Inactive)
REMARK    1  A    between atoms: N1_1  and  C1_2 
REMARK    2  A    between atoms: C4_5  and  N2_6 
REMARK    3  A    between atoms: N2_6  and  C5_7 
REMARK    4  A    between atoms: C13_19  and  N6_20 
ROOT
HETATM    1  C1  UNL     1      24.576  -0.343  53.753  1.00  0.00     0.072 A 
HETATM    2  C2  UNL     1      25.194   0.509  52.862  1.00  0.00     0.052 A 
HETATM    3  C3  UNL     1      26.419   1.100  53.065  1.00  0.00     0.060 A 
HETATM    4  C4  UNL     1      27.030   1.948  52.173  1.00  0.00     0.143 A 
HETATM    5  N3  UNL     1      28.215   2.385  52.608  1.00  0.00    -0.223 NA
HETATM    6  C11 UNL     1      28.821   2.098  53.749  1.00  0.00     0.237 A 
HETATM    7  N4  UNL     1      28.196   1.266  54.600  1.00  0.00    -0.221 NA
HETATM    8  C12 UNL     1      26.995   0.761  54.268  1.00  0.00     0.167 A 
HETATM    9  N5  UNL     1      26.419  -0.066  55.158  1.00  0.00    -0.209 NA
HETATM   10  C13 UNL     1      25.216  -0.639  54.945  1.00  0.00     0.150 A 
ENDROOT
BRANCH   4  11
HETATM   11  N2  UNL     1      26.397   2.267  50.954  1.00  0.00    -0.340 N 
HETATM   12  H4  UNL     1      25.979   1.531  50.359  1.00  0.00     0.167 HD
BRANCH  11  13
HETATM   13  C5  UNL     1      26.215   3.514  50.349  1.00  0.00     0.035 A 
HETATM   14  C6  UNL     1      26.991   4.046  49.338  1.00  0.00     0.029 A 
HETATM   15  C7  UNL     1      26.804   5.272  48.753  1.00  0.00     0.004 A 
HETATM   16  C8  UNL     1      25.771   6.079  49.173  1.00  0.00     0.019 A 
HETATM   17  C9  UNL     1      24.962   5.592  50.185  1.00  0.00     0.013 A 
HETATM   18 BR1  UNL     1      23.550   6.759  50.717  1.00  0.00    -0.051 Br
HETATM   19  C10 UNL     1      25.197   4.351  50.736  1.00  0.00     0.048 A 
ENDBRANCH  11  13
ENDBRANCH   4  11
BRANCH   1  20
HETATM   20  N1  UNL     1      23.304  -0.920  53.479  1.00  0.00    -0.396 N 
HETATM   21  H1  UNL     1      22.677  -0.980  54.336  1.00  0.00     0.156 HD
HETATM   22  H2  UNL     1      22.744  -1.326  52.695  1.00  0.00     0.156 HD
ENDBRANCH   1  20
BRANCH  10  23
HETATM   23  N6  UNL     1      24.620  -1.510  55.893  1.00  0.00    -0.382 N 
HETATM   24  H10 UNL     1      23.736  -2.029  55.848  1.00  0.00     0.157 HD
HETATM   25  H11 UNL     1      25.274  -1.540  56.706  1.00  0.00     0.157 HD
ENDBRANCH  10  23
TORSDOF 4
ENDMDL
MODEL 2
REMARK VINA RESULT:      -7.8      3.481      5.621
REMARK  4 active torsions:
REMARK  status: ('A' for Active; 'I' for Inactive)
REMARK    1  A    between atoms: N1_1  and  C1_2 
REMARK    2  A    between atoms: C4_5  and  N2_6 
REMARK    3  A    between atoms: N2_6  and  C5_7 
REMARK    4  A    between atoms: C13_19  and  N6_20 
ROOT
HETATM    1  C1  UNL     1      28.159  -1.759  53.261  1.00  0.00     0.072 A 
HETATM    2  C2  UNL     1      26.861  -1.328  53.086  1.00  0.00     0.052 A 
HETATM    3  C3  UNL     1      26.433  -0.034  53.277  1.00  0.00     0.060 A 
HETATM    4  C4  UNL     1      25.137   0.390  53.101  1.00  0.00     0.143 A 
HETATM    5  N3  UNL     1      24.984   1.693  53.350  1.00  0.00    -0.223 NA
HETATM    6  C11 UNL     1      25.906   2.564  53.729  1.00  0.00     0.237 A 
HETATM    7  N4  UNL     1      27.163   2.117  53.893  1.00  0.00    -0.221 NA
HETATM    8  C12 UNL     1      27.438   0.820  53.670  1.00  0.00     0.167 A 
HETATM    9  N5  UNL     1      28.712   0.432  53.849  1.00  0.00    -0.209 NA
HETATM   10  C13 UNL     1      29.118  -0.842  53.658  1.00  0.00     0.150 A 
ENDROOT
BRANCH   4  11
HETATM   11  N2  UNL     1      24.143  -0.526  52.700  1.00  0.00    -0.340 N 
HETATM   12  H4  UNL     1      24.357  -1.296  52.044  1.00  0.00     0.167 HD
BRANCH  11  13
HETATM   13  C5  UNL     1      22.794  -0.587  53.065  1.00  0.00     0.035 A 
HETATM   14  C6  UNL     1      22.294  -1.120  54.236  1.00  0.00     0.029 A 
HETATM   15  C7  UNL     1      20.969  -1.176  54.582  1.00  0.00     0.004 A 
HETATM   16  C8  UNL     1      20.017  -0.673  53.725  1.00  0.00     0.019 A 
HETATM   17  C9  UNL     1      20.465  -0.127  52.535  1.00  0.00     0.013 A 
HETATM   18 BR1  UNL     1      19.095   0.552  51.395  1.00  0.00    -0.051 Br
HETATM   19  C10 UNL     1      21.811  -0.097  52.240  1.00  0.00     0.048 A 
ENDBRANCH  11  13
ENDBRANCH   4  11
BRANCH   1  20
HETATM   20  N1  UNL     1      28.533  -3.115  53.046  1.00  0.00    -0.396 N 
HETATM   21  H1  UNL     1      29.428  -3.218  52.479  1.00  0.00     0.156 HD
HETATM   22  H2  UNL     1      28.224  -4.091  53.258  1.00  0.00     0.156 HD
ENDBRANCH   1  20
BRANCH  10  23
HETATM   23  N6  UNL     1      30.466  -1.238  53.851  1.00  0.00    -0.382 N 
HETATM   24  H10 UNL     1      31.037  -1.244  54.703  1.00  0.00     0.157 HD
HETATM   25  H11 UNL     1      30.811  -1.545  52.915  1.00  0.00     0.157 HD
ENDBRANCH  10  23
TORSDOF 4
ENDMDL
MODEL 3
REMARK VINA RESULT:      -7.4      3.913      5.997
REMARK  4 active torsions:
REMARK  status: ('A' for Active; 'I' for Inactive)
REMARK    1  A    between atoms: N1_1  and  C1_2 
REMARK    2  A    between atoms: C4_5  and  N2_6 
REMARK    3  A    between atoms: N2_6  and  C5_7 
REMARK    4  A    between atoms: C13_19  and  N6_20 
ROOT
HETATM    1  C1  UNL     1      20.509   0.510  51.599  1.00  0.00     0.072 A 
HETATM    2  C2  UNL     1      21.835   0.492  51.975  1.00  0.00     0.052 A 
HETATM    3  C3  UNL     1      22.322  -0.130  53.101  1.00  0.00     0.060 A 
HETATM    4  C4  UNL     1      23.645  -0.144  53.471  1.00  0.00     0.143 A 
HETATM    5  N3  UNL     1      23.856  -0.817  54.605  1.00  0.00    -0.223 NA
HETATM    6  C11 UNL     1      22.964  -1.435  55.363  1.00  0.00     0.237 A 
HETATM    7  N4  UNL     1      21.678  -1.401  54.974  1.00  0.00    -0.221 NA
HETATM    8  C12 UNL     1      21.345  -0.752  53.845  1.00  0.00     0.167 A 
HETATM    9  N5  UNL     1      20.044  -0.754  53.506  1.00  0.00    -0.209 NA
HETATM   10  C13 UNL     1      19.581  -0.139  52.397  1.00  0.00     0.150 A 
ENDROOT
BRANCH   4  11
HETATM   11  N2  UNL     1      24.608   0.512  52.676  1.00  0.00    -0.340 N 
HETATM   12  H4  UNL     1      24.364   0.896  51.747  1.00  0.00     0.167 HD
BRANCH  11  13
HETATM   13  C5  UNL     1      25.958   0.760  52.941  1.00  0.00     0.035 A 
HETATM   14  C6  UNL     1      26.531   2.001  53.138  1.00  0.00     0.029 A 
HETATM   15  C7  UNL     1      27.858   2.232  53.396  1.00  0.00     0.004 A 
HETATM   16  C8  UNL     1      28.734   1.172  53.474  1.00  0.00     0.019 A 
HETATM   17  C9  UNL     1      28.209  -0.094  53.285  1.00  0.00     0.013 A 
HETATM   18 BR1  UNL     1      29.476  -1.515  53.408  1.00  0.00    -0.051 Br
HETATM   19  C10 UNL     1      26.866  -0.267  53.029  1.00  0.00     0.048 A 
ENDBRANCH  11  13
ENDBRANCH   4  11
BRANCH   1  20
HETATM   20  N1  UNL     1      20.073   1.174  50.418  1.00  0.00    -0.396 N 
HETATM   21  H1  UNL     1      19.083   0.913  50.131  1.00  0.00     0.156 HD
HETATM   22  H2  UNL     1      20.400   1.860  49.700  1.00  0.00     0.156 HD
ENDBRANCH   1  20
BRANCH  10  23
HETATM   23  N6  UNL     1      18.206  -0.149  52.052  1.00  0.00    -0.382 N 
HETATM   24  H10 UNL     1      17.700  -0.726  51.371  1.00  0.00     0.157 HD
HETATM   25  H11 UNL     1      17.756   0.582  52.645  1.00  0.00     0.157 HD
ENDBRANCH  10  23
TORSDOF 4
ENDMDL
MODEL 4
REMARK VINA RESULT:      -7.3      2.342      2.642
REMARK  4 active torsions:
REMARK  status: ('A' for Active; 'I' for Inactive)
REMARK    1  A    between atoms: N1_1  and  C1_2 
REMARK    2  A    between atoms: C4_5  and  N2_6 
REMARK    3  A    between atoms: N2_6  and  C5_7 
REMARK    4  A    between atoms: C13_19  and  N6_20 
ROOT
HETATM    1  C1  UNL     1      27.090  -1.650  52.663  1.00  0.00     0.072 A 
HETATM    2  C2  UNL     1      26.791  -0.311  52.797  1.00  0.00     0.052 A 
HETATM    3  C3  UNL     1      27.618   0.622  53.379  1.00  0.00     0.060 A 
HETATM    4  C4  UNL     1      27.314   1.956  53.510  1.00  0.00     0.143 A 
HETATM    5  N3  UNL     1      28.286   2.649  54.109  1.00  0.00    -0.223 NA
HETATM    6  C11 UNL     1      29.446   2.200  54.562  1.00  0.00     0.237 A 
HETATM    7  N4  UNL     1      29.712   0.890  54.419  1.00  0.00    -0.221 NA
HETATM    8  C12 UNL     1      28.805   0.092  53.829  1.00  0.00     0.167 A 
HETATM    9  N5  UNL     1      29.128  -1.208  53.713  1.00  0.00    -0.209 NA
HETATM   10  C13 UNL     1      28.305  -2.112  53.140  1.00  0.00     0.150 A 
ENDROOT
BRANCH   4  11
HETATM   11  N2  UNL     1      26.082   2.450  53.034  1.00  0.00    -0.340 N 
HETATM   12  H4  UNL     1      25.283   2.601  53.673  1.00  0.00     0.167 HD
BRANCH  11  13
HETATM   13  C5  UNL     1      25.711   2.805  51.734  1.00  0.00     0.035 A 
HETATM   14  C6  UNL     1      26.573   3.125  50.704  1.00  0.00     0.029 A 
HETATM   15  C7  UNL     1      26.198   3.475  49.432  1.00  0.00     0.004 A 
HETATM   16  C8  UNL     1      24.862   3.527  49.104  1.00  0.00     0.019 A 
HETATM   17  C9  UNL     1      23.955   3.215  50.102  1.00  0.00     0.013 A 
HETATM   18 BR1  UNL     1      22.123   3.305  49.579  1.00  0.00    -0.051 Br
HETATM   19  C10 UNL     1      24.390   2.870  51.363  1.00  0.00     0.048 A 
ENDBRANCH  11  13
ENDBRANCH   4  11
BRANCH   1  20
HETATM   20  N1  UNL     1      26.186  -2.562  52.050  1.00  0.00    -0.396 N 
HETATM   21  H1  UNL     1      26.558  -2.977  51.144  1.00  0.00     0.156 HD
HETATM   22  H2  UNL     1      25.240  -2.987  52.183  1.00  0.00     0.156 HD
ENDBRANCH   1  20
BRANCH  10  23
HETATM   23  N6  UNL     1      28.658  -3.481  53.024  1.00  0.00    -0.382 N 
HETATM   24  H10 UNL     1      28.071  -4.301  52.835  1.00  0.00     0.157 HD
HETATM   25  H11 UNL     1      29.690  -3.525  53.175  1.00  0.00     0.157 HD
ENDBRANCH  10  23
TORSDOF 4
ENDMDL
MODEL 5
REMARK VINA RESULT:      -7.2      1.736      3.383
REMARK  4 active torsions:
REMARK  status: ('A' for Active; 'I' for Inactive)
REMARK    1  A    between atoms: N1_1  and  C1_2 
REMARK    2  A    between atoms: C4_5  and  N2_6 
REMARK    3  A    between atoms: N2_6  and  C5_7 
REMARK    4  A    between atoms: C13_19  and  N6_20 
ROOT
HETATM    1  C1  UNL     1      27.866   1.505  53.926  1.00  0.00     0.072 A 
HETATM    2  C2  UNL     1      26.692   2.122  53.548  1.00  0.00     0.052 A 
HETATM    3  C3  UNL     1      25.476   1.488  53.437  1.00  0.00     0.060 A 
HETATM    4  C4  UNL     1      24.308   2.107  53.059  1.00  0.00     0.143 A 
HETATM    5  N3  UNL     1      23.268   1.271  53.030  1.00  0.00    -0.223 NA
HETATM    6  C11 UNL     1      23.254  -0.023  53.312  1.00  0.00     0.237 A 
HETATM    7  N4  UNL     1      24.413  -0.598  53.677  1.00  0.00    -0.221 NA
HETATM    8  C12 UNL     1      25.530   0.148  53.743  1.00  0.00     0.167 A 
HETATM    9  N5  UNL     1      26.657  -0.483  54.115  1.00  0.00    -0.209 NA
HETATM   10  C13 UNL     1      27.844   0.152  54.219  1.00  0.00     0.150 A 
ENDROOT
BRANCH   4  11
HETATM   11  N2  UNL     1      24.306   3.484  52.753  1.00  0.00    -0.340 N 
HETATM   12  H4  UNL     1      24.405   4.198  53.494  1.00  0.00     0.167 HD
BRANCH  11  13
HETATM   13  C5  UNL     1      24.183   4.116  51.512  1.00  0.00     0.035 A 
HETATM   14  C6  UNL     1      24.382   3.527  50.279  1.00  0.00     0.029 A 
HETATM   15  C7  UNL     1      24.260   4.158  49.067  1.00  0.00     0.004 A 
HETATM   16  C8  UNL     1      23.913   5.489  49.022  1.00  0.00     0.019 A 
HETATM   17  C9  UNL     1      23.701   6.127  50.231  1.00  0.00     0.013 A 
HETATM   18 BR1  UNL     1      23.222   7.968  50.096  1.00  0.00    -0.051 Br
HETATM   19  C10 UNL     1      23.838   5.442  51.420  1.00  0.00     0.048 A 
ENDBRANCH  11  13
ENDBRANCH   4  11
BRANCH   1  20
HETATM   20  N1  UNL     1      29.092   2.223  54.020  1.00  0.00    -0.396 N 
HETATM   21  H1  UNL     1      29.802   1.938  53.281  1.00  0.00     0.156 HD
HETATM   22  H2  UNL     1      29.561   2.965  54.588  1.00  0.00     0.156 HD
ENDBRANCH   1  20
BRANCH  10  23
HETATM   23  N6  UNL     1      29.026  -0.525  54.613  1.00  0.00    -0.382 N 
HETATM   24  H10 UNL     1      29.969  -0.498  54.208  1.00  0.00     0.157 HD
HETATM   25  H11 UNL     1      28.764  -1.100  55.443  1.00  0.00     0.157 HD
ENDBRANCH  10  23
TORSDOF 4
ENDMDL
MODEL 6
REMARK VINA RESULT:      -7.2      2.832      5.646
REMARK  4 active torsions:
REMARK  status: ('A' for Active; 'I' for Inactive)
REMARK    1  A    between atoms: N1_1  and  C1_2 
REMARK    2  A    between atoms: C4_5  and  N2_6 
REMARK    3  A    between atoms: N2_6  and  C5_7 
REMARK    4  A    between atoms: C13_19  and  N6_20 
ROOT
HETATM    1  C1  UNL     1      27.774   0.668  54.147  1.00  0.00     0.072 A 
HETATM    2  C2  UNL     1      26.535   0.464  53.577  1.00  0.00     0.052 A 
HETATM    3  C3  UNL     1      26.000   1.234  52.570  1.00  0.00     0.060 A 
HETATM    4  C4  UNL     1      24.765   1.027  52.005  1.00  0.00     0.143 A 
HETATM    5  N3  UNL     1      24.482   1.912  51.047  1.00  0.00    -0.223 NA
HETATM    6  C11 UNL     1      25.233   2.913  50.614  1.00  0.00     0.237 A 
HETATM    7  N4  UNL     1      26.435   3.089  51.187  1.00  0.00    -0.221 NA
HETATM    8  C12 UNL     1      26.829   2.256  52.166  1.00  0.00     0.167 A 
HETATM    9  N5  UNL     1      28.042   2.481  52.701  1.00  0.00    -0.209 NA
HETATM   10  C13 UNL     1      28.554   1.717  53.689  1.00  0.00     0.150 A 
ENDROOT
BRANCH   4  11
HETATM   11  N2  UNL     1      23.951  -0.033  52.457  1.00  0.00    -0.340 N 
HETATM   12  H4  UNL     1      24.316  -0.998  52.522  1.00  0.00     0.167 HD
BRANCH  11  13
HETATM   13  C5  UNL     1      22.615  -0.012  52.870  1.00  0.00     0.035 A 
HETATM   14  C6  UNL     1      22.166  -0.166  54.167  1.00  0.00     0.029 A 
HETATM   15  C7  UNL     1      20.853  -0.146  54.561  1.00  0.00     0.004 A 
HETATM   16  C8  UNL     1      19.861   0.040  53.624  1.00  0.00     0.019 A 
HETATM   17  C9  UNL     1      20.259   0.200  52.309  1.00  0.00     0.013 A 
HETATM   18 BR1  UNL     1      18.836   0.453  51.064  1.00  0.00    -0.051 Br
HETATM   19  C10 UNL     1      21.594   0.171  51.970  1.00  0.00     0.048 A 
ENDBRANCH  11  13
ENDBRANCH   4  11
BRANCH   1  20
HETATM   20  N1  UNL     1      28.266  -0.169  55.188  1.00  0.00    -0.396 N 
HETATM   21  H1  UNL     1      28.977  -0.884  54.850  1.00  0.00     0.156 HD
HETATM   22  H2  UNL     1      28.170  -0.336  56.215  1.00  0.00     0.156 HD
ENDBRANCH   1  20
BRANCH  10  23
HETATM   23  N6  UNL     1      29.835   1.965  54.244  1.00  0.00    -0.382 N 
HETATM   24  H10 UNL     1      30.635   2.477  53.856  1.00  0.00     0.157 HD
HETATM   25  H11 UNL     1      29.835   1.508  55.182  1.00  0.00     0.157 HD
ENDBRANCH  10  23
TORSDOF 4
ENDMDL
MODEL 7
REMARK VINA RESULT:      -7.1      2.093      3.654
REMARK  4 active torsions:
REMARK  status: ('A' for Active; 'I' for Inactive)
REMARK    1  A    between atoms: N1_1  and  C1_2 
REMARK    2  A    between atoms: C4_5  and  N2_6 
REMARK    3  A    between atoms: N2_6  and  C5_7 
REMARK    4  A    between atoms: C13_19  and  N6_20 
ROOT
HETATM    1  C1  UNL     1      27.942   1.441  53.743  1.00  0.00     0.072 A 
HETATM    2  C2  UNL     1      26.775   2.055  53.340  1.00  0.00     0.052 A 
HETATM    3  C3  UNL     1      25.530   1.470  53.373  1.00  0.00     0.060 A 
HETATM    4  C4  UNL     1      24.370   2.087  52.969  1.00  0.00     0.143 A 
HETATM    5  N3  UNL     1      23.297   1.304  53.104  1.00  0.00    -0.223 NA
HETATM    6  C11 UNL     1      23.246   0.063  53.561  1.00  0.00     0.237 A 
HETATM    7  N4  UNL     1      24.398  -0.512  53.947  1.00  0.00    -0.221 NA
HETATM    8  C12 UNL     1      25.546   0.182  53.857  1.00  0.00     0.167 A 
HETATM    9  N5  UNL     1      26.665  -0.445  54.259  1.00  0.00    -0.209 NA
HETATM   10  C13 UNL     1      27.880   0.142  54.220  1.00  0.00     0.150 A 
ENDROOT
BRANCH   4  11
HETATM   11  N2  UNL     1      24.407   3.408  52.477  1.00  0.00    -0.340 N 
HETATM   12  H4  UNL     1      24.678   4.199  53.085  1.00  0.00     0.167 HD
BRANCH  11  13
HETATM   13  C5  UNL     1      24.117   3.885  51.195  1.00  0.00     0.035 A 
HETATM   14  C6  UNL     1      24.370   5.160  50.729  1.00  0.00     0.029 A 
HETATM   15  C7  UNL     1      24.079   5.618  49.469  1.00  0.00     0.004 A 
HETATM   16  C8  UNL     1      23.484   4.777  48.557  1.00  0.00     0.019 A 
HETATM   17  C9  UNL     1      23.209   3.487  48.974  1.00  0.00     0.013 A 
HETATM   18 BR1  UNL     1      22.387   2.375  47.661  1.00  0.00    -0.051 Br
HETATM   19  C10 UNL     1      23.524   3.081  50.253  1.00  0.00     0.048 A 
ENDBRANCH  11  13
ENDBRANCH   4  11
BRANCH   1  20
HETATM   20  N1  UNL     1      29.198   2.106  53.681  1.00  0.00    -0.396 N 
HETATM   21  H1  UNL     1      29.111   3.149  53.493  1.00  0.00     0.156 HD
HETATM   22  H2  UNL     1      30.224   1.921  53.759  1.00  0.00     0.156 HD
ENDBRANCH   1  20
BRANCH  10  23
HETATM   23  N6  UNL     1      29.053  -0.531  54.648  1.00  0.00    -0.382 N 
HETATM   24  H10 UNL     1      29.865  -0.850  54.108  1.00  0.00     0.157 HD
HETATM   25  H11 UNL     1      28.951  -0.659  55.678  1.00  0.00     0.157 HD
ENDBRANCH  10  23
TORSDOF 4
ENDMDL
MODEL 8
REMARK VINA RESULT:      -7.0      1.460      3.003
REMARK  4 active torsions:
REMARK  status: ('A' for Active; 'I' for Inactive)
REMARK    1  A    between atoms: N1_1  and  C1_2 
REMARK    2  A    between atoms: C4_5  and  N2_6 
REMARK    3  A    between atoms: N2_6  and  C5_7 
REMARK    4  A    between atoms: C13_19  and  N6_20 
ROOT
HETATM    1  C1  UNL     1      27.955   1.119  53.271  1.00  0.00     0.072 A 
HETATM    2  C2  UNL     1      27.385   1.745  52.183  1.00  0.00     0.052 A 
HETATM    3  C3  UNL     1      26.038   1.754  51.901  1.00  0.00     0.060 A 
HETATM    4  C4  UNL     1      25.475   2.380  50.815  1.00  0.00     0.143 A 
HETATM    5  N3  UNL     1      24.148   2.240  50.770  1.00  0.00    -0.223 NA
HETATM    6  C11 UNL     1      23.368   1.592  51.621  1.00  0.00     0.237 A 
HETATM    7  N4  UNL     1      23.950   0.990  52.672  1.00  0.00    -0.221 NA
HETATM    8  C12 UNL     1      25.284   1.064  52.822  1.00  0.00     0.167 A 
HETATM    9  N5  UNL     1      25.809   0.443  53.893  1.00  0.00    -0.209 NA
HETATM   10  C13 UNL     1      27.133   0.443  54.157  1.00  0.00     0.150 A 
ENDROOT
BRANCH   4  11
HETATM   11  N2  UNL     1      26.292   3.072  49.897  1.00  0.00    -0.340 N 
HETATM   12  H4  UNL     1      27.004   2.576  49.334  1.00  0.00     0.167 HD
BRANCH  11  13
HETATM   13  C5  UNL     1      26.315   4.434  49.581  1.00  0.00     0.035 A 
HETATM   14  C6  UNL     1      27.225   5.058  48.749  1.00  0.00     0.029 A 
HETATM   15  C7  UNL     1      27.239   6.396  48.448  1.00  0.00     0.004 A 
HETATM   16  C8  UNL     1      26.289   7.229  48.995  1.00  0.00     0.019 A 
HETATM   17  C9  UNL     1      25.354   6.653  49.836  1.00  0.00     0.013 A 
HETATM   18 BR1  UNL     1      24.068   7.864  50.558  1.00  0.00    -0.051 Br
HETATM   19  C10 UNL     1      25.388   5.302  50.103  1.00  0.00     0.048 A 
ENDBRANCH  11  13
ENDBRANCH   4  11
BRANCH   1  20
HETATM   20  N1  UNL     1      29.359   1.150  53.503  1.00  0.00    -0.396 N 
HETATM   21  H1  UNL     1      29.870   1.850  52.886  1.00  0.00     0.156 HD
HETATM   22  H2  UNL     1      30.099   0.705  54.092  1.00  0.00     0.156 HD
ENDBRANCH   1  20
BRANCH  10  23
HETATM   23  N6  UNL     1      27.673  -0.216  55.290  1.00  0.00    -0.382 N 
HETATM   24  H10 UNL     1      28.280  -1.041  55.348  1.00  0.00     0.157 HD
HETATM   25  H11 UNL     1      27.326   0.311  56.121  1.00  0.00     0.157 HD
ENDBRANCH  10  23
TORSDOF 4
ENDMDL
MODEL 9
REMARK VINA RESULT:      -7.0      2.972      4.856
REMARK  4 active torsions:
REMARK  status: ('A' for Active; 'I' for Inactive)
REMARK    1  A    between atoms: N1_1  and  C1_2 
REMARK    2  A    between atoms: C4_5  and  N2_6 
REMARK    3  A    between atoms: N2_6  and  C5_7 
REMARK    4  A    between atoms: C13_19  and  N6_20 
ROOT
HETATM    1  C1  UNL     1      27.297   1.680  53.507  1.00  0.00     0.072 A 
HETATM    2  C2  UNL     1      25.938   1.628  53.281  1.00  0.00     0.052 A 
HETATM    3  C3  UNL     1      25.094   0.672  53.797  1.00  0.00     0.060 A 
HETATM    4  C4  UNL     1      23.740   0.625  53.568  1.00  0.00     0.143 A 
HETATM    5  N3  UNL     1      23.149  -0.402  54.185  1.00  0.00    -0.223 NA
HETATM    6  C11 UNL     1      23.710  -1.325  54.950  1.00  0.00     0.237 A 
HETATM    7  N4  UNL     1      25.036  -1.252  55.153  1.00  0.00    -0.221 NA
HETATM    8  C12 UNL     1      25.739  -0.257  54.581  1.00  0.00     0.167 A 
HETATM    9  N5  UNL     1      27.061  -0.235  54.821  1.00  0.00    -0.209 NA
HETATM   10  C13 UNL     1      27.877   0.710  54.307  1.00  0.00     0.150 A 
ENDROOT
BRANCH   4  11
HETATM   11  N2  UNL     1      23.127   1.600  52.754  1.00  0.00    -0.340 N 
HETATM   12  H4  UNL     1      23.248   2.609  52.944  1.00  0.00     0.167 HD
BRANCH  11  13
HETATM   13  C5  UNL     1      22.310   1.432  51.632  1.00  0.00     0.035 A 
HETATM   14  C6  UNL     1      21.060   0.845  51.621  1.00  0.00     0.029 A 
HETATM   15  C7  UNL     1      20.267   0.683  50.513  1.00  0.00     0.004 A 
HETATM   16  C8  UNL     1      20.709   1.126  49.287  1.00  0.00     0.019 A 
HETATM   17  C9  UNL     1      21.956   1.723  49.244  1.00  0.00     0.013 A 
HETATM   18 BR1  UNL     1      22.505   2.313  47.515  1.00  0.00    -0.051 Br
HETATM   19  C10 UNL     1      22.710   1.859  50.390  1.00  0.00     0.048 A 
ENDBRANCH  11  13
ENDBRANCH   4  11
BRANCH   1  20
HETATM   20  N1  UNL     1      28.113   2.699  52.940  1.00  0.00    -0.396 N 
HETATM   21  H1  UNL     1      29.151   2.558  53.127  1.00  0.00     0.156 HD
HETATM   22  H2  UNL     1      28.047   3.579  52.378  1.00  0.00     0.156 HD
ENDBRANCH   1  20
BRANCH  10  23
HETATM   23  N6  UNL     1      29.271   0.722  54.569  1.00  0.00    -0.382 N 
HETATM   24  H10 UNL     1      29.986   0.012  54.373  1.00  0.00     0.157 HD
HETATM   25  H11 UNL     1      29.469   1.637  55.029  1.00  0.00     0.157 HD
ENDBRANCH  10  23
TORSDOF 4
ENDMDL
