MODEL 1
REMARK VINA RESULT:      -9.7      0.000      0.000
REMARK  3 active torsions:
REMARK  status: ('A' for Active; 'I' for Inactive)
REMARK    1  A    between atoms: C2_2  and  N1_3 
REMARK    2  A    between atoms: C6_7  and  O1_8 
REMARK    3  A    between atoms: O1_8  and  C7_9 
ROOT
HETATM    1  N1  UNL     1      26.548   0.554  53.543  1.00  0.00    -0.408 N 
HETATM    2  C3  UNL     1      26.853   0.960  52.238  1.00  0.00     0.144 C 
HETATM    3  C4  UNL     1      27.160   2.386  52.033  1.00  0.00    -0.009 C 
HETATM    4  C5  UNL     1      26.492   3.145  51.197  1.00  0.00     0.008 C 
HETATM    5  C6  UNL     1      25.354   2.953  50.263  1.00  0.00     0.192 C 
HETATM    6  C13 UNL     1      24.087   3.304  50.938  1.00  0.00     0.026 A 
HETATM    7 CL1  UNL     1      23.850   4.765  51.864  1.00  0.00    -0.176 Cl
HETATM    8  C14 UNL     1      22.831   3.056  51.227  1.00  0.00     0.141 A 
HETATM    9  C15 UNL     1      21.460   3.139  51.769  1.00  0.00     0.299 C 
HETATM   10  N2  UNL     1      21.075   2.025  52.556  1.00  0.00     0.131 N 
HETATM   11  C16 UNL     1      20.871   0.783  51.783  1.00  0.00     0.469 C 
HETATM   12  N3  UNL     1      19.415   0.782  51.549  1.00  0.00    -0.134 NA
HETATM   13  N4  UNL     1      18.635   0.128  52.277  1.00  0.00    -0.162 NA
HETATM   14  C17 UNL     1      18.974  -0.692  53.384  1.00  0.00     0.170 C 
HETATM   15  C18 UNL     1      20.262  -0.819  53.705  1.00  0.00     0.054 C 
HETATM   16  C19 UNL     1      21.217  -1.420  54.623  1.00  0.00     0.057 C 
HETATM   17  C20 UNL     1      22.476  -1.230  54.184  1.00  0.00     0.025 C 
HETATM   18  C21 UNL     1      22.319  -1.056  52.728  1.00  0.00     0.183 C 
HETATM   19  N5  UNL     1      21.112  -0.270  52.693  1.00  0.00    -0.326 N 
HETATM   20  N6  UNL     1      23.652  -1.199  54.976  1.00  0.00    -0.390 N 
HETATM   21  C22 UNL     1      24.966  -0.942  54.472  1.00  0.00     0.139 C 
HETATM   22  C23 UNL     1      25.210   0.452  53.974  1.00  0.00     0.136 C 
HETATM   23  H18 UNL     1      20.233   2.305  53.090  1.00  0.00     0.321 HD
HETATM   24  H24 UNL     1      23.577  -1.375  56.003  1.00  0.00     0.159 HD
ENDROOT
BRANCH   5  25
HETATM   25  O1  UNL     1      25.485   3.757  49.110  1.00  0.00    -0.337 OA
BRANCH  25  26
HETATM   26  C7  UNL     1      26.394   4.746  48.890  1.00  0.00     0.073 A 
HETATM   27  C8  UNL     1      25.855   6.021  48.990  1.00  0.00     0.037 A 
HETATM   28  C9  UNL     1      26.636   7.166  48.795  1.00  0.00     0.006 A 
HETATM   29  C10 UNL     1      27.975   7.047  48.496  1.00  0.00     0.042 A 
HETATM   30  C11 UNL     1      28.527   5.788  48.393  1.00  0.00     0.119 A 
HETATM   31  F1  UNL     1      29.840   5.551  48.102  1.00  0.00    -0.206 F 
HETATM   32  C12 UNL     1      27.741   4.653  48.589  1.00  0.00     0.079 A 
ENDBRANCH  25  26
ENDBRANCH   5  25
BRANCH   1  33
HETATM   33  C2  UNL     1      27.569   0.534  54.517  1.00  0.00     0.112 C 
HETATM   34  C1  UNL     1      28.706  -0.354  53.995  1.00  0.00     0.026 C 
ENDBRANCH   1  33
TORSDOF 3
ENDMDL
MODEL 2
REMARK VINA RESULT:      -9.1      2.101      5.010
REMARK  3 active torsions:
REMARK  status: ('A' for Active; 'I' for Inactive)
REMARK    1  A    between atoms: C2_2  and  N1_3 
REMARK    2  A    between atoms: C6_7  and  O1_8 
REMARK    3  A    between atoms: O1_8  and  C7_9 
ROOT
HETATM    1  N1  UNL     1      21.554   2.998  49.112  1.00  0.00    -0.408 N 
HETATM    2  C3  UNL     1      22.055   4.292  49.300  1.00  0.00     0.144 C 
HETATM    3  C4  UNL     1      23.069   4.766  48.341  1.00  0.00    -0.009 C 
HETATM    4  C5  UNL     1      24.259   5.174  48.710  1.00  0.00     0.008 C 
HETATM    5  C6  UNL     1      24.984   5.320  49.998  1.00  0.00     0.192 C 
HETATM    6  C13 UNL     1      25.779   4.103  50.265  1.00  0.00     0.026 A 
HETATM    7 CL1  UNL     1      26.818   3.341  49.087  1.00  0.00    -0.176 Cl
HETATM    8  C14 UNL     1      26.198   3.158  51.073  1.00  0.00     0.141 A 
HETATM    9  C15 UNL     1      26.874   1.970  51.633  1.00  0.00     0.299 C 
HETATM   10  N2  UNL     1      25.995   0.998  52.173  1.00  0.00     0.131 N 
HETATM   11  C16 UNL     1      25.330   1.414  53.424  1.00  0.00     0.469 C 
HETATM   12  N3  UNL     1      26.194   0.821  54.463  1.00  0.00    -0.134 NA
HETATM   13  N4  UNL     1      25.912  -0.272  55.002  1.00  0.00    -0.162 NA
HETATM   14  C17 UNL     1      24.781  -1.091  54.750  1.00  0.00     0.170 C 
HETATM   15  C18 UNL     1      23.885  -0.674  53.855  1.00  0.00     0.054 C 
HETATM   16  C19 UNL     1      22.639  -0.980  53.170  1.00  0.00     0.057 C 
HETATM   17  C20 UNL     1      22.214   0.087  52.466  1.00  0.00     0.025 C 
HETATM   18  C21 UNL     1      22.827   1.234  53.162  1.00  0.00     0.183 C 
HETATM   19  N5  UNL     1      24.122   0.685  53.470  1.00  0.00    -0.326 N 
HETATM   20  N6  UNL     1      21.379   0.066  51.320  1.00  0.00    -0.390 N 
HETATM   21  C22 UNL     1      20.994   1.223  50.573  1.00  0.00     0.139 C 
HETATM   22  C23 UNL     1      22.095   1.904  49.815  1.00  0.00     0.136 C 
HETATM   23  H18 UNL     1      26.537   0.122  52.281  1.00  0.00     0.321 HD
HETATM   24  H24 UNL     1      21.007  -0.850  50.980  1.00  0.00     0.159 HD
ENDROOT
BRANCH   5  25
HETATM   25  O1  UNL     1      25.855   6.430  49.983  1.00  0.00    -0.337 OA
BRANCH  25  26
HETATM   26  C7  UNL     1      26.550   6.923  48.921  1.00  0.00     0.073 A 
HETATM   27  C8  UNL     1      25.868   7.911  48.226  1.00  0.00     0.037 A 
HETATM   28  C9  UNL     1      26.423   8.535  47.103  1.00  0.00     0.006 A 
HETATM   29  C10 UNL     1      27.676   8.176  46.661  1.00  0.00     0.042 A 
HETATM   30  C11 UNL     1      28.369   7.196  47.340  1.00  0.00     0.119 A 
HETATM   31  F1  UNL     1      29.616   6.761  46.991  1.00  0.00    -0.206 F 
HETATM   32  C12 UNL     1      27.808   6.579  48.458  1.00  0.00     0.079 A 
ENDBRANCH  25  26
ENDBRANCH   5  25
BRANCH   1  33
HETATM   33  C2  UNL     1      20.715   2.737  48.007  1.00  0.00     0.112 C 
HETATM   34  C1  UNL     1      19.480   3.637  48.124  1.00  0.00     0.026 C 
ENDBRANCH   1  33
TORSDOF 3
ENDMDL
MODEL 3
REMARK VINA RESULT:      -8.5      4.118      8.554
REMARK  3 active torsions:
REMARK  status: ('A' for Active; 'I' for Inactive)
REMARK    1  A    between atoms: C2_2  and  N1_3 
REMARK    2  A    between atoms: C6_7  and  O1_8 
REMARK    3  A    between atoms: O1_8  and  C7_9 
ROOT
HETATM    1  N1  UNL     1      22.057   4.033  51.299  1.00  0.00    -0.408 N 
HETATM    2  C3  UNL     1      21.086   3.103  50.908  1.00  0.00     0.144 C 
HETATM    3  C4  UNL     1      19.963   2.874  51.834  1.00  0.00    -0.009 C 
HETATM    4  C5  UNL     1      19.671   1.691  52.319  1.00  0.00     0.008 C 
HETATM    5  C6  UNL     1      20.223   0.320  52.184  1.00  0.00     0.192 C 
HETATM    6  C13 UNL     1      21.193   0.061  53.269  1.00  0.00     0.026 A 
HETATM    7 CL1  UNL     1      20.887   0.411  54.952  1.00  0.00    -0.176 Cl
HETATM    8  C14 UNL     1      22.347  -0.396  53.694  1.00  0.00     0.141 A 
HETATM    9  C15 UNL     1      23.493  -0.775  54.545  1.00  0.00     0.299 C 
HETATM   10  N2  UNL     1      24.723  -0.183  54.165  1.00  0.00     0.131 N 
HETATM   11  C16 UNL     1      25.278  -0.703  52.899  1.00  0.00     0.469 C 
HETATM   12  N3  UNL     1      26.225  -1.736  53.360  1.00  0.00    -0.134 NA
HETATM   13  N4  UNL     1      27.448  -1.497  53.476  1.00  0.00    -0.162 NA
HETATM   14  C17 UNL     1      28.119  -0.279  53.194  1.00  0.00     0.170 C 
HETATM   15  C18 UNL     1      27.400   0.746  52.735  1.00  0.00     0.054 C 
HETATM   16  C19 UNL     1      27.430   2.134  52.301  1.00  0.00     0.057 C 
HETATM   17  C20 UNL     1      26.247   2.484  51.761  1.00  0.00     0.025 C 
HETATM   18  C21 UNL     1      25.680   1.203  51.296  1.00  0.00     0.183 C 
HETATM   19  N5  UNL     1      26.075   0.340  52.379  1.00  0.00    -0.326 N 
HETATM   20  N6  UNL     1      25.704   3.792  51.686  1.00  0.00    -0.390 N 
HETATM   21  C22 UNL     1      24.418   4.110  51.148  1.00  0.00     0.139 C 
HETATM   22  C23 UNL     1      23.242   3.617  51.938  1.00  0.00     0.136 C 
HETATM   23  H18 UNL     1      25.375  -0.294  54.962  1.00  0.00     0.321 HD
HETATM   24  H24 UNL     1      26.268   4.596  52.045  1.00  0.00     0.159 HD
ENDROOT
BRANCH   5  25
HETATM   25  O1  UNL     1      19.207  -0.659  52.248  1.00  0.00    -0.337 OA
BRANCH  25  26
HETATM   26  C7  UNL     1      17.939  -0.568  51.764  1.00  0.00     0.073 A 
HETATM   27  C8  UNL     1      16.966  -0.869  52.707  1.00  0.00     0.037 A 
HETATM   28  C9  UNL     1      15.603  -0.832  52.393  1.00  0.00     0.006 A 
HETATM   29  C10 UNL     1      15.194  -0.490  51.123  1.00  0.00     0.042 A 
HETATM   30  C11 UNL     1      16.147  -0.188  50.174  1.00  0.00     0.119 A 
HETATM   31  F1  UNL     1      15.858   0.164  48.886  1.00  0.00    -0.206 F 
HETATM   32  C12 UNL     1      17.504  -0.228  50.495  1.00  0.00     0.079 A 
ENDBRANCH  25  26
ENDBRANCH   5  25
BRANCH   1  33
HETATM   33  C2  UNL     1      21.726   5.405  51.328  1.00  0.00     0.112 C 
HETATM   34  C1  UNL     1      21.267   5.814  49.923  1.00  0.00     0.026 C 
ENDBRANCH   1  33
TORSDOF 3
ENDMDL
MODEL 4
REMARK VINA RESULT:      -8.1      2.785      5.422
REMARK  3 active torsions:
REMARK  status: ('A' for Active; 'I' for Inactive)
REMARK    1  A    between atoms: C2_2  and  N1_3 
REMARK    2  A    between atoms: C6_7  and  O1_8 
REMARK    3  A    between atoms: O1_8  and  C7_9 
ROOT
HETATM    1  N1  UNL     1      20.255   4.232  47.589  1.00  0.00    -0.408 N 
HETATM    2  C3  UNL     1      21.056   5.262  48.097  1.00  0.00     0.144 C 
HETATM    3  C4  UNL     1      22.448   5.330  47.620  1.00  0.00    -0.009 C 
HETATM    4  C5  UNL     1      23.480   5.288  48.428  1.00  0.00     0.008 C 
HETATM    5  C6  UNL     1      23.679   5.178  49.895  1.00  0.00     0.192 C 
HETATM    6  C13 UNL     1      23.858   3.760  50.272  1.00  0.00     0.026 A 
HETATM    7 CL1  UNL     1      24.937   2.663  49.446  1.00  0.00    -0.176 Cl
HETATM    8  C14 UNL     1      23.602   2.737  51.052  1.00  0.00     0.141 A 
HETATM    9  C15 UNL     1      23.580   1.392  51.662  1.00  0.00     0.299 C 
HETATM   10  N2  UNL     1      22.291   0.806  51.737  1.00  0.00     0.131 N 
HETATM   11  C16 UNL     1      21.394   1.447  52.719  1.00  0.00     0.469 C 
HETATM   12  N3  UNL     1      21.557   0.596  53.912  1.00  0.00    -0.134 NA
HETATM   13  N4  UNL     1      20.744  -0.318  54.180  1.00  0.00    -0.162 NA
HETATM   14  C17 UNL     1      19.583  -0.679  53.450  1.00  0.00     0.170 C 
HETATM   15  C18 UNL     1      19.280   0.022  52.357  1.00  0.00     0.054 C 
HETATM   16  C19 UNL     1      18.351   0.175  51.248  1.00  0.00     0.057 C 
HETATM   17  C20 UNL     1      18.603   1.315  50.577  1.00  0.00     0.025 C 
HETATM   18  C21 UNL     1      19.263   2.174  51.579  1.00  0.00     0.183 C 
HETATM   19  N5  UNL     1      20.085   1.200  52.250  1.00  0.00    -0.326 N 
HETATM   20  N6  UNL     1      18.298   1.582  49.218  1.00  0.00    -0.390 N 
HETATM   21  C22 UNL     1      18.631   2.792  48.532  1.00  0.00     0.139 C 
HETATM   22  C23 UNL     1      20.094   3.024  48.296  1.00  0.00     0.136 C 
HETATM   23  H18 UNL     1      22.426  -0.204  51.919  1.00  0.00     0.321 HD
HETATM   24  H24 UNL     1      17.793   0.857  48.660  1.00  0.00     0.159 HD
ENDROOT
BRANCH   5  25
HETATM   25  O1  UNL     1      24.813   5.902  50.323  1.00  0.00    -0.337 OA
BRANCH  25  26
HETATM   26  C7  UNL     1      25.948   6.155  49.616  1.00  0.00     0.073 A 
HETATM   27  C8  UNL     1      26.163   7.506  49.384  1.00  0.00     0.037 A 
HETATM   28  C9  UNL     1      27.279   7.960  48.671  1.00  0.00     0.006 A 
HETATM   29  C10 UNL     1      28.199   7.061  48.180  1.00  0.00     0.042 A 
HETATM   30  C11 UNL     1      28.001   5.715  48.402  1.00  0.00     0.119 A 
HETATM   31  F1  UNL     1      28.847   4.735  47.963  1.00  0.00    -0.206 F 
HETATM   32  C12 UNL     1      26.886   5.271  49.113  1.00  0.00     0.079 A 
ENDBRANCH  25  26
ENDBRANCH   5  25
BRANCH   1  33
HETATM   33  C2  UNL     1      19.850   4.276  46.237  1.00  0.00     0.112 C 
HETATM   34  C1  UNL     1      19.068   5.576  46.017  1.00  0.00     0.026 C 
ENDBRANCH   1  33
TORSDOF 3
ENDMDL
MODEL 5
REMARK VINA RESULT:      -8.1      3.810      7.926
REMARK  3 active torsions:
REMARK  status: ('A' for Active; 'I' for Inactive)
REMARK    1  A    between atoms: C2_2  and  N1_3 
REMARK    2  A    between atoms: C6_7  and  O1_8 
REMARK    3  A    between atoms: O1_8  and  C7_9 
ROOT
HETATM    1  N1  UNL     1      23.736   4.192  48.921  1.00  0.00    -0.408 N 
HETATM    2  C3  UNL     1      22.769   3.321  48.404  1.00  0.00     0.144 C 
HETATM    3  C4  UNL     1      21.363   3.601  48.743  1.00  0.00    -0.009 C 
HETATM    4  C5  UNL     1      20.590   2.730  49.347  1.00  0.00     0.008 C 
HETATM    5  C6  UNL     1      20.744   1.345  49.859  1.00  0.00     0.192 C 
HETATM    6  C13 UNL     1      21.114   1.378  51.289  1.00  0.00     0.026 A 
HETATM    7 CL1  UNL     1      20.302   2.361  52.482  1.00  0.00    -0.176 Cl
HETATM    8  C14 UNL     1      21.841   0.961  52.299  1.00  0.00     0.141 A 
HETATM    9  C15 UNL     1      22.422   0.773  53.643  1.00  0.00     0.299 C 
HETATM   10  N2  UNL     1      23.817   1.015  53.716  1.00  0.00     0.131 N 
HETATM   11  C16 UNL     1      24.642  -0.004  53.037  1.00  0.00     0.469 C 
HETATM   12  N3  UNL     1      25.012  -0.910  54.141  1.00  0.00    -0.134 NA
HETATM   13  N4  UNL     1      26.113  -0.810  54.728  1.00  0.00    -0.162 NA
HETATM   14  C17 UNL     1      27.152   0.118  54.458  1.00  0.00     0.170 C 
HETATM   15  C18 UNL     1      26.980   0.987  53.462  1.00  0.00     0.054 C 
HETATM   16  C19 UNL     1      27.559   2.101  52.726  1.00  0.00     0.057 C 
HETATM   17  C20 UNL     1      26.820   2.380  51.636  1.00  0.00     0.025 C 
HETATM   18  C21 UNL     1      26.140   1.105  51.336  1.00  0.00     0.183 C 
HETATM   19  N5  UNL     1      25.834   0.658  52.671  1.00  0.00    -0.326 N 
HETATM   20  N6  UNL     1      26.736   3.628  50.968  1.00  0.00    -0.390 N 
HETATM   21  C22 UNL     1      25.896   3.893  49.841  1.00  0.00     0.139 C 
HETATM   22  C23 UNL     1      24.421   3.887  50.114  1.00  0.00     0.136 C 
HETATM   23  H18 UNL     1      24.057   1.120  54.718  1.00  0.00     0.321 HD
HETATM   24  H24 UNL     1      27.321   4.425  51.307  1.00  0.00     0.159 HD
ENDROOT
BRANCH   5  25
HETATM   25  O1  UNL     1      19.551   0.603  49.722  1.00  0.00    -0.337 OA
BRANCH  25  26
HETATM   26  C7  UNL     1      18.388   0.771  50.409  1.00  0.00     0.073 A 
HETATM   27  C8  UNL     1      18.127  -0.255  51.307  1.00  0.00     0.037 A 
HETATM   28  C9  UNL     1      16.976  -0.258  52.103  1.00  0.00     0.006 A 
HETATM   29  C10 UNL     1      16.068   0.773  52.011  1.00  0.00     0.042 A 
HETATM   30  C11 UNL     1      16.313   1.801  51.125  1.00  0.00     0.119 A 
HETATM   31  F1  UNL     1      15.484   2.873  50.950  1.00  0.00    -0.206 F 
HETATM   32  C12 UNL     1      17.462   1.796  50.335  1.00  0.00     0.079 A 
ENDBRANCH  25  26
ENDBRANCH   5  25
BRANCH   1  33
HETATM   33  C2  UNL     1      23.817   5.509  48.419  1.00  0.00     0.112 C 
HETATM   34  C1  UNL     1      23.384   6.470  49.533  1.00  0.00     0.026 C 
ENDBRANCH   1  33
TORSDOF 3
ENDMDL
MODEL 6
REMARK VINA RESULT:      -8.0      7.729     12.056
REMARK  3 active torsions:
REMARK  status: ('A' for Active; 'I' for Inactive)
REMARK    1  A    between atoms: C2_2  and  N1_3 
REMARK    2  A    between atoms: C6_7  and  O1_8 
REMARK    3  A    between atoms: O1_8  and  C7_9 
ROOT
HETATM    1  N1  UNL     1      31.780   9.559  44.392  1.00  0.00    -0.408 N 
HETATM    2  C3  UNL     1      30.454   9.545  44.843  1.00  0.00     0.144 C 
HETATM    3  C4  UNL     1      30.122  10.419  45.981  1.00  0.00    -0.009 C 
HETATM    4  C5  UNL     1      29.606   9.966  47.099  1.00  0.00     0.008 C 
HETATM    5  C6  UNL     1      29.199   8.637  47.622  1.00  0.00     0.192 C 
HETATM    6  C13 UNL     1      30.314   8.037  48.385  1.00  0.00     0.026 A 
HETATM    7 CL1  UNL     1      31.235   8.893  49.597  1.00  0.00    -0.176 Cl
HETATM    8  C14 UNL     1      31.079   7.016  48.692  1.00  0.00     0.141 A 
HETATM    9  C15 UNL     1      32.117   6.155  49.293  1.00  0.00     0.299 C 
HETATM   10  N2  UNL     1      33.009   5.575  48.357  1.00  0.00     0.131 N 
HETATM   11  C16 UNL     1      32.400   4.531  47.509  1.00  0.00     0.469 C 
HETATM   12  N3  UNL     1      32.759   3.288  48.216  1.00  0.00    -0.134 NA
HETATM   13  N4  UNL     1      33.746   2.601  47.872  1.00  0.00    -0.162 NA
HETATM   14  C17 UNL     1      34.642   2.856  46.802  1.00  0.00     0.170 C 
HETATM   15  C18 UNL     1      34.431   3.932  46.044  1.00  0.00     0.054 C 
HETATM   16  C19 UNL     1      34.907   4.719  44.917  1.00  0.00     0.057 C 
HETATM   17  C20 UNL     1      34.004   5.662  44.587  1.00  0.00     0.025 C 
HETATM   18  C21 UNL     1      32.725   5.111  45.075  1.00  0.00     0.183 C 
HETATM   19  N5  UNL     1      33.157   4.524  46.317  1.00  0.00    -0.326 N 
HETATM   20  N6  UNL     1      34.267   6.892  43.931  1.00  0.00    -0.390 N 
HETATM   21  C22 UNL     1      33.281   7.889  43.646  1.00  0.00     0.139 C 
HETATM   22  C23 UNL     1      32.705   8.594  44.838  1.00  0.00     0.136 C 
HETATM   23  H18 UNL     1      33.828   5.230  48.888  1.00  0.00     0.321 HD
HETATM   24  H24 UNL     1      35.243   7.106  43.626  1.00  0.00     0.159 HD
ENDROOT
BRANCH   5  25
HETATM   25  O1  UNL     1      28.076   8.733  48.472  1.00  0.00    -0.337 OA
BRANCH  25  26
HETATM   26  C7  UNL     1      27.285   7.719  48.916  1.00  0.00     0.073 A 
HETATM   27  C8  UNL     1      26.331   8.126  49.837  1.00  0.00     0.037 A 
HETATM   28  C9  UNL     1      25.427   7.222  50.407  1.00  0.00     0.006 A 
HETATM   29  C10 UNL     1      25.468   5.891  50.059  1.00  0.00     0.042 A 
HETATM   30  C11 UNL     1      26.410   5.468  49.145  1.00  0.00     0.119 A 
HETATM   31  F1  UNL     1      26.542   4.175  48.726  1.00  0.00    -0.206 F 
HETATM   32  C12 UNL     1      27.306   6.376  48.582  1.00  0.00     0.079 A 
ENDBRANCH  25  26
ENDBRANCH   5  25
BRANCH   1  33
HETATM   33  C2  UNL     1      32.271  10.704  43.731  1.00  0.00     0.112 C 
HETATM   34  C1  UNL     1      33.253  11.413  44.672  1.00  0.00     0.026 C 
ENDBRANCH   1  33
TORSDOF 3
ENDMDL
MODEL 7
REMARK VINA RESULT:      -8.0      7.036     11.435
REMARK  3 active torsions:
REMARK  status: ('A' for Active; 'I' for Inactive)
REMARK    1  A    between atoms: C2_2  and  N1_3 
REMARK    2  A    between atoms: C6_7  and  O1_8 
REMARK    3  A    between atoms: O1_8  and  C7_9 
ROOT
HETATM    1  N1  UNL     1      26.923   6.896  48.787  1.00  0.00    -0.408 N 
HETATM    2  C3  UNL     1      27.761   6.207  47.900  1.00  0.00     0.144 C 
HETATM    3  C4  UNL     1      28.972   5.586  48.465  1.00  0.00    -0.009 C 
HETATM    4  C5  UNL     1      30.180   5.869  48.039  1.00  0.00     0.008 C 
HETATM    5  C6  UNL     1      30.763   6.759  47.004  1.00  0.00     0.192 C 
HETATM    6  C13 UNL     1      31.126   8.059  47.607  1.00  0.00     0.026 A 
HETATM    7 CL1  UNL     1      32.020   8.223  49.098  1.00  0.00    -0.176 Cl
HETATM    8  C14 UNL     1      31.150   9.370  47.584  1.00  0.00     0.141 A 
HETATM    9  C15 UNL     1      31.376  10.789  47.928  1.00  0.00     0.299 C 
HETATM   10  N2  UNL     1      30.192  11.565  48.010  1.00  0.00     0.131 N 
HETATM   11  C16 UNL     1      29.543  11.813  46.707  1.00  0.00     0.469 C 
HETATM   12  N3  UNL     1      30.067  13.139  46.330  1.00  0.00    -0.134 NA
HETATM   13  N4  UNL     1      29.414  14.185  46.542  1.00  0.00    -0.162 NA
HETATM   14  C17 UNL     1      28.128  14.294  47.131  1.00  0.00     0.170 C 
HETATM   15  C18 UNL     1      27.505  13.174  47.498  1.00  0.00     0.054 C 
HETATM   16  C19 UNL     1      26.311  12.608  48.106  1.00  0.00     0.057 C 
HETATM   17  C20 UNL     1      26.304  11.268  47.973  1.00  0.00     0.025 C 
HETATM   18  C21 UNL     1      27.146  11.028  46.785  1.00  0.00     0.183 C 
HETATM   19  N5  UNL     1      28.176  12.012  46.999  1.00  0.00    -0.326 N 
HETATM   20  N6  UNL     1      25.637  10.338  48.810  1.00  0.00    -0.390 N 
HETATM   21  C22 UNL     1      25.699   8.917  48.660  1.00  0.00     0.139 C 
HETATM   22  C23 UNL     1      27.032   8.291  48.948  1.00  0.00     0.136 C 
HETATM   23  H18 UNL     1      30.434  12.440  48.508  1.00  0.00     0.321 HD
HETATM   24  H24 UNL     1      25.052  10.695  49.599  1.00  0.00     0.159 HD
ENDROOT
BRANCH   5  25
HETATM   25  O1  UNL     1      31.920   6.196  46.424  1.00  0.00    -0.337 OA
BRANCH  25  26
HETATM   26  C7  UNL     1      32.603   5.095  46.841  1.00  0.00     0.073 A 
HETATM   27  C8  UNL     1      33.787   5.398  47.498  1.00  0.00     0.037 A 
HETATM   28  C9  UNL     1      34.626   4.395  47.999  1.00  0.00     0.006 A 
HETATM   29  C10 UNL     1      34.287   3.070  47.846  1.00  0.00     0.042 A 
HETATM   30  C11 UNL     1      33.113   2.751  47.195  1.00  0.00     0.119 A 
HETATM   31  F1  UNL     1      32.678   1.473  46.988  1.00  0.00    -0.206 F 
HETATM   32  C12 UNL     1      32.284   3.756  46.700  1.00  0.00     0.079 A 
ENDBRANCH  25  26
ENDBRANCH   5  25
BRANCH   1  33
HETATM   33  C2  UNL     1      26.177   6.167  49.738  1.00  0.00     0.112 C 
HETATM   34  C1  UNL     1      25.263   5.195  48.981  1.00  0.00     0.026 C 
ENDBRANCH   1  33
TORSDOF 3
ENDMDL
MODEL 8
REMARK VINA RESULT:      -7.9      2.741      3.354
REMARK  3 active torsions:
REMARK  status: ('A' for Active; 'I' for Inactive)
REMARK    1  A    between atoms: C2_2  and  N1_3 
REMARK    2  A    between atoms: C6_7  and  O1_8 
REMARK    3  A    between atoms: O1_8  and  C7_9 
ROOT
HETATM    1  N1  UNL     1      26.084   1.315  52.787  1.00  0.00    -0.408 N 
HETATM    2  C3  UNL     1      26.147   1.771  51.464  1.00  0.00     0.144 C 
HETATM    3  C4  UNL     1      26.205   3.228  51.258  1.00  0.00    -0.009 C 
HETATM    4  C5  UNL     1      25.324   3.881  50.538  1.00  0.00     0.008 C 
HETATM    5  C6  UNL     1      24.114   3.523  49.757  1.00  0.00     0.192 C 
HETATM    6  C13 UNL     1      22.910   3.673  50.602  1.00  0.00     0.026 A 
HETATM    7 CL1  UNL     1      22.583   5.076  51.589  1.00  0.00    -0.176 Cl
HETATM    8  C14 UNL     1      21.756   3.235  51.048  1.00  0.00     0.141 A 
HETATM    9  C15 UNL     1      20.474   3.105  51.768  1.00  0.00     0.299 C 
HETATM   10  N2  UNL     1      20.369   1.940  52.569  1.00  0.00     0.131 N 
HETATM   11  C16 UNL     1      20.253   0.686  51.798  1.00  0.00     0.469 C 
HETATM   12  N3  UNL     1      18.796   0.464  51.757  1.00  0.00    -0.134 NA
HETATM   13  N4  UNL     1      18.228  -0.305  52.565  1.00  0.00    -0.162 NA
HETATM   14  C17 UNL     1      18.832  -1.070  53.595  1.00  0.00     0.170 C 
HETATM   15  C18 UNL     1      20.156  -1.002  53.741  1.00  0.00     0.054 C 
HETATM   16  C19 UNL     1      21.305  -1.455  54.509  1.00  0.00     0.057 C 
HETATM   17  C20 UNL     1      22.450  -1.072  53.913  1.00  0.00     0.025 C 
HETATM   18  C21 UNL     1      22.074  -0.916  52.495  1.00  0.00     0.183 C 
HETATM   19  N5  UNL     1      20.769  -0.323  52.640  1.00  0.00    -0.326 N 
HETATM   20  N6  UNL     1      23.704  -0.867  54.543  1.00  0.00    -0.390 N 
HETATM   21  C22 UNL     1      24.885  -0.409  53.877  1.00  0.00     0.139 C 
HETATM   22  C23 UNL     1      24.847   1.008  53.388  1.00  0.00     0.136 C 
HETATM   23  H18 UNL     1      19.575   2.085  53.217  1.00  0.00     0.321 HD
HETATM   24  H24 UNL     1      23.795  -1.058  55.566  1.00  0.00     0.159 HD
ENDROOT
BRANCH   5  25
HETATM   25  O1  UNL     1      23.966   4.345  48.618  1.00  0.00    -0.337 OA
BRANCH  25  26
HETATM   26  C7  UNL     1      22.815   4.645  47.957  1.00  0.00     0.073 A 
HETATM   27  C8  UNL     1      22.263   3.559  47.291  1.00  0.00     0.037 A 
HETATM   28  C9  UNL     1      21.079   3.675  46.555  1.00  0.00     0.006 A 
HETATM   29  C10 UNL     1      20.428   4.885  46.477  1.00  0.00     0.042 A 
HETATM   30  C11 UNL     1      20.962   5.974  47.133  1.00  0.00     0.119 A 
HETATM   31  F1  UNL     1      20.403   7.221  47.125  1.00  0.00    -0.206 F 
HETATM   32  C12 UNL     1      22.143   5.850  47.864  1.00  0.00     0.079 A 
ENDBRANCH  25  26
ENDBRANCH   5  25
BRANCH   1  33
HETATM   33  C2  UNL     1      27.218   1.445  53.617  1.00  0.00     0.112 C 
HETATM   34  C1  UNL     1      28.237   0.378  53.200  1.00  0.00     0.026 C 
ENDBRANCH   1  33
TORSDOF 3
ENDMDL
MODEL 9
REMARK VINA RESULT:      -7.8     10.200     12.580
REMARK  3 active torsions:
REMARK  status: ('A' for Active; 'I' for Inactive)
REMARK    1  A    between atoms: C2_2  and  N1_3 
REMARK    2  A    between atoms: C6_7  and  O1_8 
REMARK    3  A    between atoms: O1_8  and  C7_9 
ROOT
HETATM    1  N1  UNL     1      33.001   4.469  47.113  1.00  0.00    -0.408 N 
HETATM    2  C3  UNL     1      32.793   4.158  45.764  1.00  0.00     0.144 C 
HETATM    3  C4  UNL     1      33.952   4.275  44.861  1.00  0.00    -0.009 C 
HETATM    4  C5  UNL     1      33.950   5.045  43.799  1.00  0.00     0.008 C 
HETATM    5  C6  UNL     1      32.979   5.960  43.149  1.00  0.00     0.192 C 
HETATM    6  C13 UNL     1      33.192   7.341  43.632  1.00  0.00     0.026 A 
HETATM    7 CL1  UNL     1      34.758   8.109  43.723  1.00  0.00    -0.176 Cl
HETATM    8  C14 UNL     1      32.734   8.487  44.077  1.00  0.00     0.141 A 
HETATM    9  C15 UNL     1      32.631   9.871  44.583  1.00  0.00     0.299 C 
HETATM   10  N2  UNL     1      31.985   9.986  45.840  1.00  0.00     0.131 N 
HETATM   11  C16 UNL     1      30.533   9.718  45.799  1.00  0.00     0.469 C 
HETATM   12  N3  UNL     1      29.957  11.070  45.679  1.00  0.00    -0.134 NA
HETATM   13  N4  UNL     1      29.533  11.692  46.679  1.00  0.00    -0.162 NA
HETATM   14  C17 UNL     1      29.511  11.245  48.025  1.00  0.00     0.170 C 
HETATM   15  C18 UNL     1      29.972  10.023  48.293  1.00  0.00     0.054 C 
HETATM   16  C19 UNL     1      30.233   9.039  49.332  1.00  0.00     0.057 C 
HETATM   17  C20 UNL     1      30.573   7.856  48.786  1.00  0.00     0.025 C 
HETATM   18  C21 UNL     1      29.955   7.897  47.446  1.00  0.00     0.183 C 
HETATM   19  N5  UNL     1      30.195   9.273  47.095  1.00  0.00    -0.326 N 
HETATM   20  N6  UNL     1      31.356   6.839  49.390  1.00  0.00    -0.390 N 
HETATM   21  C22 UNL     1      31.736   5.617  48.751  1.00  0.00     0.139 C 
HETATM   22  C23 UNL     1      32.705   5.753  47.614  1.00  0.00     0.136 C 
HETATM   23  H18 UNL     1      32.206  10.927  46.212  1.00  0.00     0.321 HD
HETATM   24  H24 UNL     1      31.689   6.972  50.371  1.00  0.00     0.159 HD
ENDROOT
BRANCH   5  25
HETATM   25  O1  UNL     1      33.113   5.951  41.744  1.00  0.00    -0.337 OA
BRANCH  25  26
HETATM   26  C7  UNL     1      33.406   4.887  40.947  1.00  0.00     0.073 A 
HETATM   27  C8  UNL     1      34.501   5.101  40.122  1.00  0.00     0.037 A 
HETATM   28  C9  UNL     1      34.951   4.121  39.231  1.00  0.00     0.006 A 
HETATM   29  C10 UNL     1      34.307   2.906  39.156  1.00  0.00     0.042 A 
HETATM   30  C11 UNL     1      33.218   2.676  39.969  1.00  0.00     0.119 A 
HETATM   31  F1  UNL     1      32.504   1.511  39.979  1.00  0.00    -0.206 F 
HETATM   32  C12 UNL     1      32.776   3.659  40.854  1.00  0.00     0.079 A 
ENDBRANCH  25  26
ENDBRANCH   5  25
BRANCH   1  33
HETATM   33  C2  UNL     1      33.783   3.604  47.909  1.00  0.00     0.112 C 
HETATM   34  C1  UNL     1      33.167   2.201  47.831  1.00  0.00     0.026 C 
ENDBRANCH   1  33
TORSDOF 3
ENDMDL
