MODEL 1
REMARK VINA RESULT:      -7.3      0.000      0.000
REMARK  6 active torsions:
REMARK  status: ('A' for Active; 'I' for Inactive)
REMARK    1  A    between atoms: N1_7  and  C6_8 
REMARK    2  A    between atoms: C6_8  and  C7_9 
REMARK    3  A    between atoms: C7_9  and  O2_10 
REMARK    4  A    between atoms: O2_10  and  C8_11 
REMARK    5  A    between atoms: C10_13  and  N2_14 
REMARK    6  A    between atoms: C18_23  and  O3_24 
ROOT
HETATM    1  C8  UNL     1      23.597   0.754  53.129  1.00  0.00     0.100 A 
HETATM    2  C9  UNL     1      23.572   1.996  52.650  1.00  0.00     0.048 A 
HETATM    3  C10 UNL     1      22.662   2.890  51.890  1.00  0.00     0.256 A 
HETATM    4  C16 UNL     1      21.406   2.150  51.580  1.00  0.00     0.070 A 
HETATM    5  C17 UNL     1      21.496   0.783  52.138  1.00  0.00     0.015 A 
HETATM    6  C18 UNL     1      22.344   0.031  52.817  1.00  0.00     0.097 A 
ENDROOT
BRANCH   1   7
HETATM    7  O2  UNL     1      24.578   0.085  53.837  1.00  0.00    -0.347 OA
BRANCH   7   8
HETATM    8  C7  UNL     1      25.357  -0.959  53.269  1.00  0.00     0.195 C 
BRANCH   8   9
HETATM    9  C6  UNL     1      26.349  -0.387  52.316  1.00  0.00     0.149 C 
BRANCH   9  10
HETATM   10  N1  UNL     1      27.319   0.491  52.907  1.00  0.00    -0.382 N 
HETATM   11  C2  UNL     1      27.650   1.853  52.730  1.00  0.00     0.009 C 
HETATM   12  C1  UNL     1      26.953   2.416  51.761  1.00  0.00     0.060 C 
HETATM   13  C3  UNL     1      28.662   2.517  53.558  1.00  0.00     0.219 C 
HETATM   14  O1  UNL     1      28.918   1.824  54.740  1.00  0.00    -0.384 OA
HETATM   15  C4  UNL     1      29.200   0.500  54.511  1.00  0.00     0.187 C 
HETATM   16  C5  UNL     1      28.068  -0.282  53.884  1.00  0.00     0.149 C 
ENDBRANCH   9  10
ENDBRANCH   8   9
ENDBRANCH   7   8
ENDBRANCH   1   7
BRANCH   6  17
HETATM   17  O3  UNL     1      22.072  -1.268  53.181  1.00  0.00    -0.353 OA
HETATM   18  C19 UNL     1      21.523  -1.629  54.437  1.00  0.00     0.210 C 
ENDBRANCH   6  17
BRANCH   3  19
HETATM   19  N2  UNL     1      23.326   3.480  50.754  1.00  0.00     0.134 N 
HETATM   20  C11 UNL     1      22.386   3.822  49.734  1.00  0.00     0.304 C 
HETATM   21  C12 UNL     1      23.109   4.257  48.479  1.00  0.00    -0.001 C 
HETATM   22  C13 UNL     1      23.996   5.214  48.827  1.00  0.00    -0.024 C 
HETATM   23  C14 UNL     1      24.206   5.732  50.206  1.00  0.00     0.096 C 
HETATM   24  C15 UNL     1      24.040   4.654  51.223  1.00  0.00     0.409 C 
HETATM   25  F1  UNL     1      23.340   5.235  52.292  1.00  0.00    -0.216 F 
ENDBRANCH   3  19
TORSDOF 6
ENDMDL
MODEL 2
REMARK VINA RESULT:      -7.1      2.513      4.520
REMARK  6 active torsions:
REMARK  status: ('A' for Active; 'I' for Inactive)
REMARK    1  A    between atoms: N1_7  and  C6_8 
REMARK    2  A    between atoms: C6_8  and  C7_9 
REMARK    3  A    between atoms: C7_9  and  O2_10 
REMARK    4  A    between atoms: O2_10  and  C8_11 
REMARK    5  A    between atoms: C10_13  and  N2_14 
REMARK    6  A    between atoms: C18_23  and  O3_24 
ROOT
HETATM    1  C8  UNL     1      25.590   2.269  51.366  1.00  0.00     0.100 A 
HETATM    2  C9  UNL     1      24.331   1.836  51.351  1.00  0.00     0.048 A 
HETATM    3  C10 UNL     1      23.110   1.961  50.516  1.00  0.00     0.256 A 
HETATM    4  C16 UNL     1      23.407   2.843  49.352  1.00  0.00     0.070 A 
HETATM    5  C17 UNL     1      24.816   3.288  49.427  1.00  0.00     0.015 A 
HETATM    6  C18 UNL     1      25.874   3.142  50.206  1.00  0.00     0.097 A 
ENDROOT
BRANCH   1   7
HETATM    7  O2  UNL     1      26.611   2.029  52.267  1.00  0.00    -0.347 OA
BRANCH   7   8
HETATM    8  C7  UNL     1      26.455   2.211  53.668  1.00  0.00     0.195 C 
BRANCH   8   9
HETATM    9  C6  UNL     1      26.301   0.888  54.335  1.00  0.00     0.149 C 
BRANCH   9  10
HETATM   10  N1  UNL     1      27.140  -0.154  53.814  1.00  0.00    -0.382 N 
HETATM   11  C2  UNL     1      28.531  -0.400  53.836  1.00  0.00     0.009 C 
HETATM   12  C1  UNL     1      29.204   0.580  54.406  1.00  0.00     0.060 C 
HETATM   13  C3  UNL     1      29.108  -1.626  53.274  1.00  0.00     0.219 C 
HETATM   14  O1  UNL     1      28.162  -2.639  53.129  1.00  0.00    -0.384 OA
HETATM   15  C4  UNL     1      27.049  -2.213  52.449  1.00  0.00     0.187 C 
HETATM   16  C5  UNL     1      26.278  -1.110  53.138  1.00  0.00     0.149 C 
ENDBRANCH   9  10
ENDBRANCH   8   9
ENDBRANCH   7   8
ENDBRANCH   1   7
BRANCH   6  17
HETATM   17  O3  UNL     1      27.086   3.740  49.947  1.00  0.00    -0.353 OA
HETATM   18  C19 UNL     1      27.287   4.680  48.905  1.00  0.00     0.210 C 
ENDBRANCH   6  17
BRANCH   3  19
HETATM   19  N2  UNL     1      21.966   2.346  51.305  1.00  0.00     0.134 N 
HETATM   20  C11 UNL     1      21.140   3.266  50.591  1.00  0.00     0.304 C 
HETATM   21  C12 UNL     1      20.056   3.809  51.495  1.00  0.00    -0.001 C 
HETATM   22  C13 UNL     1      19.432   2.756  52.066  1.00  0.00    -0.024 C 
HETATM   23  C14 UNL     1      19.769   1.325  51.831  1.00  0.00     0.096 C 
HETATM   24  C15 UNL     1      21.235   1.136  51.639  1.00  0.00     0.409 C 
HETATM   25  F1  UNL     1      21.373   0.201  50.602  1.00  0.00    -0.216 F 
ENDBRANCH   3  19
TORSDOF 6
ENDMDL
MODEL 3
REMARK VINA RESULT:      -7.1      2.496      5.704
REMARK  6 active torsions:
REMARK  status: ('A' for Active; 'I' for Inactive)
REMARK    1  A    between atoms: N1_7  and  C6_8 
REMARK    2  A    between atoms: C6_8  and  C7_9 
REMARK    3  A    between atoms: C7_9  and  O2_10 
REMARK    4  A    between atoms: O2_10  and  C8_11 
REMARK    5  A    between atoms: C10_13  and  N2_14 
REMARK    6  A    between atoms: C18_23  and  O3_24 
ROOT
HETATM    1  C8  UNL     1      23.400   2.141  52.723  1.00  0.00     0.100 A 
HETATM    2  C9  UNL     1      24.700   1.864  52.637  1.00  0.00     0.048 A 
HETATM    3  C10 UNL     1      25.615   0.706  52.795  1.00  0.00     0.256 A 
HETATM    4  C16 UNL     1      24.814  -0.497  53.162  1.00  0.00     0.070 A 
HETATM    5  C17 UNL     1      23.384  -0.124  53.239  1.00  0.00     0.015 A 
HETATM    6  C18 UNL     1      22.615   0.940  53.085  1.00  0.00     0.097 A 
ENDROOT
BRANCH   1   7
HETATM    7  O2  UNL     1      22.722   3.330  52.530  1.00  0.00    -0.347 OA
BRANCH   7   8
HETATM    8  C7  UNL     1      23.386   4.580  52.411  1.00  0.00     0.195 C 
BRANCH   8   9
HETATM    9  C6  UNL     1      23.224   5.108  51.027  1.00  0.00     0.149 C 
BRANCH   9  10
HETATM   10  N1  UNL     1      24.443   5.521  50.390  1.00  0.00    -0.382 N 
HETATM   11  C2  UNL     1      25.403   4.866  49.587  1.00  0.00     0.009 C 
HETATM   12  C1  UNL     1      25.149   3.579  49.451  1.00  0.00     0.060 C 
HETATM   13  C3  UNL     1      26.535   5.586  48.994  1.00  0.00     0.219 C 
HETATM   14  O1  UNL     1      26.323   6.963  48.950  1.00  0.00    -0.384 OA
HETATM   15  C4  UNL     1      25.951   7.467  50.171  1.00  0.00     0.187 C 
HETATM   16  C5  UNL     1      24.640   6.927  50.698  1.00  0.00     0.149 C 
ENDBRANCH   9  10
ENDBRANCH   8   9
ENDBRANCH   7   8
ENDBRANCH   1   7
BRANCH   6  17
HETATM   17  O3  UNL     1      21.249   0.910  53.246  1.00  0.00    -0.353 OA
HETATM   18  C19 UNL     1      20.601   0.213  54.297  1.00  0.00     0.210 C 
ENDBRANCH   6  17
BRANCH   3  19
HETATM   19  N2  UNL     1      26.709   1.012  53.684  1.00  0.00     0.134 N 
HETATM   20  C11 UNL     1      27.610  -0.091  53.783  1.00  0.00     0.304 C 
HETATM   21  C12 UNL     1      28.640   0.167  54.859  1.00  0.00    -0.001 C 
HETATM   22  C13 UNL     1      29.192   1.377  54.617  1.00  0.00    -0.024 C 
HETATM   23  C14 UNL     1      28.833   2.275  53.485  1.00  0.00     0.096 C 
HETATM   24  C15 UNL     1      27.380   2.191  53.164  1.00  0.00     0.409 C 
HETATM   25  F1  UNL     1      27.291   2.204  51.764  1.00  0.00    -0.216 F 
ENDBRANCH   3  19
TORSDOF 6
ENDMDL
MODEL 4
REMARK VINA RESULT:      -7.0      2.920      6.863
REMARK  6 active torsions:
REMARK  status: ('A' for Active; 'I' for Inactive)
REMARK    1  A    between atoms: N1_7  and  C6_8 
REMARK    2  A    between atoms: C6_8  and  C7_9 
REMARK    3  A    between atoms: C7_9  and  O2_10 
REMARK    4  A    between atoms: O2_10  and  C8_11 
REMARK    5  A    between atoms: C10_13  and  N2_14 
REMARK    6  A    between atoms: C18_23  and  O3_24 
ROOT
HETATM    1  C8  UNL     1      24.770   2.582  50.981  1.00  0.00     0.100 A 
HETATM    2  C9  UNL     1      25.403   1.506  51.447  1.00  0.00     0.048 A 
HETATM    3  C10 UNL     1      25.815   0.920  52.747  1.00  0.00     0.256 A 
HETATM    4  C16 UNL     1      25.381   1.828  53.847  1.00  0.00     0.070 A 
HETATM    5  C17 UNL     1      24.687   2.998  53.265  1.00  0.00     0.015 A 
HETATM    6  C18 UNL     1      24.343   3.474  52.081  1.00  0.00     0.097 A 
ENDROOT
BRANCH   1   7
HETATM    7  O2  UNL     1      24.476   2.958  49.684  1.00  0.00    -0.347 OA
BRANCH   7   8
HETATM    8  C7  UNL     1      23.144   3.072  49.203  1.00  0.00     0.195 C 
BRANCH   8   9
HETATM    9  C6  UNL     1      22.385   1.829  49.516  1.00  0.00     0.149 C 
BRANCH   9  10
HETATM   10  N1  UNL     1      21.361   1.979  50.510  1.00  0.00    -0.382 N 
HETATM   11  C2  UNL     1      21.105   1.370  51.760  1.00  0.00     0.009 C 
HETATM   12  C1  UNL     1      21.966   0.409  52.033  1.00  0.00     0.060 C 
HETATM   13  C3  UNL     1      19.995   1.799  52.616  1.00  0.00     0.219 C 
HETATM   14  O1  UNL     1      19.531   3.071  52.285  1.00  0.00    -0.384 OA
HETATM   15  C4  UNL     1      19.247   3.186  50.947  1.00  0.00     0.187 C 
HETATM   16  C5  UNL     1      20.440   3.000  50.037  1.00  0.00     0.149 C 
ENDBRANCH   9  10
ENDBRANCH   8   9
ENDBRANCH   7   8
ENDBRANCH   1   7
BRANCH   6  17
HETATM   17  O3  UNL     1      23.666   4.661  51.916  1.00  0.00    -0.353 OA
HETATM   18  C19 UNL     1      22.393   4.920  52.484  1.00  0.00     0.210 C 
ENDBRANCH   6  17
BRANCH   3  19
HETATM   19  N2  UNL     1      27.215   0.572  52.751  1.00  0.00     0.134 N 
HETATM   20  C11 UNL     1      27.847   1.017  53.952  1.00  0.00     0.304 C 
HETATM   21  C12 UNL     1      29.344   0.821  53.860  1.00  0.00    -0.001 C 
HETATM   22  C13 UNL     1      29.569  -0.461  53.499  1.00  0.00    -0.024 C 
HETATM   23  C14 UNL     1      28.515  -1.480  53.243  1.00  0.00     0.096 C 
HETATM   24  C15 UNL     1      27.310  -0.870  52.612  1.00  0.00     0.409 C 
HETATM   25  F1  UNL     1      26.202  -1.476  53.226  1.00  0.00    -0.216 F 
ENDBRANCH   3  19
TORSDOF 6
ENDMDL
MODEL 5
REMARK VINA RESULT:      -7.0      3.041      5.836
REMARK  6 active torsions:
REMARK  status: ('A' for Active; 'I' for Inactive)
REMARK    1  A    between atoms: N1_7  and  C6_8 
REMARK    2  A    between atoms: C6_8  and  C7_9 
REMARK    3  A    between atoms: C7_9  and  O2_10 
REMARK    4  A    between atoms: O2_10  and  C8_11 
REMARK    5  A    between atoms: C10_13  and  N2_14 
REMARK    6  A    between atoms: C18_23  and  O3_24 
ROOT
HETATM    1  C8  UNL     1      23.022   3.223  52.038  1.00  0.00     0.100 A 
HETATM    2  C9  UNL     1      24.116   2.463  52.058  1.00  0.00     0.048 A 
HETATM    3  C10 UNL     1      24.511   1.071  52.392  1.00  0.00     0.256 A 
HETATM    4  C16 UNL     1      23.303   0.319  52.836  1.00  0.00     0.070 A 
HETATM    5  C17 UNL     1      22.127   1.215  52.788  1.00  0.00     0.015 A 
HETATM    6  C18 UNL     1      21.831   2.465  52.478  1.00  0.00     0.097 A 
ENDROOT
BRANCH   1   7
HETATM    7  O2  UNL     1      22.858   4.549  51.681  1.00  0.00    -0.347 OA
BRANCH   7   8
HETATM    8  C7  UNL     1      23.933   5.358  51.225  1.00  0.00     0.195 C 
BRANCH   8   9
HETATM    9  C6  UNL     1      24.206   5.073  49.789  1.00  0.00     0.149 C 
BRANCH   9  10
HETATM   10  N1  UNL     1      25.550   5.341  49.363  1.00  0.00    -0.382 N 
HETATM   11  C2  UNL     1      26.693   4.538  49.148  1.00  0.00     0.009 C 
HETATM   12  C1  UNL     1      26.487   3.277  49.475  1.00  0.00     0.060 C 
HETATM   13  C3  UNL     1      27.941   5.096  48.618  1.00  0.00     0.219 C 
HETATM   14  O1  UNL     1      27.747   6.321  47.983  1.00  0.00    -0.384 OA
HETATM   15  C4  UNL     1      27.058   7.209  48.771  1.00  0.00     0.187 C 
HETATM   16  C5  UNL     1      25.655   6.772  49.128  1.00  0.00     0.149 C 
ENDBRANCH   9  10
ENDBRANCH   8   9
ENDBRANCH   7   8
ENDBRANCH   1   7
BRANCH   6  17
HETATM   17  O3  UNL     1      20.557   2.978  52.561  1.00  0.00    -0.353 OA
HETATM   18  C19 UNL     1      19.654   3.010  51.468  1.00  0.00     0.210 C 
ENDBRANCH   6  17
BRANCH   3  19
HETATM   19  N2  UNL     1      25.627   1.041  53.306  1.00  0.00     0.134 N 
HETATM   20  C11 UNL     1      25.517  -0.060  54.208  1.00  0.00     0.304 C 
HETATM   21  C12 UNL     1      26.581   0.032  55.279  1.00  0.00    -0.001 C 
HETATM   22  C13 UNL     1      27.772   0.188  54.661  1.00  0.00    -0.024 C 
HETATM   23  C14 UNL     1      27.975   0.256  53.188  1.00  0.00     0.096 C 
HETATM   24  C15 UNL     1      26.841   0.951  52.514  1.00  0.00     0.409 C 
HETATM   25  F1  UNL     1      26.584   0.225  51.340  1.00  0.00    -0.216 F 
ENDBRANCH   3  19
TORSDOF 6
ENDMDL
MODEL 6
REMARK VINA RESULT:      -6.8      3.872      6.749
REMARK  6 active torsions:
REMARK  status: ('A' for Active; 'I' for Inactive)
REMARK    1  A    between atoms: N1_7  and  C6_8 
REMARK    2  A    between atoms: C6_8  and  C7_9 
REMARK    3  A    between atoms: C7_9  and  O2_10 
REMARK    4  A    between atoms: O2_10  and  C8_11 
REMARK    5  A    between atoms: C10_13  and  N2_14 
REMARK    6  A    between atoms: C18_23  and  O3_24 
ROOT
HETATM    1  C8  UNL     1      24.683   3.763  50.627  1.00  0.00     0.100 A 
HETATM    2  C9  UNL     1      25.277   2.606  50.911  1.00  0.00     0.048 A 
HETATM    3  C10 UNL     1      25.398   1.652  52.043  1.00  0.00     0.256 A 
HETATM    4  C16 UNL     1      24.611   2.169  53.198  1.00  0.00     0.070 A 
HETATM    5  C17 UNL     1      23.977   3.451  52.818  1.00  0.00     0.015 A 
HETATM    6  C18 UNL     1      23.902   4.265  51.780  1.00  0.00     0.097 A 
ENDROOT
BRANCH   1   7
HETATM    7  O2  UNL     1      24.695   4.517  49.469  1.00  0.00    -0.347 OA
BRANCH   7   8
HETATM    8  C7  UNL     1      25.870   5.144  48.975  1.00  0.00     0.195 C 
BRANCH   8   9
HETATM    9  C6  UNL     1      25.941   6.547  49.471  1.00  0.00     0.149 C 
BRANCH   9  10
HETATM   10  N1  UNL     1      27.144   7.251  49.125  1.00  0.00    -0.382 N 
HETATM   11  C2  UNL     1      27.650   8.537  49.420  1.00  0.00     0.009 C 
HETATM   12  C1  UNL     1      26.794   9.266  50.109  1.00  0.00     0.060 C 
HETATM   13  C3  UNL     1      28.984   8.961  48.984  1.00  0.00     0.219 C 
HETATM   14  O1  UNL     1      29.804   7.881  48.659  1.00  0.00    -0.384 OA
HETATM   15  C4  UNL     1      29.201   7.023  47.773  1.00  0.00     0.187 C 
HETATM   16  C5  UNL     1      27.944   6.365  48.297  1.00  0.00     0.149 C 
ENDBRANCH   9  10
ENDBRANCH   8   9
ENDBRANCH   7   8
ENDBRANCH   1   7
BRANCH   6  17
HETATM   17  O3  UNL     1      23.177   5.435  51.791  1.00  0.00    -0.353 OA
HETATM   18  C19 UNL     1      21.810   5.510  51.425  1.00  0.00     0.210 C 
ENDBRANCH   6  17
BRANCH   3  19
HETATM   19  N2  UNL     1      26.778   1.341  52.328  1.00  0.00     0.134 N 
HETATM   20  C11 UNL     1      27.159   1.840  53.610  1.00  0.00     0.304 C 
HETATM   21  C12 UNL     1      28.649   1.680  53.814  1.00  0.00    -0.001 C 
HETATM   22  C13 UNL     1      28.963   0.393  53.550  1.00  0.00    -0.024 C 
HETATM   23  C14 UNL     1      27.997  -0.661  53.134  1.00  0.00     0.096 C 
HETATM   24  C15 UNL     1      26.925  -0.102  52.262  1.00  0.00     0.409 C 
HETATM   25  F1  UNL     1      25.732  -0.716  52.673  1.00  0.00    -0.216 F 
ENDBRANCH   3  19
TORSDOF 6
ENDMDL
MODEL 7
REMARK VINA RESULT:      -6.7      2.566      6.570
REMARK  6 active torsions:
REMARK  status: ('A' for Active; 'I' for Inactive)
REMARK    1  A    between atoms: N1_7  and  C6_8 
REMARK    2  A    between atoms: C6_8  and  C7_9 
REMARK    3  A    between atoms: C7_9  and  O2_10 
REMARK    4  A    between atoms: O2_10  and  C8_11 
REMARK    5  A    between atoms: C10_13  and  N2_14 
REMARK    6  A    between atoms: C18_23  and  O3_24 
ROOT
HETATM    1  C8  UNL     1      23.539   3.579  51.177  1.00  0.00     0.100 A 
HETATM    2  C9  UNL     1      24.453   3.119  52.030  1.00  0.00     0.048 A 
HETATM    3  C10 UNL     1      25.865   2.659  52.023  1.00  0.00     0.256 A 
HETATM    4  C16 UNL     1      26.395   2.744  50.633  1.00  0.00     0.070 A 
HETATM    5  C17 UNL     1      25.335   3.261  49.739  1.00  0.00     0.015 A 
HETATM    6  C18 UNL     1      24.077   3.661  49.802  1.00  0.00     0.097 A 
ENDROOT
BRANCH   1   7
HETATM    7  O2  UNL     1      22.229   3.967  51.390  1.00  0.00    -0.347 OA
BRANCH   7   8
HETATM    8  C7  UNL     1      21.300   3.167  52.108  1.00  0.00     0.195 C 
BRANCH   8   9
HETATM    9  C6  UNL     1      21.307   1.778  51.570  1.00  0.00     0.149 C 
BRANCH   9  10
HETATM   10  N1  UNL     1      20.812   0.777  52.472  1.00  0.00    -0.382 N 
HETATM   11  C2  UNL     1      19.650  -0.026  52.508  1.00  0.00     0.009 C 
HETATM   12  C1  UNL     1      18.813   0.260  51.530  1.00  0.00     0.060 C 
HETATM   13  C3  UNL     1      19.448  -1.049  53.540  1.00  0.00     0.219 C 
HETATM   14  O1  UNL     1      20.640  -1.413  54.164  1.00  0.00    -0.384 OA
HETATM   15  C4  UNL     1      21.338  -0.323  54.623  1.00  0.00     0.187 C 
HETATM   16  C5  UNL     1      21.787   0.632  53.540  1.00  0.00     0.149 C 
ENDBRANCH   9  10
ENDBRANCH   8   9
ENDBRANCH   7   8
ENDBRANCH   1   7
BRANCH   6  17
HETATM   17  O3  UNL     1      23.372   4.100  48.704  1.00  0.00    -0.353 OA
HETATM   18  C19 UNL     1      23.289   5.463  48.322  1.00  0.00     0.210 C 
ENDBRANCH   6  17
BRANCH   3  19
HETATM   19  N2  UNL     1      26.005   1.372  52.659  1.00  0.00     0.134 N 
HETATM   20  C11 UNL     1      26.667   0.446  51.796  1.00  0.00     0.304 C 
HETATM   21  C12 UNL     1      26.635  -0.943  52.392  1.00  0.00    -0.001 C 
HETATM   22  C13 UNL     1      27.102  -0.857  53.657  1.00  0.00    -0.024 C 
HETATM   23  C14 UNL     1      27.561   0.393  54.322  1.00  0.00     0.096 C 
HETATM   24  C15 UNL     1      26.752   1.568  53.888  1.00  0.00     0.409 C 
HETATM   25  F1  UNL     1      27.661   2.624  53.724  1.00  0.00    -0.216 F 
ENDBRANCH   3  19
TORSDOF 6
ENDMDL
MODEL 8
REMARK VINA RESULT:      -6.7      3.034      7.061
REMARK  6 active torsions:
REMARK  status: ('A' for Active; 'I' for Inactive)
REMARK    1  A    between atoms: N1_7  and  C6_8 
REMARK    2  A    between atoms: C6_8  and  C7_9 
REMARK    3  A    between atoms: C7_9  and  O2_10 
REMARK    4  A    between atoms: O2_10  and  C8_11 
REMARK    5  A    between atoms: C10_13  and  N2_14 
REMARK    6  A    between atoms: C18_23  and  O3_24 
ROOT
HETATM    1  C8  UNL     1      23.217   2.039  51.070  1.00  0.00     0.100 A 
HETATM    2  C9  UNL     1      24.014   1.280  51.820  1.00  0.00     0.048 A 
HETATM    3  C10 UNL     1      24.869   1.400  53.029  1.00  0.00     0.256 A 
HETATM    4  C16 UNL     1      24.798   2.801  53.535  1.00  0.00     0.070 A 
HETATM    5  C17 UNL     1      23.898   3.587  52.662  1.00  0.00     0.015 A 
HETATM    6  C18 UNL     1      23.152   3.425  51.583  1.00  0.00     0.097 A 
ENDROOT
BRANCH   1   7
HETATM    7  O2  UNL     1      22.483   1.726  49.942  1.00  0.00    -0.347 OA
BRANCH   7   8
HETATM    8  C7  UNL     1      21.542   0.661  49.911  1.00  0.00     0.195 C 
BRANCH   8   9
HETATM    9  C6  UNL     1      20.180   1.182  50.219  1.00  0.00     0.149 C 
BRANCH   9  10
HETATM   10  N1  UNL     1      19.465   0.446  51.222  1.00  0.00    -0.382 N 
HETATM   11  C2  UNL     1      18.174  -0.125  51.291  1.00  0.00     0.009 C 
HETATM   12  C1  UNL     1      17.454   0.137  50.217  1.00  0.00     0.060 C 
HETATM   13  C3  UNL     1      17.736  -0.911  52.448  1.00  0.00     0.219 C 
HETATM   14  O1  UNL     1      18.807  -1.369  53.213  1.00  0.00    -0.384 OA
HETATM   15  C4  UNL     1      19.671  -0.357  53.552  1.00  0.00     0.187 C 
HETATM   16  C5  UNL     1      20.342   0.313  52.374  1.00  0.00     0.149 C 
ENDBRANCH   9  10
ENDBRANCH   8   9
ENDBRANCH   7   8
ENDBRANCH   1   7
BRANCH   6  17
HETATM   17  O3  UNL     1      22.410   4.439  51.023  1.00  0.00    -0.353 OA
HETATM   18  C19 UNL     1      21.041   4.661  51.317  1.00  0.00     0.210 C 
ENDBRANCH   6  17
BRANCH   3  19
HETATM   19  N2  UNL     1      26.200   0.899  52.788  1.00  0.00     0.134 N 
HETATM   20  C11 UNL     1      27.084   1.271  53.846  1.00  0.00     0.304 C 
HETATM   21  C12 UNL     1      28.509   0.910  53.490  1.00  0.00    -0.001 C 
HETATM   22  C13 UNL     1      28.523  -0.390  53.121  1.00  0.00    -0.024 C 
HETATM   23  C14 UNL     1      27.335  -1.285  53.081  1.00  0.00     0.096 C 
HETATM   24  C15 UNL     1      26.110  -0.545  52.664  1.00  0.00     0.409 C 
HETATM   25  F1  UNL     1      25.072  -1.023  53.479  1.00  0.00    -0.216 F 
ENDBRANCH   3  19
TORSDOF 6
ENDMDL
MODEL 9
REMARK VINA RESULT:      -6.5      2.236      6.155
REMARK  6 active torsions:
REMARK  status: ('A' for Active; 'I' for Inactive)
REMARK    1  A    between atoms: N1_7  and  C6_8 
REMARK    2  A    between atoms: C6_8  and  C7_9 
REMARK    3  A    between atoms: C7_9  and  O2_10 
REMARK    4  A    between atoms: O2_10  and  C8_11 
REMARK    5  A    between atoms: C10_13  and  N2_14 
REMARK    6  A    between atoms: C18_23  and  O3_24 
ROOT
HETATM    1  C8  UNL     1      23.146   1.795  52.789  1.00  0.00     0.100 A 
HETATM    2  C9  UNL     1      24.464   1.659  52.653  1.00  0.00     0.048 A 
HETATM    3  C10 UNL     1      25.502   0.603  52.758  1.00  0.00     0.256 A 
HETATM    4  C16 UNL     1      24.847  -0.683  53.133  1.00  0.00     0.070 A 
HETATM    5  C17 UNL     1      23.390  -0.465  53.266  1.00  0.00     0.015 A 
HETATM    6  C18 UNL     1      22.507   0.513  53.158  1.00  0.00     0.097 A 
ENDROOT
BRANCH   1   7
HETATM    7  O2  UNL     1      22.338   2.907  52.641  1.00  0.00    -0.347 OA
BRANCH   7   8
HETATM    8  C7  UNL     1      22.813   4.132  52.100  1.00  0.00     0.195 C 
BRANCH   8   9
HETATM    9  C6  UNL     1      21.959   4.540  50.949  1.00  0.00     0.149 C 
BRANCH   9  10
HETATM   10  N1  UNL     1      21.867   3.574  49.891  1.00  0.00    -0.382 N 
HETATM   11  C2  UNL     1      22.783   3.059  48.946  1.00  0.00     0.009 C 
HETATM   12  C1  UNL     1      23.960   3.650  49.018  1.00  0.00     0.060 C 
HETATM   13  C3  UNL     1      22.414   1.988  48.015  1.00  0.00     0.219 C 
HETATM   14  O1  UNL     1      21.286   1.286  48.436  1.00  0.00    -0.384 OA
HETATM   15  C4  UNL     1      20.237   2.121  48.731  1.00  0.00     0.187 C 
HETATM   16  C5  UNL     1      20.501   3.077  49.873  1.00  0.00     0.149 C 
ENDBRANCH   9  10
ENDBRANCH   8   9
ENDBRANCH   7   8
ENDBRANCH   1   7
BRANCH   6  17
HETATM   17  O3  UNL     1      21.159   0.334  53.367  1.00  0.00    -0.353 OA
HETATM   18  C19 UNL     1      20.608  -0.821  53.978  1.00  0.00     0.210 C 
ENDBRANCH   6  17
BRANCH   3  19
HETATM   19  N2  UNL     1      26.589   1.013  53.613  1.00  0.00     0.134 N 
HETATM   20  C11 UNL     1      27.497  -0.067  53.836  1.00  0.00     0.304 C 
HETATM   21  C12 UNL     1      28.520   0.316  54.882  1.00  0.00    -0.001 C 
HETATM   22  C13 UNL     1      29.065   1.495  54.511  1.00  0.00    -0.024 C 
HETATM   23  C14 UNL     1      28.706   2.262  53.287  1.00  0.00     0.096 C 
HETATM   24  C15 UNL     1      27.255   2.133  52.970  1.00  0.00     0.409 C 
HETATM   25  F1  UNL     1      27.173   1.992  51.576  1.00  0.00    -0.216 F 
ENDBRANCH   3  19
TORSDOF 6
ENDMDL
