MODEL 1
REMARK VINA RESULT:      -7.6      0.000      0.000
REMARK  8 active torsions:
REMARK  status: ('A' for Active; 'I' for Inactive)
REMARK    1  A    between atoms: O1_1  and  C1_2 
REMARK    2  A    between atoms: C1_2  and  C2_3 
REMARK    3  A    between atoms: C2_3  and  C3_4 
REMARK    4  A    between atoms: C3_4  and  C4_5 
REMARK    5  A    between atoms: C4_5  and  O2_6 
REMARK    6  A    between atoms: O2_6  and  C5_7 
REMARK    7  A    between atoms: C9_13  and  N3_14 
REMARK    8  A    between atoms: N3_14  and  C10_15 
ROOT
HETATM    1  C5  UNL     1      22.979   1.094  51.818  1.00  0.00     0.166 A 
HETATM    2  C6  UNL     1      22.161   1.318  50.612  1.00  0.00     0.097 A 
HETATM    3  C7  UNL     1      23.154   2.296  50.200  1.00  0.00     0.051 A 
HETATM    4  N1  UNL     1      23.549   3.198  49.266  1.00  0.00    -0.246 NA
HETATM    5  C8  UNL     1      24.700   3.896  49.443  1.00  0.00     0.235 A 
HETATM    6  N2  UNL     1      25.446   3.697  50.535  1.00  0.00    -0.224 NA
HETATM    7  C9  UNL     1      25.096   2.819  51.482  1.00  0.00     0.140 A 
HETATM    8  C16 UNL     1      23.910   2.093  51.309  1.00  0.00     0.042 A 
ENDROOT
BRANCH   7   9
HETATM    9  N3  UNL     1      25.859   2.585  52.644  1.00  0.00    -0.340 N 
HETATM   10  H10 UNL     1      25.714   3.223  53.482  1.00  0.00     0.167 HD
BRANCH   9  11
HETATM   11  C10 UNL     1      26.836   1.601  52.907  1.00  0.00     0.035 A 
HETATM   12  C11 UNL     1      28.098   1.904  53.439  1.00  0.00     0.032 A 
HETATM   13  C12 UNL     1      29.055   0.955  53.700  1.00  0.00     0.046 A 
HETATM   14  C13 UNL     1      28.810  -0.356  53.442  1.00  0.00     0.138 A 
HETATM   15  F1  UNL     1      29.794  -1.240  53.720  1.00  0.00    -0.204 F 
HETATM   16  C14 UNL     1      27.605  -0.724  52.924  1.00  0.00     0.074 A 
HETATM   17 CL1  UNL     1      27.337  -2.420  52.609  1.00  0.00    -0.081 Cl
HETATM   18  C15 UNL     1      26.671   0.252  52.676  1.00  0.00     0.056 A 
ENDBRANCH   9  11
ENDBRANCH   7   9
BRANCH   1  19
HETATM   19  O2  UNL     1      22.435   1.528  53.030  1.00  0.00    -0.379 OA
BRANCH  19  20
HETATM   20  C4  UNL     1      21.087   1.105  52.985  1.00  0.00     0.186 C 
BRANCH  20  21
HETATM   21  C3  UNL     1      20.773   0.428  54.295  1.00  0.00     0.095 C 
BRANCH  21  22
HETATM   22  C2  UNL     1      21.598  -0.525  54.720  1.00  0.00    -0.140 C 
BRANCH  22  23
HETATM   23  C1  UNL     1      22.381  -1.598  54.781  1.00  0.00     0.224 C 
BRANCH  23  24
HETATM   24  O1  UNL     1      23.037  -1.878  55.970  1.00  0.00    -0.381 OA
HETATM   25  H1  UNL     1      22.562  -1.964  56.863  1.00  0.00     0.211 HD
ENDBRANCH  23  24
ENDBRANCH  22  23
ENDBRANCH  21  22
ENDBRANCH  20  21
ENDBRANCH  19  20
ENDBRANCH   1  19
TORSDOF 8
ENDMDL
MODEL 2
REMARK VINA RESULT:      -7.2      3.716      6.083
REMARK  8 active torsions:
REMARK  status: ('A' for Active; 'I' for Inactive)
REMARK    1  A    between atoms: O1_1  and  C1_2 
REMARK    2  A    between atoms: C1_2  and  C2_3 
REMARK    3  A    between atoms: C2_3  and  C3_4 
REMARK    4  A    between atoms: C3_4  and  C4_5 
REMARK    5  A    between atoms: C4_5  and  O2_6 
REMARK    6  A    between atoms: O2_6  and  C5_7 
REMARK    7  A    between atoms: C9_13  and  N3_14 
REMARK    8  A    between atoms: N3_14  and  C10_15 
ROOT
HETATM    1  C5  UNL     1      25.032  -0.540  53.962  1.00  0.00     0.166 A 
HETATM    2  C6  UNL     1      24.612  -1.249  55.184  1.00  0.00     0.097 A 
HETATM    3  C7  UNL     1      23.243  -0.922  54.824  1.00  0.00     0.051 A 
HETATM    4  N1  UNL     1      21.926  -1.011  55.141  1.00  0.00    -0.246 NA
HETATM    5  C8  UNL     1      20.994  -0.447  54.332  1.00  0.00     0.235 A 
HETATM    6  N2  UNL     1      21.370   0.198  53.221  1.00  0.00    -0.224 NA
HETATM    7  C9  UNL     1      22.655   0.311  52.869  1.00  0.00     0.140 A 
HETATM    8  C16 UNL     1      23.625  -0.269  53.697  1.00  0.00     0.042 A 
ENDROOT
BRANCH   7   9
HETATM    9  N3  UNL     1      23.084   0.982  51.706  1.00  0.00    -0.340 N 
HETATM   10  H10 UNL     1      23.124   0.439  50.793  1.00  0.00     0.167 HD
BRANCH   9  11
HETATM   11  C10 UNL     1      23.492   2.322  51.528  1.00  0.00     0.035 A 
HETATM   12  C11 UNL     1      22.982   3.382  52.292  1.00  0.00     0.032 A 
HETATM   13  C12 UNL     1      23.372   4.687  52.128  1.00  0.00     0.046 A 
HETATM   14  C13 UNL     1      24.296   5.015  51.187  1.00  0.00     0.138 A 
HETATM   15  F1  UNL     1      24.635   6.319  51.075  1.00  0.00    -0.204 F 
HETATM   16  C14 UNL     1      24.834   4.037  50.407  1.00  0.00     0.074 A 
HETATM   17 CL1  UNL     1      26.016   4.507  49.212  1.00  0.00    -0.081 Cl
HETATM   18  C15 UNL     1      24.421   2.741  50.599  1.00  0.00     0.056 A 
ENDBRANCH   9  11
ENDBRANCH   7   9
BRANCH   1  19
HETATM   19  O2  UNL     1      25.720   0.663  54.143  1.00  0.00    -0.379 OA
BRANCH  19  20
HETATM   20  C4  UNL     1      26.827   0.572  53.268  1.00  0.00     0.186 C 
BRANCH  20  21
HETATM   21  C3  UNL     1      27.973  -0.034  54.038  1.00  0.00     0.095 C 
BRANCH  21  22
HETATM   22  C2  UNL     1      28.646  -1.033  53.476  1.00  0.00    -0.140 C 
BRANCH  22  23
HETATM   23  C1  UNL     1      29.285  -2.181  53.268  1.00  0.00     0.224 C 
BRANCH  23  24
HETATM   24  O1  UNL     1      28.567  -3.365  53.339  1.00  0.00    -0.381 OA
HETATM   25  H1  UNL     1      28.181  -3.834  52.527  1.00  0.00     0.211 HD
ENDBRANCH  23  24
ENDBRANCH  22  23
ENDBRANCH  21  22
ENDBRANCH  20  21
ENDBRANCH  19  20
ENDBRANCH   1  19
TORSDOF 8
ENDMDL
MODEL 3
REMARK VINA RESULT:      -7.1      2.834      5.224
REMARK  8 active torsions:
REMARK  status: ('A' for Active; 'I' for Inactive)
REMARK    1  A    between atoms: O1_1  and  C1_2 
REMARK    2  A    between atoms: C1_2  and  C2_3 
REMARK    3  A    between atoms: C2_3  and  C3_4 
REMARK    4  A    between atoms: C3_4  and  C4_5 
REMARK    5  A    between atoms: C4_5  and  O2_6 
REMARK    6  A    between atoms: O2_6  and  C5_7 
REMARK    7  A    between atoms: C9_13  and  N3_14 
REMARK    8  A    between atoms: N3_14  and  C10_15 
ROOT
HETATM    1  C5  UNL     1      24.235   2.567  51.230  1.00  0.00     0.166 A 
HETATM    2  C6  UNL     1      23.199   2.740  50.196  1.00  0.00     0.097 A 
HETATM    3  C7  UNL     1      22.478   1.650  50.830  1.00  0.00     0.051 A 
HETATM    4  N1  UNL     1      21.378   0.854  50.828  1.00  0.00    -0.246 NA
HETATM    5  C8  UNL     1      21.231  -0.102  51.779  1.00  0.00     0.235 A 
HETATM    6  N2  UNL     1      22.169  -0.264  52.720  1.00  0.00    -0.224 NA
HETATM    7  C9  UNL     1      23.269   0.496  52.761  1.00  0.00     0.140 A 
HETATM    8  C16 UNL     1      23.429   1.486  51.784  1.00  0.00     0.042 A 
ENDROOT
BRANCH   7   9
HETATM    9  N3  UNL     1      24.274   0.351  53.739  1.00  0.00    -0.340 N 
HETATM   10  H10 UNL     1      24.015   0.503  54.759  1.00  0.00     0.167 HD
BRANCH   9  11
HETATM   11  C10 UNL     1      25.640   0.022  53.596  1.00  0.00     0.035 A 
HETATM   12  C11 UNL     1      26.079  -1.152  52.966  1.00  0.00     0.032 A 
HETATM   13  C12 UNL     1      27.403  -1.481  52.822  1.00  0.00     0.046 A 
HETATM   14  C13 UNL     1      28.372  -0.657  53.301  1.00  0.00     0.138 A 
HETATM   15  F1  UNL     1      29.657  -1.041  53.128  1.00  0.00    -0.204 F 
HETATM   16  C14 UNL     1      28.019   0.500  53.926  1.00  0.00     0.074 A 
HETATM   17 CL1  UNL     1      29.299   1.525  54.524  1.00  0.00    -0.081 Cl
HETATM   18  C15 UNL     1      26.685   0.798  54.052  1.00  0.00     0.056 A 
ENDBRANCH   9  11
ENDBRANCH   7   9
BRANCH   1  19
HETATM   19  O2  UNL     1      25.468   2.066  50.802  1.00  0.00    -0.379 OA
BRANCH  19  20
HETATM   20  C4  UNL     1      26.325   3.190  50.797  1.00  0.00     0.186 C 
BRANCH  20  21
HETATM   21  C3  UNL     1      26.727   3.457  49.369  1.00  0.00     0.095 C 
BRANCH  21  22
HETATM   22  C2  UNL     1      26.827   4.722  48.973  1.00  0.00    -0.140 C 
BRANCH  22  23
HETATM   23  C1  UNL     1      27.302   5.894  48.560  1.00  0.00     0.224 C 
BRANCH  23  24
HETATM   24  O1  UNL     1      27.354   6.946  49.462  1.00  0.00    -0.381 OA
HETATM   25  H1  UNL     1      26.819   7.801  49.353  1.00  0.00     0.211 HD
ENDBRANCH  23  24
ENDBRANCH  22  23
ENDBRANCH  21  22
ENDBRANCH  20  21
ENDBRANCH  19  20
ENDBRANCH   1  19
TORSDOF 8
ENDMDL
MODEL 4
REMARK VINA RESULT:      -7.1      3.281      5.446
REMARK  8 active torsions:
REMARK  status: ('A' for Active; 'I' for Inactive)
REMARK    1  A    between atoms: O1_1  and  C1_2 
REMARK    2  A    between atoms: C1_2  and  C2_3 
REMARK    3  A    between atoms: C2_3  and  C3_4 
REMARK    4  A    between atoms: C3_4  and  C4_5 
REMARK    5  A    between atoms: C4_5  and  O2_6 
REMARK    6  A    between atoms: O2_6  and  C5_7 
REMARK    7  A    between atoms: C9_13  and  N3_14 
REMARK    8  A    between atoms: N3_14  and  C10_15 
ROOT
HETATM    1  C5  UNL     1      23.353   4.413  51.650  1.00  0.00     0.166 A 
HETATM    2  C6  UNL     1      22.112   5.174  51.886  1.00  0.00     0.097 A 
HETATM    3  C7  UNL     1      21.475   3.907  52.203  1.00  0.00     0.051 A 
HETATM    4  N1  UNL     1      20.341   3.262  52.578  1.00  0.00    -0.246 NA
HETATM    5  C8  UNL     1      20.349   1.914  52.736  1.00  0.00     0.235 A 
HETATM    6  N2  UNL     1      21.472   1.219  52.524  1.00  0.00    -0.224 NA
HETATM    7  C9  UNL     1      22.613   1.812  52.153  1.00  0.00     0.140 A 
HETATM    8  C16 UNL     1      22.615   3.203  51.988  1.00  0.00     0.042 A 
ENDROOT
BRANCH   7   9
HETATM    9  N3  UNL     1      23.812   1.109  51.922  1.00  0.00    -0.340 N 
HETATM   10  H10 UNL     1      23.953   0.644  50.976  1.00  0.00     0.167 HD
BRANCH   9  11
HETATM   11  C10 UNL     1      24.922   0.901  52.770  1.00  0.00     0.035 A 
HETATM   12  C11 UNL     1      24.984  -0.144  53.702  1.00  0.00     0.032 A 
HETATM   13  C12 UNL     1      26.058  -0.355  54.530  1.00  0.00     0.046 A 
HETATM   14  C13 UNL     1      27.138   0.467  54.478  1.00  0.00     0.138 A 
HETATM   15  F1  UNL     1      28.161   0.206  55.321  1.00  0.00    -0.204 F 
HETATM   16  C14 UNL     1      27.148   1.505  53.595  1.00  0.00     0.074 A 
HETATM   17 CL1  UNL     1      28.557   2.535  53.565  1.00  0.00    -0.081 Cl
HETATM   18  C15 UNL     1      26.056   1.687  52.782  1.00  0.00     0.056 A 
ENDBRANCH   9  11
ENDBRANCH   7   9
BRANCH   1  19
HETATM   19  O2  UNL     1      23.800   4.342  50.328  1.00  0.00    -0.379 OA
BRANCH  19  20
HETATM   20  C4  UNL     1      25.038   5.024  50.335  1.00  0.00     0.186 C 
BRANCH  20  21
HETATM   21  C3  UNL     1      26.088   4.078  49.809  1.00  0.00     0.095 C 
BRANCH  21  22
HETATM   22  C2  UNL     1      27.010   4.563  48.982  1.00  0.00    -0.140 C 
BRANCH  22  23
HETATM   23  C1  UNL     1      28.101   5.141  48.490  1.00  0.00     0.224 C 
BRANCH  23  24
HETATM   24  O1  UNL     1      28.443   6.409  48.936  1.00  0.00    -0.381 OA
HETATM   25  H1  UNL     1      29.387   6.673  49.196  1.00  0.00     0.211 HD
ENDBRANCH  23  24
ENDBRANCH  22  23
ENDBRANCH  21  22
ENDBRANCH  20  21
ENDBRANCH  19  20
ENDBRANCH   1  19
TORSDOF 8
ENDMDL
MODEL 5
REMARK VINA RESULT:      -7.1      2.509      4.488
REMARK  8 active torsions:
REMARK  status: ('A' for Active; 'I' for Inactive)
REMARK    1  A    between atoms: O1_1  and  C1_2 
REMARK    2  A    between atoms: C1_2  and  C2_3 
REMARK    3  A    between atoms: C2_3  and  C3_4 
REMARK    4  A    between atoms: C3_4  and  C4_5 
REMARK    5  A    between atoms: C4_5  and  O2_6 
REMARK    6  A    between atoms: O2_6  and  C5_7 
REMARK    7  A    between atoms: C9_13  and  N3_14 
REMARK    8  A    between atoms: N3_14  and  C10_15 
ROOT
HETATM    1  C5  UNL     1      21.874   1.574  51.344  1.00  0.00     0.166 A 
HETATM    2  C6  UNL     1      20.603   0.839  51.476  1.00  0.00     0.097 A 
HETATM    3  C7  UNL     1      21.234   0.072  52.537  1.00  0.00     0.051 A 
HETATM    4  N1  UNL     1      21.110  -0.915  53.461  1.00  0.00    -0.246 NA
HETATM    5  C8  UNL     1      22.158  -1.226  54.265  1.00  0.00     0.235 A 
HETATM    6  N2  UNL     1      23.314  -0.562  54.149  1.00  0.00    -0.224 NA
HETATM    7  C9  UNL     1      23.482   0.417  53.253  1.00  0.00     0.140 A 
HETATM    8  C16 UNL     1      22.406   0.746  52.419  1.00  0.00     0.042 A 
ENDROOT
BRANCH   7   9
HETATM    9  N3  UNL     1      24.686   1.136  53.106  1.00  0.00    -0.340 N 
HETATM   10  H10 UNL     1      24.633   2.168  52.856  1.00  0.00     0.167 HD
BRANCH   9  11
HETATM   11  C10 UNL     1      26.024   0.705  53.241  1.00  0.00     0.035 A 
HETATM   12  C11 UNL     1      26.462  -0.559  52.823  1.00  0.00     0.032 A 
HETATM   13  C12 UNL     1      27.760  -0.987  52.948  1.00  0.00     0.046 A 
HETATM   14  C13 UNL     1      28.701  -0.177  53.501  1.00  0.00     0.138 A 
HETATM   15  F1  UNL     1      29.960  -0.660  53.596  1.00  0.00    -0.204 F 
HETATM   16  C14 UNL     1      28.346   1.066  53.930  1.00  0.00     0.074 A 
HETATM   17 CL1  UNL     1      29.588   2.069  54.634  1.00  0.00    -0.081 Cl
HETATM   18  C15 UNL     1      27.038   1.461  53.789  1.00  0.00     0.056 A 
ENDBRANCH   9  11
ENDBRANCH   7   9
BRANCH   1  19
HETATM   19  O2  UNL     1      22.604   1.354  50.172  1.00  0.00    -0.379 OA
BRANCH  19  20
HETATM   20  C4  UNL     1      22.675   2.624  49.556  1.00  0.00     0.186 C 
BRANCH  20  21
HETATM   21  C3  UNL     1      23.682   3.449  50.318  1.00  0.00     0.095 C 
BRANCH  21  22
HETATM   22  C2  UNL     1      24.971   3.159  50.168  1.00  0.00    -0.140 C 
BRANCH  22  23
HETATM   23  C1  UNL     1      26.264   3.221  49.862  1.00  0.00     0.224 C 
BRANCH  23  24
HETATM   24  O1  UNL     1      27.182   3.411  50.883  1.00  0.00    -0.381 OA
HETATM   25  H1  UNL     1      28.131   3.053  50.854  1.00  0.00     0.211 HD
ENDBRANCH  23  24
ENDBRANCH  22  23
ENDBRANCH  21  22
ENDBRANCH  20  21
ENDBRANCH  19  20
ENDBRANCH   1  19
TORSDOF 8
ENDMDL
MODEL 6
REMARK VINA RESULT:      -7.0      3.693      5.727
REMARK  8 active torsions:
REMARK  status: ('A' for Active; 'I' for Inactive)
REMARK    1  A    between atoms: O1_1  and  C1_2 
REMARK    2  A    between atoms: C1_2  and  C2_3 
REMARK    3  A    between atoms: C2_3  and  C3_4 
REMARK    4  A    between atoms: C3_4  and  C4_5 
REMARK    5  A    between atoms: C4_5  and  O2_6 
REMARK    6  A    between atoms: O2_6  and  C5_7 
REMARK    7  A    between atoms: C9_13  and  N3_14 
REMARK    8  A    between atoms: N3_14  and  C10_15 
ROOT
HETATM    1  C5  UNL     1      25.541   0.442  53.155  1.00  0.00     0.166 A 
HETATM    2  C6  UNL     1      24.949  -0.883  53.418  1.00  0.00     0.097 A 
HETATM    3  C7  UNL     1      23.650  -0.275  53.182  1.00  0.00     0.051 A 
HETATM    4  N1  UNL     1      22.305  -0.445  53.122  1.00  0.00    -0.246 NA
HETATM    5  C8  UNL     1      21.502   0.607  52.820  1.00  0.00     0.235 A 
HETATM    6  N2  UNL     1      22.033   1.811  52.581  1.00  0.00    -0.224 NA
HETATM    7  C9  UNL     1      23.353   2.025  52.629  1.00  0.00     0.140 A 
HETATM    8  C16 UNL     1      24.190   0.946  52.940  1.00  0.00     0.042 A 
ENDROOT
BRANCH   7   9
HETATM    9  N3  UNL     1      23.944   3.281  52.383  1.00  0.00    -0.340 N 
HETATM   10  H10 UNL     1      23.758   4.072  53.069  1.00  0.00     0.167 HD
BRANCH   9  11
HETATM   11  C10 UNL     1      24.786   3.698  51.329  1.00  0.00     0.035 A 
HETATM   12  C11 UNL     1      25.826   2.904  50.825  1.00  0.00     0.032 A 
HETATM   13  C12 UNL     1      26.650   3.300  49.801  1.00  0.00     0.046 A 
HETATM   14  C13 UNL     1      26.485   4.516  49.218  1.00  0.00     0.138 A 
HETATM   15  F1  UNL     1      27.331   4.846  48.216  1.00  0.00    -0.204 F 
HETATM   16  C14 UNL     1      25.495   5.341  49.657  1.00  0.00     0.074 A 
HETATM   17 CL1  UNL     1      25.323   6.894  48.878  1.00  0.00    -0.081 Cl
HETATM   18  C15 UNL     1      24.689   4.913  50.683  1.00  0.00     0.056 A 
ENDBRANCH   9  11
ENDBRANCH   7   9
BRANCH   1  19
HETATM   19  O2  UNL     1      26.120   1.095  54.247  1.00  0.00    -0.379 OA
BRANCH  19  20
HETATM   20  C4  UNL     1      27.143   0.220  54.680  1.00  0.00     0.186 C 
BRANCH  20  21
HETATM   21  C3  UNL     1      28.252   0.267  53.658  1.00  0.00     0.095 C 
BRANCH  21  22
HETATM   22  C2  UNL     1      28.849  -0.874  53.330  1.00  0.00    -0.140 C 
BRANCH  22  23
HETATM   23  C1  UNL     1      29.357  -2.103  53.368  1.00  0.00     0.224 C 
BRANCH  23  24
HETATM   24  O1  UNL     1      28.515  -3.179  53.134  1.00  0.00    -0.381 OA
HETATM   25  H1  UNL     1      28.197  -3.809  53.863  1.00  0.00     0.211 HD
ENDBRANCH  23  24
ENDBRANCH  22  23
ENDBRANCH  21  22
ENDBRANCH  20  21
ENDBRANCH  19  20
ENDBRANCH   1  19
TORSDOF 8
ENDMDL
MODEL 7
REMARK VINA RESULT:      -7.0      3.274      5.224
REMARK  8 active torsions:
REMARK  status: ('A' for Active; 'I' for Inactive)
REMARK    1  A    between atoms: O1_1  and  C1_2 
REMARK    2  A    between atoms: C1_2  and  C2_3 
REMARK    3  A    between atoms: C2_3  and  C3_4 
REMARK    4  A    between atoms: C3_4  and  C4_5 
REMARK    5  A    between atoms: C4_5  and  O2_6 
REMARK    6  A    between atoms: O2_6  and  C5_7 
REMARK    7  A    between atoms: C9_13  and  N3_14 
REMARK    8  A    between atoms: N3_14  and  C10_15 
ROOT
HETATM    1  C5  UNL     1      25.337   0.486  54.002  1.00  0.00     0.166 A 
HETATM    2  C6  UNL     1      26.118  -0.123  55.095  1.00  0.00     0.097 A 
HETATM    3  C7  UNL     1      27.250   0.664  54.634  1.00  0.00     0.051 A 
HETATM    4  N1  UNL     1      28.554   0.998  54.807  1.00  0.00    -0.246 NA
HETATM    5  C8  UNL     1      29.141   1.893  53.972  1.00  0.00     0.235 A 
HETATM    6  N2  UNL     1      28.437   2.448  52.979  1.00  0.00    -0.224 NA
HETATM    7  C9  UNL     1      27.149   2.149  52.771  1.00  0.00     0.140 A 
HETATM    8  C16 UNL     1      26.535   1.227  53.627  1.00  0.00     0.042 A 
ENDROOT
BRANCH   7   9
HETATM    9  N3  UNL     1      26.380   2.716  51.735  1.00  0.00    -0.340 N 
HETATM   10  H10 UNL     1      26.883   3.093  50.877  1.00  0.00     0.167 HD
BRANCH   9  11
HETATM   11  C10 UNL     1      24.982   2.882  51.627  1.00  0.00     0.035 A 
HETATM   12  C11 UNL     1      24.247   3.722  52.475  1.00  0.00     0.032 A 
HETATM   13  C12 UNL     1      22.888   3.891  52.378  1.00  0.00     0.046 A 
HETATM   14  C13 UNL     1      22.179   3.228  51.427  1.00  0.00     0.138 A 
HETATM   15  F1  UNL     1      20.845   3.437  51.386  1.00  0.00    -0.204 F 
HETATM   16  C14 UNL     1      22.828   2.393  50.568  1.00  0.00     0.074 A 
HETATM   17 CL1  UNL     1      21.875   1.563  49.364  1.00  0.00    -0.081 Cl
HETATM   18  C15 UNL     1      24.188   2.248  50.694  1.00  0.00     0.056 A 
ENDBRANCH   9  11
ENDBRANCH   7   9
BRANCH   1  19
HETATM   19  O2  UNL     1      24.959  -0.362  52.958  1.00  0.00    -0.379 OA
BRANCH  19  20
HETATM   20  C4  UNL     1      23.698  -0.867  53.350  1.00  0.00     0.186 C 
BRANCH  20  21
HETATM   21  C3  UNL     1      22.766   0.306  53.522  1.00  0.00     0.095 C 
BRANCH  21  22
HETATM   22  C2  UNL     1      21.458   0.070  53.529  1.00  0.00    -0.140 C 
BRANCH  22  23
HETATM   23  C1  UNL     1      20.226  -0.270  53.899  1.00  0.00     0.224 C 
BRANCH  23  24
HETATM   24  O1  UNL     1      19.947  -1.608  54.132  1.00  0.00    -0.381 OA
HETATM   25  H1  UNL     1      20.513  -2.200  54.730  1.00  0.00     0.211 HD
ENDBRANCH  23  24
ENDBRANCH  22  23
ENDBRANCH  21  22
ENDBRANCH  20  21
ENDBRANCH  19  20
ENDBRANCH   1  19
TORSDOF 8
ENDMDL
MODEL 8
REMARK VINA RESULT:      -7.0      4.043      6.945
REMARK  8 active torsions:
REMARK  status: ('A' for Active; 'I' for Inactive)
REMARK    1  A    between atoms: O1_1  and  C1_2 
REMARK    2  A    between atoms: C1_2  and  C2_3 
REMARK    3  A    between atoms: C2_3  and  C3_4 
REMARK    4  A    between atoms: C3_4  and  C4_5 
REMARK    5  A    between atoms: C4_5  and  O2_6 
REMARK    6  A    between atoms: O2_6  and  C5_7 
REMARK    7  A    between atoms: C9_13  and  N3_14 
REMARK    8  A    between atoms: N3_14  and  C10_15 
ROOT
HETATM    1  C5  UNL     1      26.067   0.331  52.739  1.00  0.00     0.166 A 
HETATM    2  C6  UNL     1      26.837  -0.132  53.908  1.00  0.00     0.097 A 
HETATM    3  C7  UNL     1      25.576  -0.574  54.480  1.00  0.00     0.051 A 
HETATM    4  N1  UNL     1      24.940  -1.163  55.525  1.00  0.00    -0.246 NA
HETATM    5  C8  UNL     1      23.593  -1.326  55.494  1.00  0.00     0.235 A 
HETATM    6  N2  UNL     1      22.890  -0.908  54.435  1.00  0.00    -0.224 NA
HETATM    7  C9  UNL     1      23.473  -0.323  53.383  1.00  0.00     0.140 A 
HETATM    8  C16 UNL     1      24.863  -0.150  53.406  1.00  0.00     0.042 A 
ENDROOT
BRANCH   7   9
HETATM    9  N3  UNL     1      22.761   0.129  52.254  1.00  0.00    -0.340 N 
HETATM   10  H10 UNL     1      22.205  -0.580  51.689  1.00  0.00     0.167 HD
BRANCH   9  11
HETATM   11  C10 UNL     1      22.648   1.426  51.709  1.00  0.00     0.035 A 
HETATM   12  C11 UNL     1      22.628   2.585  52.498  1.00  0.00     0.032 A 
HETATM   13  C12 UNL     1      22.519   3.850  51.978  1.00  0.00     0.046 A 
HETATM   14  C13 UNL     1      22.423   4.036  50.636  1.00  0.00     0.138 A 
HETATM   15  F1  UNL     1      22.316   5.307  50.189  1.00  0.00    -0.204 F 
HETATM   16  C14 UNL     1      22.435   2.955  49.807  1.00  0.00     0.074 A 
HETATM   17 CL1  UNL     1      22.308   3.243  48.091  1.00  0.00    -0.081 Cl
HETATM   18  C15 UNL     1      22.546   1.703  50.361  1.00  0.00     0.056 A 
ENDBRANCH   9  11
ENDBRANCH   7   9
BRANCH   1  19
HETATM   19  O2  UNL     1      25.984   1.714  52.553  1.00  0.00    -0.379 OA
BRANCH  19  20
HETATM   20  C4  UNL     1      26.705   1.955  51.361  1.00  0.00     0.186 C 
BRANCH  20  21
HETATM   21  C3  UNL     1      25.985   3.038  50.599  1.00  0.00     0.095 C 
BRANCH  21  22
HETATM   22  C2  UNL     1      26.656   3.691  49.655  1.00  0.00    -0.140 C 
BRANCH  22  23
HETATM   23  C1  UNL     1      27.211   4.648  48.917  1.00  0.00     0.224 C 
BRANCH  23  24
HETATM   24  O1  UNL     1      28.515   5.029  49.192  1.00  0.00    -0.381 OA
HETATM   25  H1  UNL     1      28.926   4.985  50.119  1.00  0.00     0.211 HD
ENDBRANCH  23  24
ENDBRANCH  22  23
ENDBRANCH  21  22
ENDBRANCH  20  21
ENDBRANCH  19  20
ENDBRANCH   1  19
TORSDOF 8
ENDMDL
MODEL 9
REMARK VINA RESULT:      -6.9      3.500      5.751
REMARK  8 active torsions:
REMARK  status: ('A' for Active; 'I' for Inactive)
REMARK    1  A    between atoms: O1_1  and  C1_2 
REMARK    2  A    between atoms: C1_2  and  C2_3 
REMARK    3  A    between atoms: C2_3  and  C3_4 
REMARK    4  A    between atoms: C3_4  and  C4_5 
REMARK    5  A    between atoms: C4_5  and  O2_6 
REMARK    6  A    between atoms: O2_6  and  C5_7 
REMARK    7  A    between atoms: C9_13  and  N3_14 
REMARK    8  A    between atoms: N3_14  and  C10_15 
ROOT
HETATM    1  C5  UNL     1      23.782  -0.512  53.342  1.00  0.00     0.166 A 
HETATM    2  C6  UNL     1      22.649  -0.791  54.242  1.00  0.00     0.097 A 
HETATM    3  C7  UNL     1      21.948   0.302  53.589  1.00  0.00     0.051 A 
HETATM    4  N1  UNL     1      20.816   1.046  53.510  1.00  0.00    -0.246 NA
HETATM    5  C8  UNL     1      20.726   2.049  52.600  1.00  0.00     0.235 A 
HETATM    6  N2  UNL     1      21.752   2.306  51.781  1.00  0.00    -0.224 NA
HETATM    7  C9  UNL     1      22.887   1.599  51.823  1.00  0.00     0.140 A 
HETATM    8  C16 UNL     1      22.988   0.562  52.758  1.00  0.00     0.042 A 
ENDROOT
BRANCH   7   9
HETATM    9  N3  UNL     1      23.985   1.844  50.974  1.00  0.00    -0.340 N 
HETATM   10  H10 UNL     1      24.663   1.048  50.779  1.00  0.00     0.167 HD
BRANCH   9  11
HETATM   11  C10 UNL     1      24.366   3.024  50.298  1.00  0.00     0.035 A 
HETATM   12  C11 UNL     1      23.459   4.041  49.970  1.00  0.00     0.032 A 
HETATM   13  C12 UNL     1      23.819   5.191  49.314  1.00  0.00     0.046 A 
HETATM   14  C13 UNL     1      25.110   5.396  48.943  1.00  0.00     0.138 A 
HETATM   15  F1  UNL     1      25.398   6.548  48.299  1.00  0.00    -0.204 F 
HETATM   16  C14 UNL     1      26.047   4.449  49.228  1.00  0.00     0.074 A 
HETATM   17 CL1  UNL     1      27.691   4.755  48.731  1.00  0.00    -0.081 Cl
HETATM   18  C15 UNL     1      25.651   3.310  49.886  1.00  0.00     0.056 A 
ENDBRANCH   9  11
ENDBRANCH   7   9
BRANCH   1  19
HETATM   19  O2  UNL     1      24.934   0.017  53.932  1.00  0.00    -0.379 OA
BRANCH  19  20
HETATM   20  C4  UNL     1      25.976  -0.836  53.502  1.00  0.00     0.186 C 
BRANCH  20  21
HETATM   21  C3  UNL     1      26.648  -0.182  52.321  1.00  0.00     0.095 C 
BRANCH  21  22
HETATM   22  C2  UNL     1      27.141   1.042  52.481  1.00  0.00    -0.140 C 
BRANCH  22  23
HETATM   23  C1  UNL     1      27.790   2.103  52.954  1.00  0.00     0.224 C 
BRANCH  23  24
HETATM   24  O1  UNL     1      27.293   2.739  54.081  1.00  0.00    -0.381 OA
HETATM   25  H1  UNL     1      27.113   3.736  54.126  1.00  0.00     0.211 HD
ENDBRANCH  23  24
ENDBRANCH  22  23
ENDBRANCH  21  22
ENDBRANCH  20  21
ENDBRANCH  19  20
ENDBRANCH   1  19
TORSDOF 8
ENDMDL
