MODEL 1
REMARK VINA RESULT:      -8.9      0.000      0.000
REMARK  5 active torsions:
REMARK  status: ('A' for Active; 'I' for Inactive)
REMARK    1  A    between atoms: O1_2  and  C2_3 
REMARK    2  A    between atoms: C3_4  and  C24_32 
REMARK    3  A    between atoms: C5_7  and  N2_16 
REMARK    4  A    between atoms: C7_9  and  N1_10 
REMARK    5  A    between atoms: N1_10  and  S1_12 
ROOT
HETATM    1  N2  UNL     1      24.663   3.771  51.301  1.00  0.00    -0.320 N 
HETATM    2  C10 UNL     1      25.795   3.889  50.460  1.00  0.00     0.042 C 
HETATM    3  C11 UNL     1      26.348   4.888  49.814  1.00  0.00     0.037 A 
HETATM    4  C12 UNL     1      27.565   4.706  48.981  1.00  0.00     0.100 A 
HETATM    5  C13 UNL     1      27.904   5.992  48.384  1.00  0.00    -0.026 A 
HETATM    6  C14 UNL     1      28.938   6.236  47.526  1.00  0.00     0.010 A 
HETATM    7  C15 UNL     1      29.140   7.533  47.059  1.00  0.00     0.001 A 
HETATM    8  C16 UNL     1      28.268   8.509  47.499  1.00  0.00     0.002 A 
HETATM    9  C17 UNL     1      27.225   8.212  48.376  1.00  0.00     0.030 A 
HETATM   10  C18 UNL     1      27.022   6.933  48.839  1.00  0.00     0.039 A 
HETATM   11  N3  UNL     1      26.112   6.263  49.684  1.00  0.00    -0.357 N 
HETATM   12  C19 UNL     1      26.381   2.524  50.480  1.00  0.00     0.100 C 
HETATM   13  C20 UNL     1      25.686   1.753  51.530  1.00  0.00    -0.025 A 
HETATM   14  C21 UNL     1      25.979   0.499  52.002  1.00  0.00     0.010 A 
HETATM   15  C22 UNL     1      25.087   0.001  52.955  1.00  0.00     0.001 A 
HETATM   16  C23 UNL     1      23.990   0.708  53.398  1.00  0.00     0.010 A 
HETATM   17  C24 UNL     1      23.745   1.957  52.896  1.00  0.00    -0.022 A 
HETATM   18  C25 UNL     1      24.609   2.499  51.940  1.00  0.00     0.050 A 
HETATM   19  H24 UNL     1      25.389   6.825  50.124  1.00  0.00     0.166 HD
ENDROOT
BRANCH   1  20
HETATM   20  C5  UNL     1      23.653   4.761  51.510  1.00  0.00     0.230 C 
HETATM   21  O2  UNL     1      23.412   5.683  50.562  1.00  0.00    -0.365 OA
HETATM   22  C4  UNL     1      23.465   5.498  49.255  1.00  0.00     0.182 C 
HETATM   23  C3  UNL     1      22.995   4.176  48.677  1.00  0.00     0.076 C 
HETATM   24  C2  UNL     1      21.756   3.742  49.364  1.00  0.00     0.155 C 
HETATM   25  C7  UNL     1      21.885   3.162  50.727  1.00  0.00     0.129 C 
HETATM   26  C6  UNL     1      22.301   4.109  51.814  1.00  0.00     0.083 C 
BRANCH  24  27
HETATM   27  O1  UNL     1      21.227   2.688  48.581  1.00  0.00    -0.388 OA
HETATM   28  C1  UNL     1      22.208   2.133  47.768  1.00  0.00     0.202 C 
ENDBRANCH  24  27
BRANCH  25  29
HETATM   29  N1  UNL     1      20.586   2.646  51.054  1.00  0.00    -0.308 N 
HETATM   30  C8  UNL     1      19.769   3.447  51.882  1.00  0.00     0.163 C 
BRANCH  29  31
HETATM   31  S1  UNL     1      20.534   0.967  51.306  1.00  0.00     0.224 S 
HETATM   32  C9  UNL     1      20.396   0.488  52.996  1.00  0.00     0.186 C 
HETATM   33  O3  UNL     1      21.770   0.309  50.734  1.00  0.00    -0.206 OA
HETATM   34  O4  UNL     1      19.367   0.415  50.539  1.00  0.00    -0.206 OA
ENDBRANCH  29  31
ENDBRANCH  25  29
ENDBRANCH   1  20
TORSDOF 5
ENDMDL
MODEL 2
REMARK VINA RESULT:      -8.9      3.076      5.110
REMARK  5 active torsions:
REMARK  status: ('A' for Active; 'I' for Inactive)
REMARK    1  A    between atoms: O1_2  and  C2_3 
REMARK    2  A    between atoms: C3_4  and  C24_32 
REMARK    3  A    between atoms: C5_7  and  N2_16 
REMARK    4  A    between atoms: C7_9  and  N1_10 
REMARK    5  A    between atoms: N1_10  and  S1_12 
ROOT
HETATM    1  N2  UNL     1      22.577   2.661  52.226  1.00  0.00    -0.320 N 
HETATM    2  C10 UNL     1      23.490   1.595  52.406  1.00  0.00     0.042 C 
HETATM    3  C11 UNL     1      24.761   1.530  52.724  1.00  0.00     0.037 A 
HETATM    4  C12 UNL     1      25.477   0.232  52.837  1.00  0.00     0.100 A 
HETATM    5  C13 UNL     1      26.868   0.508  53.174  1.00  0.00    -0.026 A 
HETATM    6  C14 UNL     1      27.858  -0.419  53.334  1.00  0.00     0.010 A 
HETATM    7  C15 UNL     1      29.137   0.009  53.679  1.00  0.00     0.001 A 
HETATM    8  C16 UNL     1      29.331   1.367  53.842  1.00  0.00     0.002 A 
HETATM    9  C17 UNL     1      28.289   2.277  53.667  1.00  0.00     0.030 A 
HETATM   10  C18 UNL     1      27.024   1.858  53.327  1.00  0.00     0.039 A 
HETATM   11  N3  UNL     1      25.769   2.445  53.058  1.00  0.00    -0.357 N 
HETATM   12  C19 UNL     1      22.648   0.386  52.217  1.00  0.00     0.100 C 
HETATM   13  C20 UNL     1      21.238   0.824  52.177  1.00  0.00    -0.025 A 
HETATM   14  C21 UNL     1      20.105   0.051  52.157  1.00  0.00     0.010 A 
HETATM   15  C22 UNL     1      18.906   0.758  52.044  1.00  0.00     0.001 A 
HETATM   16  C23 UNL     1      18.851   2.132  51.959  1.00  0.00     0.010 A 
HETATM   17  C24 UNL     1      20.012   2.858  51.985  1.00  0.00    -0.022 A 
HETATM   18  C25 UNL     1      21.237   2.195  52.098  1.00  0.00     0.050 A 
HETATM   19  H24 UNL     1      25.703   3.456  53.141  1.00  0.00     0.166 HD
ENDROOT
BRANCH   1  20
HETATM   20  C5  UNL     1      22.898   4.053  52.153  1.00  0.00     0.230 C 
HETATM   21  O2  UNL     1      24.102   4.439  51.695  1.00  0.00    -0.365 OA
HETATM   22  C4  UNL     1      24.799   3.861  50.733  1.00  0.00     0.182 C 
HETATM   23  C3  UNL     1      24.066   3.282  49.538  1.00  0.00     0.076 C 
HETATM   24  C2  UNL     1      22.985   4.204  49.119  1.00  0.00     0.155 C 
HETATM   25  C7  UNL     1      21.742   4.233  49.935  1.00  0.00     0.129 C 
HETATM   26  C6  UNL     1      21.866   4.811  51.313  1.00  0.00     0.083 C 
BRANCH  24  27
HETATM   27  O1  UNL     1      22.560   3.752  47.845  1.00  0.00    -0.388 OA
HETATM   28  C1  UNL     1      22.753   2.382  47.716  1.00  0.00     0.202 C 
ENDBRANCH  24  27
BRANCH  25  29
HETATM   29  N1  UNL     1      20.810   5.035  49.195  1.00  0.00    -0.308 N 
HETATM   30  C8  UNL     1      20.606   6.358  49.644  1.00  0.00     0.163 C 
BRANCH  29  31
HETATM   31  S1  UNL     1      19.449   4.193  48.624  1.00  0.00     0.224 S 
HETATM   32  C9  UNL     1      17.936   4.632  49.413  1.00  0.00     0.186 C 
HETATM   33  O3  UNL     1      19.644   2.701  48.785  1.00  0.00    -0.206 OA
HETATM   34  O4  UNL     1      19.328   4.446  47.148  1.00  0.00    -0.206 OA
ENDBRANCH  29  31
ENDBRANCH  25  29
ENDBRANCH   1  20
TORSDOF 5
ENDMDL
MODEL 3
REMARK VINA RESULT:      -8.3      6.941      9.592
REMARK  5 active torsions:
REMARK  status: ('A' for Active; 'I' for Inactive)
REMARK    1  A    between atoms: O1_2  and  C2_3 
REMARK    2  A    between atoms: C3_4  and  C24_32 
REMARK    3  A    between atoms: C5_7  and  N2_16 
REMARK    4  A    between atoms: C7_9  and  N1_10 
REMARK    5  A    between atoms: N1_10  and  S1_12 
ROOT
HETATM    1  N2  UNL     1      29.690   8.034  48.875  1.00  0.00    -0.320 N 
HETATM    2  C10 UNL     1      29.921   6.757  48.313  1.00  0.00     0.042 C 
HETATM    3  C11 UNL     1      30.996   6.031  48.113  1.00  0.00     0.037 A 
HETATM    4  C12 UNL     1      30.931   4.690  47.477  1.00  0.00     0.100 A 
HETATM    5  C13 UNL     1      32.288   4.167  47.377  1.00  0.00    -0.026 A 
HETATM    6  C14 UNL     1      32.655   2.975  46.822  1.00  0.00     0.010 A 
HETATM    7  C15 UNL     1      33.999   2.611  46.826  1.00  0.00     0.001 A 
HETATM    8  C16 UNL     1      34.894   3.492  47.400  1.00  0.00     0.002 A 
HETATM    9  C17 UNL     1      34.473   4.699  47.955  1.00  0.00     0.030 A 
HETATM   10  C18 UNL     1      33.147   5.063  47.954  1.00  0.00     0.039 A 
HETATM   11  N3  UNL     1      32.365   6.157  48.383  1.00  0.00    -0.357 N 
HETATM   12  C19 UNL     1      28.554   6.267  48.000  1.00  0.00     0.100 C 
HETATM   13  C20 UNL     1      27.591   7.195  48.625  1.00  0.00    -0.025 A 
HETATM   14  C21 UNL     1      26.228   7.074  48.722  1.00  0.00     0.010 A 
HETATM   15  C22 UNL     1      25.576   8.159  49.310  1.00  0.00     0.001 A 
HETATM   16  C23 UNL     1      26.241   9.277  49.765  1.00  0.00     0.010 A 
HETATM   17  C24 UNL     1      27.603   9.348  49.647  1.00  0.00    -0.022 A 
HETATM   18  C25 UNL     1      28.300   8.285  49.065  1.00  0.00     0.050 A 
HETATM   19  H24 UNL     1      32.851   6.916  48.853  1.00  0.00     0.166 HD
ENDROOT
BRANCH   1  20
HETATM   20  C5  UNL     1      30.682   9.006  49.215  1.00  0.00     0.230 C 
HETATM   21  O2  UNL     1      31.865   9.006  48.576  1.00  0.00    -0.365 OA
HETATM   22  C4  UNL     1      32.071   8.715  47.304  1.00  0.00     0.182 C 
HETATM   23  C3  UNL     1      31.043   9.143  46.274  1.00  0.00     0.076 C 
HETATM   24  C2  UNL     1      30.571  10.514  46.578  1.00  0.00     0.155 C 
HETATM   25  C7  UNL     1      29.602  10.682  47.694  1.00  0.00     0.129 C 
HETATM   26  C6  UNL     1      30.129  10.427  49.075  1.00  0.00     0.083 C 
BRANCH  24  27
HETATM   27  O1  UNL     1      29.864  10.946  45.430  1.00  0.00    -0.388 OA
HETATM   28  C1  UNL     1      29.573   9.873  44.595  1.00  0.00     0.202 C 
ENDBRANCH  24  27
BRANCH  25  29
HETATM   29  N1  UNL     1      29.165  12.048  47.626  1.00  0.00    -0.308 N 
HETATM   30  C8  UNL     1      29.750  12.953  48.539  1.00  0.00     0.163 C 
BRANCH  29  31
HETATM   31  S1  UNL     1      27.512  12.246  47.291  1.00  0.00     0.224 S 
HETATM   32  C9  UNL     1      27.153  13.507  46.113  1.00  0.00     0.186 C 
HETATM   33  O3  UNL     1      26.750  12.562  48.559  1.00  0.00    -0.206 OA
HETATM   34  O4  UNL     1      26.976  10.936  46.790  1.00  0.00    -0.206 OA
ENDBRANCH  29  31
ENDBRANCH  25  29
ENDBRANCH   1  20
TORSDOF 5
ENDMDL
MODEL 4
REMARK VINA RESULT:      -8.3      1.761      2.582
REMARK  5 active torsions:
REMARK  status: ('A' for Active; 'I' for Inactive)
REMARK    1  A    between atoms: O1_2  and  C2_3 
REMARK    2  A    between atoms: C3_4  and  C24_32 
REMARK    3  A    between atoms: C5_7  and  N2_16 
REMARK    4  A    between atoms: C7_9  and  N1_10 
REMARK    5  A    between atoms: N1_10  and  S1_12 
ROOT
HETATM    1  N2  UNL     1      22.341   3.371  51.600  1.00  0.00    -0.320 N 
HETATM    2  C10 UNL     1      23.621   3.187  51.029  1.00  0.00     0.042 C 
HETATM    3  C11 UNL     1      24.489   3.993  50.463  1.00  0.00     0.037 A 
HETATM    4  C12 UNL     1      25.789   3.501  49.935  1.00  0.00     0.100 A 
HETATM    5  C13 UNL     1      26.500   4.632  49.351  1.00  0.00    -0.026 A 
HETATM    6  C14 UNL     1      27.716   4.588  48.733  1.00  0.00     0.010 A 
HETATM    7  C15 UNL     1      28.271   5.769  48.245  1.00  0.00     0.001 A 
HETATM    8  C16 UNL     1      27.546   6.931  48.419  1.00  0.00     0.002 A 
HETATM    9  C17 UNL     1      26.307   6.927  49.057  1.00  0.00     0.030 A 
HETATM   10  C18 UNL     1      25.755   5.764  49.540  1.00  0.00     0.039 A 
HETATM   11  N3  UNL     1      24.572   5.366  50.199  1.00  0.00    -0.357 N 
HETATM   12  C19 UNL     1      23.899   1.747  51.262  1.00  0.00     0.100 C 
HETATM   13  C20 UNL     1      22.859   1.232  52.175  1.00  0.00    -0.025 A 
HETATM   14  C21 UNL     1      22.784   0.002  52.776  1.00  0.00     0.010 A 
HETATM   15  C22 UNL     1      21.632  -0.219  53.534  1.00  0.00     0.001 A 
HETATM   16  C23 UNL     1      20.636   0.722  53.677  1.00  0.00     0.010 A 
HETATM   17  C24 UNL     1      20.760   1.936  53.057  1.00  0.00    -0.022 A 
HETATM   18  C25 UNL     1      21.896   2.205  52.288  1.00  0.00     0.050 A 
HETATM   19  H24 UNL     1      23.904   6.097  50.432  1.00  0.00     0.166 HD
ENDROOT
BRANCH   1  20
HETATM   20  C5  UNL     1      21.533   4.548  51.518  1.00  0.00     0.230 C 
HETATM   21  O2  UNL     1      21.710   5.411  50.502  1.00  0.00    -0.365 OA
HETATM   22  C4  UNL     1      22.022   5.104  49.256  1.00  0.00     0.182 C 
HETATM   23  C3  UNL     1      21.437   3.849  48.637  1.00  0.00     0.076 C 
HETATM   24  C2  UNL     1      20.012   3.719  49.020  1.00  0.00     0.155 C 
HETATM   25  C7  UNL     1      19.704   3.249  50.397  1.00  0.00     0.129 C 
HETATM   26  C6  UNL     1      20.044   4.192  51.512  1.00  0.00     0.083 C 
BRANCH  24  27
HETATM   27  O1  UNL     1      19.471   2.718  48.177  1.00  0.00    -0.388 OA
HETATM   28  C1  UNL     1      19.111   3.251  46.945  1.00  0.00     0.202 C 
ENDBRANCH  24  27
BRANCH  25  29
HETATM   29  N1  UNL     1      18.287   3.018  50.421  1.00  0.00    -0.308 N 
HETATM   30  C8  UNL     1      17.496   3.964  51.109  1.00  0.00     0.163 C 
BRANCH  29  31
HETATM   31  S1  UNL     1      17.838   1.386  50.558  1.00  0.00     0.224 S 
HETATM   32  C9  UNL     1      19.180   0.249  50.457  1.00  0.00     0.186 C 
HETATM   33  O3  UNL     1      16.836   1.021  49.485  1.00  0.00    -0.206 OA
HETATM   34  O4  UNL     1      17.135   1.204  51.873  1.00  0.00    -0.206 OA
ENDBRANCH  29  31
ENDBRANCH  25  29
ENDBRANCH   1  20
TORSDOF 5
ENDMDL
MODEL 5
REMARK VINA RESULT:      -8.1      2.751      7.536
REMARK  5 active torsions:
REMARK  status: ('A' for Active; 'I' for Inactive)
REMARK    1  A    between atoms: O1_2  and  C2_3 
REMARK    2  A    between atoms: C3_4  and  C24_32 
REMARK    3  A    between atoms: C5_7  and  N2_16 
REMARK    4  A    between atoms: C7_9  and  N1_10 
REMARK    5  A    between atoms: N1_10  and  S1_12 
ROOT
HETATM    1  N2  UNL     1      22.726   2.660  49.691  1.00  0.00    -0.320 N 
HETATM    2  C10 UNL     1      22.058   1.899  50.679  1.00  0.00     0.042 C 
HETATM    3  C11 UNL     1      20.871   1.344  50.752  1.00  0.00     0.037 A 
HETATM    4  C12 UNL     1      20.430   0.587  51.953  1.00  0.00     0.100 A 
HETATM    5  C13 UNL     1      19.065   0.129  51.726  1.00  0.00    -0.026 A 
HETATM    6  C14 UNL     1      18.294  -0.574  52.607  1.00  0.00     0.010 A 
HETATM    7  C15 UNL     1      17.010  -0.958  52.226  1.00  0.00     0.001 A 
HETATM    8  C16 UNL     1      16.588  -0.598  50.961  1.00  0.00     0.002 A 
HETATM    9  C17 UNL     1      17.412   0.120  50.096  1.00  0.00     0.030 A 
HETATM   10  C18 UNL     1      18.680   0.501  50.467  1.00  0.00     0.039 A 
HETATM   11  N3  UNL     1      19.760   1.217  49.907  1.00  0.00    -0.357 N 
HETATM   12  C19 UNL     1      23.080   1.747  51.746  1.00  0.00     0.100 C 
HETATM   13  C20 UNL     1      24.367   2.227  51.204  1.00  0.00    -0.025 A 
HETATM   14  C21 UNL     1      25.613   2.153  51.773  1.00  0.00     0.010 A 
HETATM   15  C22 UNL     1      26.635   2.766  51.046  1.00  0.00     0.001 A 
HETATM   16  C23 UNL     1      26.422   3.402  49.842  1.00  0.00     0.010 A 
HETATM   17  C24 UNL     1      25.159   3.445  49.316  1.00  0.00    -0.022 A 
HETATM   18  C25 UNL     1      24.103   2.845  50.007  1.00  0.00     0.050 A 
HETATM   19  H24 UNL     1      19.646   1.558  48.957  1.00  0.00     0.166 HD
ENDROOT
BRANCH   1  20
HETATM   20  C5  UNL     1      22.144   3.219  48.511  1.00  0.00     0.230 C 
HETATM   21  O2  UNL     1      20.835   3.525  48.490  1.00  0.00    -0.365 OA
HETATM   22  C4  UNL     1      20.123   3.998  49.497  1.00  0.00     0.182 C 
HETATM   23  C3  UNL     1      20.765   4.983  50.456  1.00  0.00     0.076 C 
HETATM   24  C2  UNL     1      21.580   5.960  49.698  1.00  0.00     0.155 C 
HETATM   25  C7  UNL     1      22.904   5.512  49.188  1.00  0.00     0.129 C 
HETATM   26  C6  UNL     1      22.880   4.493  48.087  1.00  0.00     0.083 C 
BRANCH  24  27
HETATM   27  O1  UNL     1      21.888   7.000  50.608  1.00  0.00    -0.388 OA
HETATM   28  C1  UNL     1      20.994   8.056  50.474  1.00  0.00     0.202 C 
ENDBRANCH  24  27
BRANCH  25  29
HETATM   29  N1  UNL     1      23.550   6.693  48.692  1.00  0.00    -0.308 N 
HETATM   30  C8  UNL     1      23.529   6.896  47.294  1.00  0.00     0.163 C 
BRANCH  29  31
HETATM   31  S1  UNL     1      24.973   7.120  49.515  1.00  0.00     0.224 S 
HETATM   32  C9  UNL     1      25.141   8.845  49.833  1.00  0.00     0.186 C 
HETATM   33  O3  UNL     1      26.189   6.668  48.738  1.00  0.00    -0.206 OA
HETATM   34  O4  UNL     1      25.001   6.373  50.818  1.00  0.00    -0.206 OA
ENDBRANCH  29  31
ENDBRANCH  25  29
ENDBRANCH   1  20
TORSDOF 5
ENDMDL
MODEL 6
REMARK VINA RESULT:      -7.8      5.564     10.618
REMARK  5 active torsions:
REMARK  status: ('A' for Active; 'I' for Inactive)
REMARK    1  A    between atoms: O1_2  and  C2_3 
REMARK    2  A    between atoms: C3_4  and  C24_32 
REMARK    3  A    between atoms: C5_7  and  N2_16 
REMARK    4  A    between atoms: C7_9  and  N1_10 
REMARK    5  A    between atoms: N1_10  and  S1_12 
ROOT
HETATM    1  N2  UNL     1      29.263   8.994  48.973  1.00  0.00    -0.320 N 
HETATM    2  C10 UNL     1      27.899   8.658  48.807  1.00  0.00     0.042 C 
HETATM    3  C11 UNL     1      27.217   7.542  48.917  1.00  0.00     0.037 A 
HETATM    4  C12 UNL     1      25.753   7.489  48.671  1.00  0.00     0.100 A 
HETATM    5  C13 UNL     1      25.311   6.112  48.847  1.00  0.00    -0.026 A 
HETATM    6  C14 UNL     1      24.039   5.644  48.677  1.00  0.00     0.010 A 
HETATM    7  C15 UNL     1      23.777   4.295  48.908  1.00  0.00     0.001 A 
HETATM    8  C16 UNL     1      24.836   3.500  49.300  1.00  0.00     0.002 A 
HETATM    9  C17 UNL     1      26.118   4.022  49.460  1.00  0.00     0.030 A 
HETATM   10  C18 UNL     1      26.382   5.353  49.234  1.00  0.00     0.039 A 
HETATM   11  N3  UNL     1      27.498   6.216  49.271  1.00  0.00    -0.357 N 
HETATM   12  C19 UNL     1      27.256   9.964  48.513  1.00  0.00     0.100 C 
HETATM   13  C20 UNL     1      28.254  11.022  48.766  1.00  0.00    -0.025 A 
HETATM   14  C21 UNL     1      28.076  12.382  48.763  1.00  0.00     0.010 A 
HETATM   15  C22 UNL     1      29.236  13.133  48.966  1.00  0.00     0.001 A 
HETATM   16  C23 UNL     1      30.475  12.563  49.158  1.00  0.00     0.010 A 
HETATM   17  C24 UNL     1      30.599  11.199  49.154  1.00  0.00    -0.022 A 
HETATM   18  C25 UNL     1      29.466  10.405  48.955  1.00  0.00     0.050 A 
HETATM   19  H24 UNL     1      28.386   5.811  49.557  1.00  0.00     0.166 HD
ENDROOT
BRANCH   1  20
HETATM   20  C5  UNL     1      30.352   8.080  49.125  1.00  0.00     0.230 C 
HETATM   21  O2  UNL     1      30.240   6.823  48.663  1.00  0.00    -0.365 OA
HETATM   22  C4  UNL     1      29.604   6.442  47.570  1.00  0.00     0.182 C 
HETATM   23  C3  UNL     1      29.647   7.333  46.343  1.00  0.00     0.076 C 
HETATM   24  C2  UNL     1      31.014   7.875  46.166  1.00  0.00     0.155 C 
HETATM   25  C7  UNL     1      31.440   8.988  47.055  1.00  0.00     0.129 C 
HETATM   26  C6  UNL     1      31.633   8.645  48.503  1.00  0.00     0.083 C 
BRANCH  24  27
HETATM   27  O1  UNL     1      31.046   8.433  44.864  1.00  0.00    -0.388 OA
HETATM   28  C1  UNL     1      29.779   8.847  44.472  1.00  0.00     0.202 C 
ENDBRANCH  24  27
BRANCH  25  29
HETATM   29  N1  UNL     1      32.695   9.445  46.532  1.00  0.00    -0.308 N 
HETATM   30  C8  UNL     1      33.865   8.896  47.102  1.00  0.00     0.163 C 
BRANCH  29  31
HETATM   31  S1  UNL     1      32.734  11.094  46.123  1.00  0.00     0.224 S 
HETATM   32  C9  UNL     1      31.160  11.787  45.738  1.00  0.00     0.186 C 
HETATM   33  O3  UNL     1      33.648  11.323  44.939  1.00  0.00    -0.206 OA
HETATM   34  O4  UNL     1      33.337  11.847  47.275  1.00  0.00    -0.206 OA
ENDBRANCH  29  31
ENDBRANCH  25  29
ENDBRANCH   1  20
TORSDOF 5
ENDMDL
MODEL 7
REMARK VINA RESULT:      -7.7      3.851      6.110
REMARK  5 active torsions:
REMARK  status: ('A' for Active; 'I' for Inactive)
REMARK    1  A    between atoms: O1_2  and  C2_3 
REMARK    2  A    between atoms: C3_4  and  C24_32 
REMARK    3  A    between atoms: C5_7  and  N2_16 
REMARK    4  A    between atoms: C7_9  and  N1_10 
REMARK    5  A    between atoms: N1_10  and  S1_12 
ROOT
HETATM    1  N2  UNL     1      20.501   2.503  51.911  1.00  0.00    -0.320 N 
HETATM    2  C10 UNL     1      21.362   1.425  52.220  1.00  0.00     0.042 C 
HETATM    3  C11 UNL     1      22.613   1.341  52.607  1.00  0.00     0.037 A 
HETATM    4  C12 UNL     1      23.271   0.033  52.859  1.00  0.00     0.100 A 
HETATM    5  C13 UNL     1      24.654   0.286  53.243  1.00  0.00    -0.026 A 
HETATM    6  C14 UNL     1      25.599  -0.658  53.526  1.00  0.00     0.010 A 
HETATM    7  C15 UNL     1      26.876  -0.248  53.901  1.00  0.00     0.001 A 
HETATM    8  C16 UNL     1      27.114   1.111  53.965  1.00  0.00     0.002 A 
HETATM    9  C17 UNL     1      26.118   2.039  53.666  1.00  0.00     0.030 A 
HETATM   10  C18 UNL     1      24.855   1.639  53.296  1.00  0.00     0.039 A 
HETATM   11  N3  UNL     1      23.638   2.245  52.918  1.00  0.00    -0.357 N 
HETATM   12  C19 UNL     1      20.484   0.234  52.085  1.00  0.00     0.100 C 
HETATM   13  C20 UNL     1      19.096   0.716  51.939  1.00  0.00    -0.025 A 
HETATM   14  C21 UNL     1      17.936  -0.017  51.923  1.00  0.00     0.010 A 
HETATM   15  C22 UNL     1      16.772   0.720  51.694  1.00  0.00     0.001 A 
HETATM   16  C23 UNL     1      16.774   2.084  51.497  1.00  0.00     0.010 A 
HETATM   17  C24 UNL     1      17.959   2.769  51.525  1.00  0.00    -0.022 A 
HETATM   18  C25 UNL     1      19.151   2.075  51.752  1.00  0.00     0.050 A 
HETATM   19  H24 UNL     1      23.608   3.261  52.918  1.00  0.00     0.166 HD
ENDROOT
BRANCH   1  20
HETATM   20  C5  UNL     1      20.879   3.873  51.745  1.00  0.00     0.230 C 
HETATM   21  O2  UNL     1      22.127   4.180  51.354  1.00  0.00    -0.365 OA
HETATM   22  C4  UNL     1      22.875   3.497  50.505  1.00  0.00     0.182 C 
HETATM   23  C3  UNL     1      22.217   2.837  49.308  1.00  0.00     0.076 C 
HETATM   24  C2  UNL     1      21.207   3.751  48.725  1.00  0.00     0.155 C 
HETATM   25  C7  UNL     1      19.906   3.890  49.432  1.00  0.00     0.129 C 
HETATM   26  C6  UNL     1      19.944   4.584  50.761  1.00  0.00     0.083 C 
BRANCH  24  27
HETATM   27  O1  UNL     1      20.866   3.201  47.465  1.00  0.00    -0.388 OA
HETATM   28  C1  UNL     1      21.831   3.507  46.514  1.00  0.00     0.202 C 
ENDBRANCH  24  27
BRANCH  25  29
HETATM   29  N1  UNL     1      19.065   4.651  48.553  1.00  0.00    -0.308 N 
HETATM   30  C8  UNL     1      18.849   6.006  48.887  1.00  0.00     0.163 C 
BRANCH  29  31
HETATM   31  S1  UNL     1      17.747   3.791  47.914  1.00  0.00     0.224 S 
HETATM   32  C9  UNL     1      17.565   3.927  46.167  1.00  0.00     0.186 C 
HETATM   33  O3  UNL     1      16.456   4.250  48.555  1.00  0.00    -0.206 OA
HETATM   34  O4  UNL     1      17.910   2.344  48.282  1.00  0.00    -0.206 OA
ENDBRANCH  29  31
ENDBRANCH  25  29
ENDBRANCH   1  20
TORSDOF 5
ENDMDL
MODEL 8
REMARK VINA RESULT:      -7.5      2.667      3.470
REMARK  5 active torsions:
REMARK  status: ('A' for Active; 'I' for Inactive)
REMARK    1  A    between atoms: O1_2  and  C2_3 
REMARK    2  A    between atoms: C3_4  and  C24_32 
REMARK    3  A    between atoms: C5_7  and  N2_16 
REMARK    4  A    between atoms: C7_9  and  N1_10 
REMARK    5  A    between atoms: N1_10  and  S1_12 
ROOT
HETATM    1  N2  UNL     1      24.142   5.629  50.100  1.00  0.00    -0.320 N 
HETATM    2  C10 UNL     1      25.348   5.122  49.562  1.00  0.00     0.042 C 
HETATM    3  C11 UNL     1      26.483   5.670  49.198  1.00  0.00     0.037 A 
HETATM    4  C12 UNL     1      27.603   4.864  48.647  1.00  0.00     0.100 A 
HETATM    5  C13 UNL     1      28.697   5.770  48.319  1.00  0.00    -0.026 A 
HETATM    6  C14 UNL     1      29.893   5.421  47.759  1.00  0.00     0.010 A 
HETATM    7  C15 UNL     1      30.846   6.410  47.527  1.00  0.00     0.001 A 
HETATM    8  C16 UNL     1      30.519   7.704  47.883  1.00  0.00     0.002 A 
HETATM    9  C17 UNL     1      29.285   8.012  48.452  1.00  0.00     0.030 A 
HETATM   10  C18 UNL     1      28.340   7.040  48.683  1.00  0.00     0.039 A 
HETATM   11  N3  UNL     1      27.030   6.960  49.201  1.00  0.00    -0.357 N 
HETATM   12  C19 UNL     1      25.121   3.654  49.533  1.00  0.00     0.100 C 
HETATM   13  C20 UNL     1      23.881   3.377  50.285  1.00  0.00    -0.025 A 
HETATM   14  C21 UNL     1      23.352   2.163  50.640  1.00  0.00     0.010 A 
HETATM   15  C22 UNL     1      22.117   2.221  51.290  1.00  0.00     0.001 A 
HETATM   16  C23 UNL     1      21.467   3.405  51.562  1.00  0.00     0.010 A 
HETATM   17  C24 UNL     1      22.040   4.591  51.188  1.00  0.00    -0.022 A 
HETATM   18  C25 UNL     1      23.276   4.584  50.535  1.00  0.00     0.050 A 
HETATM   19  H24 UNL     1      26.612   7.824  49.536  1.00  0.00     0.166 HD
ENDROOT
BRANCH   1  20
HETATM   20  C5  UNL     1      23.769   7.006  50.203  1.00  0.00     0.230 C 
HETATM   21  O2  UNL     1      24.278   7.903  49.342  1.00  0.00    -0.365 OA
HETATM   22  C4  UNL     1      24.547   7.702  48.064  1.00  0.00     0.182 C 
HETATM   23  C3  UNL     1      23.623   6.820  47.246  1.00  0.00     0.076 C 
HETATM   24  C2  UNL     1      22.213   7.114  47.594  1.00  0.00     0.155 C 
HETATM   25  C7  UNL     1      21.686   6.571  48.874  1.00  0.00     0.129 C 
HETATM   26  C6  UNL     1      22.248   7.169  50.130  1.00  0.00     0.083 C 
BRANCH  24  27
HETATM   27  O1  UNL     1      21.427   6.488  46.596  1.00  0.00    -0.388 OA
HETATM   28  C1  UNL     1      22.222   5.733  45.741  1.00  0.00     0.202 C 
ENDBRANCH  24  27
BRANCH  25  29
HETATM   29  N1  UNL     1      20.273   6.823  48.851  1.00  0.00    -0.308 N 
HETATM   30  C8  UNL     1      19.801   7.899  49.634  1.00  0.00     0.163 C 
BRANCH  29  31
HETATM   31  S1  UNL     1      19.307   5.427  48.789  1.00  0.00     0.224 S 
HETATM   32  C9  UNL     1      20.154   3.976  48.258  1.00  0.00     0.186 C 
HETATM   33  O3  UNL     1      18.126   5.642  47.868  1.00  0.00    -0.206 OA
HETATM   34  O4  UNL     1      18.737   5.193  50.160  1.00  0.00    -0.206 OA
ENDBRANCH  29  31
ENDBRANCH  25  29
ENDBRANCH   1  20
TORSDOF 5
ENDMDL
MODEL 9
REMARK VINA RESULT:      -7.0      5.276     10.340
REMARK  5 active torsions:
REMARK  status: ('A' for Active; 'I' for Inactive)
REMARK    1  A    between atoms: O1_2  and  C2_3 
REMARK    2  A    between atoms: C3_4  and  C24_32 
REMARK    3  A    between atoms: C5_7  and  N2_16 
REMARK    4  A    between atoms: C7_9  and  N1_10 
REMARK    5  A    between atoms: N1_10  and  S1_12 
ROOT
HETATM    1  N2  UNL     1      27.406   9.639  48.759  1.00  0.00    -0.320 N 
HETATM    2  C10 UNL     1      26.296   8.784  48.574  1.00  0.00     0.042 C 
HETATM    3  C11 UNL     1      26.058   7.526  48.864  1.00  0.00     0.037 A 
HETATM    4  C12 UNL     1      24.762   6.876  48.537  1.00  0.00     0.100 A 
HETATM    5  C13 UNL     1      24.831   5.484  48.961  1.00  0.00    -0.026 A 
HETATM    6  C14 UNL     1      23.853   4.543  48.806  1.00  0.00     0.010 A 
HETATM    7  C15 UNL     1      24.069   3.255  49.290  1.00  0.00     0.001 A 
HETATM    8  C16 UNL     1      25.279   3.003  49.907  1.00  0.00     0.002 A 
HETATM    9  C17 UNL     1      26.248   3.995  50.042  1.00  0.00     0.030 A 
HETATM   10  C18 UNL     1      26.039   5.269  49.566  1.00  0.00     0.039 A 
HETATM   11  N3  UNL     1      26.749   6.487  49.500  1.00  0.00    -0.357 N 
HETATM   12  C19 UNL     1      25.270   9.676  47.976  1.00  0.00     0.100 C 
HETATM   13  C20 UNL     1      25.770  11.062  48.073  1.00  0.00    -0.025 A 
HETATM   14  C21 UNL     1      25.112  12.229  47.779  1.00  0.00     0.010 A 
HETATM   15  C22 UNL     1      25.879  13.390  47.901  1.00  0.00     0.001 A 
HETATM   16  C23 UNL     1      27.202  13.378  48.289  1.00  0.00     0.010 A 
HETATM   17  C24 UNL     1      27.811  12.185  48.573  1.00  0.00    -0.022 A 
HETATM   18  C25 UNL     1      27.084  10.996  48.465  1.00  0.00     0.050 A 
HETATM   19  H24 UNL     1      27.674   6.506  49.922  1.00  0.00     0.166 HD
ENDROOT
BRANCH   1  20
HETATM   20  C5  UNL     1      28.720   9.251  49.168  1.00  0.00     0.230 C 
HETATM   21  O2  UNL     1      29.165   8.010  48.903  1.00  0.00    -0.365 OA
HETATM   22  C4  UNL     1      28.900   7.294  47.825  1.00  0.00     0.182 C 
HETATM   23  C3  UNL     1      28.798   7.993  46.483  1.00  0.00     0.076 C 
HETATM   24  C2  UNL     1      29.870   9.008  46.364  1.00  0.00     0.155 C 
HETATM   25  C7  UNL     1      29.700  10.287  47.104  1.00  0.00     0.129 C 
HETATM   26  C6  UNL     1      29.776  10.205  48.600  1.00  0.00     0.083 C 
BRANCH  24  27
HETATM   27  O1  UNL     1      29.896   9.391  45.001  1.00  0.00    -0.388 OA
HETATM   28  C1  UNL     1      30.861   8.674  44.304  1.00  0.00     0.202 C 
ENDBRANCH  24  27
BRANCH  25  29
HETATM   29  N1  UNL     1      30.757  11.144  46.648  1.00  0.00    -0.308 N 
HETATM   30  C8  UNL     1      31.859  11.319  47.515  1.00  0.00     0.163 C 
BRANCH  29  31
HETATM   31  S1  UNL     1      30.239  12.503  45.770  1.00  0.00     0.224 S 
HETATM   32  C9  UNL     1      31.259  12.915  44.394  1.00  0.00     0.186 C 
HETATM   33  O3  UNL     1      30.160  13.715  46.672  1.00  0.00    -0.206 OA
HETATM   34  O4  UNL     1      28.840  12.242  45.289  1.00  0.00    -0.206 OA
ENDBRANCH  29  31
ENDBRANCH  25  29
ENDBRANCH   1  20
TORSDOF 5
ENDMDL
