MODEL 1
REMARK VINA RESULT:     -10.2      0.000      0.000
REMARK  5 active torsions:
REMARK  status: ('A' for Active; 'I' for Inactive)
REMARK    1  A    between atoms: C1_2  and  O2_3 
REMARK    2  A    between atoms: C1_2  and  C2_4 
REMARK    3  A    between atoms: C2_4  and  C3_5 
REMARK    4  A    between atoms: C3_5  and  C4_6 
REMARK    5  A    between atoms: C14_18  and  C15_19 
ROOT
HETATM    1  C4  UNL     1      24.819   2.929  51.128  1.00  0.00     0.020 C 
HETATM    2  C5  UNL     1      24.036   2.974  49.837  1.00  0.00     0.009 C 
HETATM    3  C6  UNL     1      22.561   2.755  50.133  1.00  0.00     0.001 C 
HETATM    4  C7  UNL     1      22.150   3.915  51.007  1.00  0.00     0.004 C 
HETATM    5  C8  UNL     1      20.790   3.440  51.569  1.00  0.00     0.028 C 
HETATM    6  C9  UNL     1      21.112   2.227  52.362  1.00  0.00    -0.009 C 
HETATM    7  C10 UNL     1      22.086   1.391  52.764  1.00  0.00     0.041 A 
HETATM    8  C11 UNL     1      21.501   0.329  53.627  1.00  0.00     0.256 A 
HETATM    9  O3  UNL     1      20.359  -0.009  54.112  1.00  0.00    -0.267 OA
HETATM   10  N1  UNL     1      22.581  -0.509  53.972  1.00  0.00    -0.322 N 
HETATM   11  C12 UNL     1      23.720   0.041  53.342  1.00  0.00     0.047 A 
HETATM   12  C13 UNL     1      24.939  -0.634  53.530  1.00  0.00     0.042 A 
HETATM   13  C14 UNL     1      25.999  -0.050  52.885  1.00  0.00    -0.023 A 
HETATM   14  C21 UNL     1      25.780   1.088  52.146  1.00  0.00     0.020 A 
HETATM   15  C22 UNL     1      24.545   1.743  51.974  1.00  0.00    -0.040 A 
HETATM   16  C23 UNL     1      23.482   1.191  52.598  1.00  0.00     0.013 A 
HETATM   17  H16 UNL     1      22.446  -1.352  54.586  1.00  0.00     0.169 HD
ENDROOT
BRANCH   1  18
HETATM   18  C3  UNL     1      26.244   3.186  50.782  1.00  0.00     0.020 C 
BRANCH  18  19
HETATM   19  C2  UNL     1      26.347   3.553  49.310  1.00  0.00     0.110 C 
BRANCH  19  20
HETATM   20  C1  UNL     1      27.275   4.669  49.048  1.00  0.00     0.139 C 
HETATM   21  O1  UNL     1      28.386   4.676  48.465  1.00  0.00    -0.650 OA
BRANCH  20  22
HETATM   22  O2  UNL     1      27.144   6.008  49.389  1.00  0.00    -0.776 OA
HETATM   23  H1  UNL     1      26.232   6.459  49.538  1.00  0.00     0.167 HD
ENDBRANCH  20  22
ENDBRANCH  19  20
ENDBRANCH  18  19
ENDBRANCH   1  18
BRANCH  13  24
HETATM   24  C15 UNL     1      27.285  -0.711  53.046  1.00  0.00    -0.026 A 
HETATM   25  C16 UNL     1      28.415  -0.004  53.421  1.00  0.00     0.012 A 
HETATM   26  C17 UNL     1      29.637  -0.630  53.575  1.00  0.00     0.001 A 
HETATM   27  C18 UNL     1      29.633  -1.990  53.328  1.00  0.00     0.000 A 
HETATM   28  C19 UNL     1      28.538  -2.740  52.952  1.00  0.00     0.001 A 
HETATM   29  C20 UNL     1      27.332  -2.075  52.809  1.00  0.00     0.012 A 
ENDBRANCH  13  24
TORSDOF 5
ENDMDL
MODEL 2
REMARK VINA RESULT:     -10.1      2.607      5.644
REMARK  5 active torsions:
REMARK  status: ('A' for Active; 'I' for Inactive)
REMARK    1  A    between atoms: C1_2  and  O2_3 
REMARK    2  A    between atoms: C1_2  and  C2_4 
REMARK    3  A    between atoms: C2_4  and  C3_5 
REMARK    4  A    between atoms: C3_5  and  C4_6 
REMARK    5  A    between atoms: C14_18  and  C15_19 
ROOT
HETATM    1  C4  UNL     1      25.578   1.098  52.073  1.00  0.00     0.020 C 
HETATM    2  C5  UNL     1      25.150   1.096  53.522  1.00  0.00     0.009 C 
HETATM    3  C6  UNL     1      23.662   0.798  53.608  1.00  0.00     0.001 C 
HETATM    4  C7  UNL     1      23.498  -0.589  53.037  1.00  0.00     0.004 C 
HETATM    5  C8  UNL     1      21.971  -0.673  52.805  1.00  0.00     0.028 C 
HETATM    6  C9  UNL     1      21.683   0.383  51.803  1.00  0.00    -0.009 C 
HETATM    7  C10 UNL     1      22.204   1.368  51.047  1.00  0.00     0.041 A 
HETATM    8  C11 UNL     1      21.123   1.998  50.243  1.00  0.00     0.256 A 
HETATM    9  O3  UNL     1      19.859   1.869  50.043  1.00  0.00    -0.267 OA
HETATM   10  N1  UNL     1      21.752   3.027  49.513  1.00  0.00    -0.322 N 
HETATM   11  C12 UNL     1      23.116   2.988  49.879  1.00  0.00     0.047 A 
HETATM   12  C13 UNL     1      23.962   3.941  49.282  1.00  0.00     0.042 A 
HETATM   13  C14 UNL     1      25.269   3.851  49.689  1.00  0.00    -0.023 A 
HETATM   14  C21 UNL     1      25.614   2.882  50.603  1.00  0.00     0.020 A 
HETATM   15  C22 UNL     1      24.743   1.941  51.184  1.00  0.00    -0.040 A 
HETATM   16  C23 UNL     1      23.449   2.005  50.803  1.00  0.00     0.013 A 
HETATM   17  H16 UNL     1      21.210   3.641  48.854  1.00  0.00     0.169 HD
ENDROOT
BRANCH   1  18
HETATM   18  C3  UNL     1      27.044   1.358  52.053  1.00  0.00     0.020 C 
BRANCH  18  19
HETATM   19  C2  UNL     1      27.611   1.162  53.450  1.00  0.00     0.110 C 
BRANCH  19  20
HETATM   20  C1  UNL     1      28.695   2.106  53.781  1.00  0.00     0.139 C 
HETATM   21  O1  UNL     1      29.330   2.263  54.852  1.00  0.00    -0.650 OA
BRANCH  20  22
HETATM   22  O2  UNL     1      29.287   3.068  52.975  1.00  0.00    -0.776 OA
HETATM   23  H1  UNL     1      28.811   3.488  52.167  1.00  0.00     0.167 HD
ENDBRANCH  20  22
ENDBRANCH  19  20
ENDBRANCH  18  19
ENDBRANCH   1  18
BRANCH  13  24
HETATM   24  C15 UNL     1      26.186   4.815  49.102  1.00  0.00    -0.026 A 
HETATM   25  C16 UNL     1      27.520   4.507  48.899  1.00  0.00     0.012 A 
HETATM   26  C17 UNL     1      28.394   5.421  48.341  1.00  0.00     0.001 A 
HETATM   27  C18 UNL     1      27.831   6.641  48.013  1.00  0.00     0.000 A 
HETATM   28  C19 UNL     1      26.512   6.998  48.195  1.00  0.00     0.001 A 
HETATM   29  C20 UNL     1      25.670   6.053  48.756  1.00  0.00     0.012 A 
ENDBRANCH  13  24
TORSDOF 5
ENDMDL
MODEL 3
REMARK VINA RESULT:      -9.9      2.080      2.474
REMARK  5 active torsions:
REMARK  status: ('A' for Active; 'I' for Inactive)
REMARK    1  A    between atoms: C1_2  and  O2_3 
REMARK    2  A    between atoms: C1_2  and  C2_4 
REMARK    3  A    between atoms: C2_4  and  C3_5 
REMARK    4  A    between atoms: C3_5  and  C4_6 
REMARK    5  A    between atoms: C14_18  and  C15_19 
ROOT
HETATM    1  C4  UNL     1      23.490   2.218  51.346  1.00  0.00     0.020 C 
HETATM    2  C5  UNL     1      22.736   1.798  50.106  1.00  0.00     0.009 C 
HETATM    3  C6  UNL     1      21.487   1.031  50.510  1.00  0.00     0.001 C 
HETATM    4  C7  UNL     1      20.650   2.012  51.293  1.00  0.00     0.004 C 
HETATM    5  C8  UNL     1      19.615   1.091  51.979  1.00  0.00     0.028 C 
HETATM    6  C9  UNL     1      20.419   0.210  52.862  1.00  0.00    -0.009 C 
HETATM    7  C10 UNL     1      21.658  -0.107  53.281  1.00  0.00     0.041 A 
HETATM    8  C11 UNL     1      21.575  -1.212  54.275  1.00  0.00     0.256 A 
HETATM    9  O3  UNL     1      20.681  -1.930  54.857  1.00  0.00    -0.267 OA
HETATM   10  N1  UNL     1      22.909  -1.495  54.631  1.00  0.00    -0.322 N 
HETATM   11  C12 UNL     1      23.711  -0.602  53.885  1.00  0.00     0.047 A 
HETATM   12  C13 UNL     1      25.103  -0.697  54.062  1.00  0.00     0.042 A 
HETATM   13  C14 UNL     1      25.819   0.192  53.302  1.00  0.00    -0.023 A 
HETATM   14  C21 UNL     1      25.139   1.053  52.473  1.00  0.00     0.020 A 
HETATM   15  C22 UNL     1      23.741   1.126  52.315  1.00  0.00    -0.040 A 
HETATM   16  C23 UNL     1      23.009   0.261  53.051  1.00  0.00     0.013 A 
HETATM   17  H16 UNL     1      23.143  -2.246  55.328  1.00  0.00     0.169 HD
ENDROOT
BRANCH   1  18
HETATM   18  C3  UNL     1      24.678   2.993  50.892  1.00  0.00     0.020 C 
BRANCH  18  19
HETATM   19  C2  UNL     1      24.306   4.463  50.775  1.00  0.00     0.110 C 
BRANCH  19  20
HETATM   20  C1  UNL     1      23.527   4.964  51.923  1.00  0.00     0.139 C 
HETATM   21  O1  UNL     1      22.312   5.263  52.005  1.00  0.00    -0.650 OA
BRANCH  20  22
HETATM   22  O2  UNL     1      23.957   5.232  53.215  1.00  0.00    -0.776 OA
HETATM   23  H1  UNL     1      24.886   4.960  53.562  1.00  0.00     0.167 HD
ENDBRANCH  20  22
ENDBRANCH  19  20
ENDBRANCH  18  19
ENDBRANCH   1  18
BRANCH  13  24
HETATM   24  C15 UNL     1      27.265   0.134  53.447  1.00  0.00    -0.026 A 
HETATM   25  C16 UNL     1      27.993   1.244  53.840  1.00  0.00     0.012 A 
HETATM   26  C17 UNL     1      29.367   1.191  53.979  1.00  0.00     0.001 A 
HETATM   27  C18 UNL     1      29.936  -0.036  53.697  1.00  0.00     0.000 A 
HETATM   28  C19 UNL     1      29.258  -1.170  53.302  1.00  0.00     0.001 A 
HETATM   29  C20 UNL     1      27.883  -1.076  53.175  1.00  0.00     0.012 A 
ENDBRANCH  13  24
TORSDOF 5
ENDMDL
MODEL 4
REMARK VINA RESULT:      -9.6      2.002      5.309
REMARK  5 active torsions:
REMARK  status: ('A' for Active; 'I' for Inactive)
REMARK    1  A    between atoms: C1_2  and  O2_3 
REMARK    2  A    between atoms: C1_2  and  C2_4 
REMARK    3  A    between atoms: C2_4  and  C3_5 
REMARK    4  A    between atoms: C3_5  and  C4_6 
REMARK    5  A    between atoms: C14_18  and  C15_19 
ROOT
HETATM    1  C4  UNL     1      22.764   1.190  51.963  1.00  0.00     0.020 C 
HETATM    2  C5  UNL     1      21.794   2.078  52.705  1.00  0.00     0.009 C 
HETATM    3  C6  UNL     1      21.604   3.374  51.935  1.00  0.00     0.001 C 
HETATM    4  C7  UNL     1      20.999   2.970  50.613  1.00  0.00     0.004 C 
HETATM    5  C8  UNL     1      21.185   4.246  49.759  1.00  0.00     0.028 C 
HETATM    6  C9  UNL     1      22.656   4.428  49.669  1.00  0.00    -0.009 C 
HETATM    7  C10 UNL     1      23.858   3.947  50.037  1.00  0.00     0.041 A 
HETATM    8  C11 UNL     1      24.930   4.805  49.463  1.00  0.00     0.256 A 
HETATM    9  O3  UNL     1      25.046   5.844  48.713  1.00  0.00    -0.267 OA
HETATM   10  N1  UNL     1      26.141   4.248  49.922  1.00  0.00    -0.322 N 
HETATM   11  C12 UNL     1      25.782   3.134  50.714  1.00  0.00     0.047 A 
HETATM   12  C13 UNL     1      26.834   2.406  51.301  1.00  0.00     0.042 A 
HETATM   13  C14 UNL     1      26.414   1.346  52.062  1.00  0.00    -0.023 A 
HETATM   14  C21 UNL     1      25.065   1.104  52.176  1.00  0.00     0.020 A 
HETATM   15  C22 UNL     1      24.033   1.850  51.575  1.00  0.00    -0.040 A 
HETATM   16  C23 UNL     1      24.416   2.903  50.819  1.00  0.00     0.013 A 
HETATM   17  H16 UNL     1      27.069   4.665  49.660  1.00  0.00     0.169 HD
ENDROOT
BRANCH   1  18
HETATM   18  C3  UNL     1      22.882  -0.074  52.741  1.00  0.00     0.020 C 
BRANCH  18  19
HETATM   19  C2  UNL     1      22.101   0.060  54.040  1.00  0.00     0.110 C 
BRANCH  19  20
HETATM   20  C1  UNL     1      22.079  -1.179  54.840  1.00  0.00     0.139 C 
HETATM   21  O1  UNL     1      21.215  -2.086  54.900  1.00  0.00    -0.650 OA
BRANCH  20  22
HETATM   22  O2  UNL     1      23.026  -1.651  55.739  1.00  0.00    -0.776 OA
HETATM   23  H1  UNL     1      23.340  -2.630  55.755  1.00  0.00     0.167 HD
ENDBRANCH  20  22
ENDBRANCH  19  20
ENDBRANCH  18  19
ENDBRANCH   1  18
BRANCH  13  24
HETATM   24  C15 UNL     1      27.463   0.561  52.694  1.00  0.00    -0.026 A 
HETATM   25  C16 UNL     1      27.432  -0.823  52.681  1.00  0.00     0.012 A 
HETATM   26  C17 UNL     1      28.428  -1.571  53.281  1.00  0.00     0.001 A 
HETATM   27  C18 UNL     1      29.432  -0.833  53.880  1.00  0.00     0.000 A 
HETATM   28  C19 UNL     1      29.509   0.543  53.922  1.00  0.00     0.001 A 
HETATM   29  C20 UNL     1      28.493   1.255  53.309  1.00  0.00     0.012 A 
ENDBRANCH  13  24
TORSDOF 5
ENDMDL
MODEL 5
REMARK VINA RESULT:      -9.4      2.734      5.534
REMARK  5 active torsions:
REMARK  status: ('A' for Active; 'I' for Inactive)
REMARK    1  A    between atoms: C1_2  and  O2_3 
REMARK    2  A    between atoms: C1_2  and  C2_4 
REMARK    3  A    between atoms: C2_4  and  C3_5 
REMARK    4  A    between atoms: C3_5  and  C4_6 
REMARK    5  A    between atoms: C14_18  and  C15_19 
ROOT
HETATM    1  C4  UNL     1      22.078   2.313  51.366  1.00  0.00     0.020 C 
HETATM    2  C5  UNL     1      21.319   1.126  50.823  1.00  0.00     0.009 C 
HETATM    3  C6  UNL     1      21.716  -0.123  51.594  1.00  0.00     0.001 C 
HETATM    4  C7  UNL     1      21.289   0.133  53.019  1.00  0.00     0.004 C 
HETATM    5  C8  UNL     1      22.044  -0.971  53.794  1.00  0.00     0.028 C 
HETATM    6  C9  UNL     1      23.482  -0.670  53.576  1.00  0.00    -0.009 C 
HETATM    7  C10 UNL     1      24.365   0.150  52.978  1.00  0.00     0.041 A 
HETATM    8  C11 UNL     1      25.748  -0.291  53.305  1.00  0.00     0.256 A 
HETATM    9  O3  UNL     1      26.341  -1.199  53.997  1.00  0.00    -0.267 OA
HETATM   10  N1  UNL     1      26.597   0.600  52.617  1.00  0.00    -0.322 N 
HETATM   11  C12 UNL     1      25.747   1.500  51.934  1.00  0.00     0.047 A 
HETATM   12  C13 UNL     1      26.368   2.495  51.156  1.00  0.00     0.042 A 
HETATM   13  C14 UNL     1      25.485   3.326  50.516  1.00  0.00    -0.023 A 
HETATM   14  C21 UNL     1      24.136   3.119  50.686  1.00  0.00     0.020 A 
HETATM   15  C22 UNL     1      23.543   2.113  51.473  1.00  0.00    -0.040 A 
HETATM   16  C23 UNL     1      24.388   1.277  52.116  1.00  0.00     0.013 A 
HETATM   17  H16 UNL     1      27.643   0.515  52.674  1.00  0.00     0.169 HD
ENDROOT
BRANCH   1  18
HETATM   18  C3  UNL     1      21.623   3.508  50.602  1.00  0.00     0.020 C 
BRANCH  18  19
HETATM   19  C2  UNL     1      21.116   4.564  51.572  1.00  0.00     0.110 C 
BRANCH  19  20
HETATM   20  C1  UNL     1      21.826   5.852  51.459  1.00  0.00     0.139 C 
HETATM   21  O1  UNL     1      21.517   6.892  50.829  1.00  0.00    -0.650 OA
BRANCH  20  22
HETATM   22  O2  UNL     1      23.031   6.235  52.031  1.00  0.00    -0.776 OA
HETATM   23  H1  UNL     1      23.893   6.360  51.485  1.00  0.00     0.167 HD
ENDBRANCH  20  22
ENDBRANCH  19  20
ENDBRANCH  18  19
ENDBRANCH   1  18
BRANCH  13  24
HETATM   24  C15 UNL     1      26.076   4.372  49.696  1.00  0.00    -0.026 A 
HETATM   25  C16 UNL     1      27.356   4.248  49.184  1.00  0.00     0.012 A 
HETATM   26  C17 UNL     1      27.919   5.241  48.405  1.00  0.00     0.001 A 
HETATM   27  C18 UNL     1      27.112   6.341  48.187  1.00  0.00     0.000 A 
HETATM   28  C19 UNL     1      25.833   6.515  48.673  1.00  0.00     0.001 A 
HETATM   29  C20 UNL     1      25.305   5.497  49.449  1.00  0.00     0.012 A 
ENDBRANCH  13  24
TORSDOF 5
ENDMDL
MODEL 6
REMARK VINA RESULT:      -9.3      3.078      6.032
REMARK  5 active torsions:
REMARK  status: ('A' for Active; 'I' for Inactive)
REMARK    1  A    between atoms: C1_2  and  O2_3 
REMARK    2  A    between atoms: C1_2  and  C2_4 
REMARK    3  A    between atoms: C2_4  and  C3_5 
REMARK    4  A    between atoms: C3_5  and  C4_6 
REMARK    5  A    between atoms: C14_18  and  C15_19 
ROOT
HETATM    1  C4  UNL     1      22.169   2.323  52.254  1.00  0.00     0.020 C 
HETATM    2  C5  UNL     1      21.239   1.224  51.798  1.00  0.00     0.009 C 
HETATM    3  C6  UNL     1      21.700  -0.102  52.381  1.00  0.00     0.001 C 
HETATM    4  C7  UNL     1      21.587   0.057  53.877  1.00  0.00     0.004 C 
HETATM    5  C8  UNL     1      22.408  -1.144  54.401  1.00  0.00     0.028 C 
HETATM    6  C9  UNL     1      23.789  -0.899  53.913  1.00  0.00    -0.009 C 
HETATM    7  C10 UNL     1      24.586  -0.079  53.204  1.00  0.00     0.041 A 
HETATM    8  C11 UNL     1      25.974  -0.615  53.207  1.00  0.00     0.256 A 
HETATM    9  O3  UNL     1      26.632  -1.605  53.697  1.00  0.00    -0.267 OA
HETATM   10  N1  UNL     1      26.724   0.286  52.422  1.00  0.00    -0.322 N 
HETATM   11  C12 UNL     1      25.816   1.280  51.994  1.00  0.00     0.047 A 
HETATM   12  C13 UNL     1      26.331   2.302  51.176  1.00  0.00     0.042 A 
HETATM   13  C14 UNL     1      25.394   3.227  50.792  1.00  0.00    -0.023 A 
HETATM   14  C21 UNL     1      24.097   3.075  51.222  1.00  0.00     0.020 A 
HETATM   15  C22 UNL     1      23.609   2.040  52.042  1.00  0.00    -0.040 A 
HETATM   16  C23 UNL     1      24.509   1.113  52.437  1.00  0.00     0.013 A 
HETATM   17  H16 UNL     1      27.752   0.143  52.256  1.00  0.00     0.169 HD
ENDROOT
BRANCH   1  18
HETATM   18  C3  UNL     1      21.650   3.597  51.685  1.00  0.00     0.020 C 
BRANCH  18  19
HETATM   19  C2  UNL     1      20.550   3.290  50.681  1.00  0.00     0.110 C 
BRANCH  19  20
HETATM   20  C1  UNL     1      19.238   3.847  51.061  1.00  0.00     0.139 C 
HETATM   21  O1  UNL     1      18.578   3.711  52.119  1.00  0.00    -0.650 OA
BRANCH  20  22
HETATM   22  O2  UNL     1      18.398   4.672  50.326  1.00  0.00    -0.776 OA
HETATM   23  H1  UNL     1      17.665   5.249  50.759  1.00  0.00     0.167 HD
ENDBRANCH  20  22
ENDBRANCH  19  20
ENDBRANCH  18  19
ENDBRANCH   1  18
BRANCH  13  24
HETATM   24  C15 UNL     1      25.876   4.305  49.942  1.00  0.00    -0.026 A 
HETATM   25  C16 UNL     1      25.134   5.459  49.754  1.00  0.00     0.012 A 
HETATM   26  C17 UNL     1      25.589   6.484  48.948  1.00  0.00     0.001 A 
HETATM   27  C18 UNL     1      26.820   6.262  48.359  1.00  0.00     0.000 A 
HETATM   28  C19 UNL     1      27.598   5.134  48.513  1.00  0.00     0.001 A 
HETATM   29  C20 UNL     1      27.106   4.130  49.329  1.00  0.00     0.012 A 
ENDBRANCH  13  24
TORSDOF 5
ENDMDL
MODEL 7
REMARK VINA RESULT:      -9.1      3.098      6.455
REMARK  5 active torsions:
REMARK  status: ('A' for Active; 'I' for Inactive)
REMARK    1  A    between atoms: C1_2  and  O2_3 
REMARK    2  A    between atoms: C1_2  and  C2_4 
REMARK    3  A    between atoms: C2_4  and  C3_5 
REMARK    4  A    between atoms: C3_5  and  C4_6 
REMARK    5  A    between atoms: C14_18  and  C15_19 
ROOT
HETATM    1  C4  UNL     1      23.140   1.369  51.170  1.00  0.00     0.020 C 
HETATM    2  C5  UNL     1      23.721   2.718  51.527  1.00  0.00     0.009 C 
HETATM    3  C6  UNL     1      24.841   2.533  52.538  1.00  0.00     0.001 C 
HETATM    4  C7  UNL     1      25.889   1.711  51.830  1.00  0.00     0.004 C 
HETATM    5  C8  UNL     1      26.792   1.249  52.997  1.00  0.00     0.028 C 
HETATM    6  C9  UNL     1      25.908   0.416  53.851  1.00  0.00    -0.009 C 
HETATM    7  C10 UNL     1      24.665  -0.072  54.018  1.00  0.00     0.041 A 
HETATM    8  C11 UNL     1      24.621  -0.902  55.252  1.00  0.00     0.256 A 
HETATM    9  O3  UNL     1      25.414  -1.302  56.183  1.00  0.00    -0.267 OA
HETATM   10  N1  UNL     1      23.286  -1.341  55.360  1.00  0.00    -0.322 N 
HETATM   11  C12 UNL     1      22.604  -0.793  54.250  1.00  0.00     0.047 A 
HETATM   12  C13 UNL     1      21.232  -1.085  54.139  1.00  0.00     0.042 A 
HETATM   13  C14 UNL     1      20.632  -0.515  53.046  1.00  0.00    -0.023 A 
HETATM   14  C21 UNL     1      21.394   0.255  52.198  1.00  0.00     0.020 A 
HETATM   15  C22 UNL     1      22.768   0.530  52.334  1.00  0.00    -0.040 A 
HETATM   16  C23 UNL     1      23.386  -0.017  53.404  1.00  0.00     0.013 A 
HETATM   17  H16 UNL     1      22.973  -1.954  56.154  1.00  0.00     0.169 HD
ENDROOT
BRANCH   1  18
HETATM   18  C3  UNL     1      22.078   1.607  50.155  1.00  0.00     0.020 C 
BRANCH  18  19
HETATM   19  C2  UNL     1      22.671   2.358  48.972  1.00  0.00     0.110 C 
BRANCH  19  20
HETATM   20  C1  UNL     1      21.713   2.563  47.869  1.00  0.00     0.139 C 
HETATM   21  O1  UNL     1      21.865   3.140  46.765  1.00  0.00    -0.650 OA
BRANCH  20  22
HETATM   22  O2  UNL     1      20.387   2.163  47.781  1.00  0.00    -0.776 OA
HETATM   23  H1  UNL     1      19.633   2.608  48.319  1.00  0.00     0.167 HD
ENDBRANCH  20  22
ENDBRANCH  19  20
ENDBRANCH  18  19
ENDBRANCH   1  18
BRANCH  13  24
HETATM   24  C15 UNL     1      19.212  -0.785  52.885  1.00  0.00    -0.026 A 
HETATM   25  C16 UNL     1      18.420  -0.002  52.063  1.00  0.00     0.012 A 
HETATM   26  C17 UNL     1      17.070  -0.257  51.910  1.00  0.00     0.001 A 
HETATM   27  C18 UNL     1      16.593  -1.335  52.632  1.00  0.00     0.000 A 
HETATM   28  C19 UNL     1      17.338  -2.144  53.463  1.00  0.00     0.001 A 
HETATM   29  C20 UNL     1      18.686  -1.856  53.590  1.00  0.00     0.012 A 
ENDBRANCH  13  24
TORSDOF 5
ENDMDL
MODEL 8
REMARK VINA RESULT:      -8.7      2.760      6.244
REMARK  5 active torsions:
REMARK  status: ('A' for Active; 'I' for Inactive)
REMARK    1  A    between atoms: C1_2  and  O2_3 
REMARK    2  A    between atoms: C1_2  and  C2_4 
REMARK    3  A    between atoms: C2_4  and  C3_5 
REMARK    4  A    between atoms: C3_5  and  C4_6 
REMARK    5  A    between atoms: C14_18  and  C15_19 
ROOT
HETATM    1  C4  UNL     1      22.652   4.737  49.678  1.00  0.00     0.020 C 
HETATM    2  C5  UNL     1      22.247   6.101  50.183  1.00  0.00     0.009 C 
HETATM    3  C6  UNL     1      23.160   7.156  49.579  1.00  0.00     0.001 C 
HETATM    4  C7  UNL     1      22.925   7.085  48.091  1.00  0.00     0.004 C 
HETATM    5  C8  UNL     1      24.124   7.883  47.528  1.00  0.00     0.028 C 
HETATM    6  C9  UNL     1      25.321   7.109  47.944  1.00  0.00    -0.009 C 
HETATM    7  C10 UNL     1      25.767   6.027  48.609  1.00  0.00     0.041 A 
HETATM    8  C11 UNL     1      27.252   5.980  48.535  1.00  0.00     0.256 A 
HETATM    9  O3  UNL     1      28.221   6.646  48.014  1.00  0.00    -0.267 OA
HETATM   10  N1  UNL     1      27.627   4.842  49.279  1.00  0.00    -0.322 N 
HETATM   11  C12 UNL     1      26.424   4.270  49.751  1.00  0.00     0.047 A 
HETATM   12  C13 UNL     1      26.537   3.111  50.540  1.00  0.00     0.042 A 
HETATM   13  C14 UNL     1      25.333   2.616  50.970  1.00  0.00    -0.023 A 
HETATM   14  C21 UNL     1      24.179   3.271  50.608  1.00  0.00     0.020 A 
HETATM   15  C22 UNL     1      24.096   4.432  49.816  1.00  0.00    -0.040 A 
HETATM   16  C23 UNL     1      25.267   4.944  49.377  1.00  0.00     0.013 A 
HETATM   17  H16 UNL     1      28.635   4.569  49.392  1.00  0.00     0.169 HD
ENDROOT
BRANCH   1  18
HETATM   18  C3  UNL     1      21.704   3.753  50.270  1.00  0.00     0.020 C 
BRANCH  18  19
HETATM   19  C2  UNL     1      20.489   4.489  50.813  1.00  0.00     0.110 C 
BRANCH  19  20
HETATM   20  C1  UNL     1      19.729   3.710  51.809  1.00  0.00     0.139 C 
HETATM   21  O1  UNL     1      18.490   3.568  51.949  1.00  0.00    -0.650 OA
BRANCH  20  22
HETATM   22  O2  UNL     1      20.207   2.930  52.853  1.00  0.00    -0.776 OA
HETATM   23  H1  UNL     1      21.173   2.993  53.199  1.00  0.00     0.167 HD
ENDBRANCH  20  22
ENDBRANCH  19  20
ENDBRANCH  18  19
ENDBRANCH   1  18
BRANCH  13  24
HETATM   24  C15 UNL     1      25.394   1.417  51.791  1.00  0.00    -0.026 A 
HETATM   25  C16 UNL     1      26.537   0.638  51.842  1.00  0.00     0.012 A 
HETATM   26  C17 UNL     1      26.598  -0.502  52.622  1.00  0.00     0.001 A 
HETATM   27  C18 UNL     1      25.445  -0.788  53.328  1.00  0.00     0.000 A 
HETATM   28  C19 UNL     1      24.282  -0.047  53.312  1.00  0.00     0.001 A 
HETATM   29  C20 UNL     1      24.262   1.087  52.519  1.00  0.00     0.012 A 
ENDBRANCH  13  24
TORSDOF 5
ENDMDL
MODEL 9
REMARK VINA RESULT:      -8.3      6.401     10.680
REMARK  5 active torsions:
REMARK  status: ('A' for Active; 'I' for Inactive)
REMARK    1  A    between atoms: C1_2  and  O2_3 
REMARK    2  A    between atoms: C1_2  and  C2_4 
REMARK    3  A    between atoms: C2_4  and  C3_5 
REMARK    4  A    between atoms: C3_5  and  C4_6 
REMARK    5  A    between atoms: C14_18  and  C15_19 
ROOT
HETATM    1  C4  UNL     1      31.935   5.726  47.224  1.00  0.00     0.020 C 
HETATM    2  C5  UNL     1      32.520   5.906  45.843  1.00  0.00     0.009 C 
HETATM    3  C6  UNL     1      33.015   7.334  45.686  1.00  0.00     0.001 C 
HETATM    4  C7  UNL     1      34.107   7.495  46.715  1.00  0.00     0.004 C 
HETATM    5  C8  UNL     1      34.294   9.029  46.764  1.00  0.00     0.028 C 
HETATM    6  C9  UNL     1      32.990   9.553  47.244  1.00  0.00    -0.009 C 
HETATM    7  C10 UNL     1      31.740   9.234  47.629  1.00  0.00     0.041 A 
HETATM    8  C11 UNL     1      31.003  10.475  47.988  1.00  0.00     0.256 A 
HETATM    9  O3  UNL     1      31.209  11.743  48.058  1.00  0.00    -0.267 OA
HETATM   10  N1  UNL     1      29.707  10.050  48.346  1.00  0.00    -0.322 N 
HETATM   11  C12 UNL     1      29.703   8.644  48.200  1.00  0.00     0.047 A 
HETATM   12  C13 UNL     1      28.500   7.977  48.494  1.00  0.00     0.042 A 
HETATM   13  C14 UNL     1      28.565   6.618  48.322  1.00  0.00    -0.023 A 
HETATM   14  C21 UNL     1      29.748   6.060  47.898  1.00  0.00     0.020 A 
HETATM   15  C22 UNL     1      30.939   6.754  47.611  1.00  0.00    -0.040 A 
HETATM   16  C23 UNL     1      30.905   8.095  47.770  1.00  0.00     0.013 A 
HETATM   17  H16 UNL     1      28.969  10.735  48.647  1.00  0.00     0.169 HD
ENDROOT
BRANCH   1  18
HETATM   18  C3  UNL     1      31.502   4.305  47.332  1.00  0.00     0.020 C 
BRANCH  18  19
HETATM   19  C2  UNL     1      32.572   3.405  46.735  1.00  0.00     0.110 C 
BRANCH  19  20
HETATM   20  C1  UNL     1      33.342   2.659  47.747  1.00  0.00     0.139 C 
HETATM   21  O1  UNL     1      33.108   1.549  48.284  1.00  0.00    -0.650 OA
BRANCH  20  22
HETATM   22  O2  UNL     1      34.535   3.008  48.365  1.00  0.00    -0.776 OA
HETATM   23  H1  UNL     1      35.283   3.524  47.883  1.00  0.00     0.167 HD
ENDBRANCH  20  22
ENDBRANCH  19  20
ENDBRANCH  18  19
ENDBRANCH   1  18
BRANCH  13  24
HETATM   24  C15 UNL     1      27.346   5.881  48.612  1.00  0.00    -0.026 A 
HETATM   25  C16 UNL     1      26.104   6.489  48.541  1.00  0.00     0.012 A 
HETATM   26  C17 UNL     1      24.944   5.790  48.816  1.00  0.00     0.001 A 
HETATM   27  C18 UNL     1      25.128   4.463  49.159  1.00  0.00     0.000 A 
HETATM   28  C19 UNL     1      26.340   3.811  49.244  1.00  0.00     0.001 A 
HETATM   29  C20 UNL     1      27.478   4.546  48.961  1.00  0.00     0.012 A 
ENDBRANCH  13  24
TORSDOF 5
ENDMDL
