MODEL 1
REMARK VINA RESULT:      -6.5      0.000      0.000
REMARK  7 active torsions:
REMARK  status: ('A' for Active; 'I' for Inactive)
REMARK    1  A    between atoms: C3_3  and  N1_4 
REMARK    2  A    between atoms: N1_4  and  C4_5 
REMARK    3  A    between atoms: C4_5  and  C5_6 
REMARK    4  A    between atoms: C5_6  and  N2_7 
REMARK       I    between atoms: N2_7  and  C6_8 
REMARK       I    between atoms: C6_8  and  N3_10 
REMARK    5  A    between atoms: N3_10  and  C7_11 
REMARK    6  A    between atoms: C10_14  and  O2_15 
REMARK    7  A    between atoms: O2_15  and  C11_16 
ROOT
HETATM    1  N2  UNL     1      24.409   7.747  51.325  1.00  0.00    -0.341 N 
HETATM    2  C6  UNL     1      24.006   6.388  51.321  1.00  0.00     0.320 C 
HETATM    3  O1  UNL     1      23.916   5.892  50.181  1.00  0.00    -0.247 OA
HETATM    4  N3  UNL     1      23.720   5.607  52.462  1.00  0.00    -0.309 N 
HETATM    5  H11 UNL     1      24.500   8.220  52.268  1.00  0.00     0.164 HD
HETATM    6  H12 UNL     1      23.843   6.174  53.328  1.00  0.00     0.170 HD
ENDROOT
BRANCH   4   7
HETATM    7  C7  UNL     1      23.317   4.257  52.544  1.00  0.00     0.036 A 
HETATM    8  C8  UNL     1      24.121   3.197  52.874  1.00  0.00     0.032 A 
HETATM    9  C9  UNL     1      23.713   1.888  52.961  1.00  0.00     0.039 A 
HETATM   10  C10 UNL     1      22.402   1.565  52.708  1.00  0.00     0.069 A 
HETATM   11  C14 UNL     1      21.558   2.629  52.369  1.00  0.00     0.039 A 
HETATM   12  C15 UNL     1      22.006   3.944  52.289  1.00  0.00     0.032 A 
BRANCH  10  13
HETATM   13  O2  UNL     1      21.727   0.387  52.718  1.00  0.00    -0.347 OA
BRANCH  13  14
HETATM   14  C11 UNL     1      20.875   0.041  53.783  1.00  0.00     0.120 C 
HETATM   15  C12 UNL     1      19.565  -0.514  53.217  1.00  0.00     0.040 C 
HETATM   16  C13 UNL     1      21.543  -1.094  54.553  1.00  0.00     0.040 C 
ENDBRANCH  13  14
ENDBRANCH  10  13
ENDBRANCH   4   7
BRANCH   1  17
HETATM   17  C5  UNL     1      24.639   8.281  49.979  1.00  0.00     0.144 C 
BRANCH  17  18
HETATM   18  C4  UNL     1      25.997   8.965  50.044  1.00  0.00     0.138 C 
BRANCH  18  19
HETATM   19  N1  UNL     1      27.037   7.929  49.996  1.00  0.00    -0.398 N 
HETATM   20  H6  UNL     1      27.363   7.390  50.837  1.00  0.00     0.158 HD
BRANCH  19  21
HETATM   21  C3  UNL     1      27.648   7.620  48.756  1.00  0.00     0.078 C 
HETATM   22  C2  UNL     1      27.683   6.439  48.163  1.00  0.00    -0.014 C 
HETATM   23  C1  UNL     1      27.045   5.262  48.786  1.00  0.00     0.037 C 
ENDBRANCH  19  21
ENDBRANCH  18  19
ENDBRANCH  17  18
ENDBRANCH   1  17
TORSDOF 7
ENDMDL
MODEL 2
REMARK VINA RESULT:      -6.2      2.486      3.060
REMARK  7 active torsions:
REMARK  status: ('A' for Active; 'I' for Inactive)
REMARK    1  A    between atoms: C3_3  and  N1_4 
REMARK    2  A    between atoms: N1_4  and  C4_5 
REMARK    3  A    between atoms: C4_5  and  C5_6 
REMARK    4  A    between atoms: C5_6  and  N2_7 
REMARK       I    between atoms: N2_7  and  C6_8 
REMARK       I    between atoms: C6_8  and  N3_10 
REMARK    5  A    between atoms: N3_10  and  C7_11 
REMARK    6  A    between atoms: C10_14  and  O2_15 
REMARK    7  A    between atoms: O2_15  and  C11_16 
ROOT
HETATM    1  N2  UNL     1      26.737   5.258  49.626  1.00  0.00    -0.341 N 
HETATM    2  C6  UNL     1      26.300   4.008  50.129  1.00  0.00     0.320 C 
HETATM    3  O1  UNL     1      26.830   3.027  49.570  1.00  0.00    -0.247 OA
HETATM    4  N3  UNL     1      25.359   3.815  51.163  1.00  0.00    -0.309 N 
HETATM    5  H11 UNL     1      26.318   6.127  50.063  1.00  0.00     0.164 HD
HETATM    6  H12 UNL     1      25.016   4.735  51.516  1.00  0.00     0.170 HD
ENDROOT
BRANCH   4   7
HETATM    7  C7  UNL     1      24.874   2.612  51.720  1.00  0.00     0.036 A 
HETATM    8  C8  UNL     1      25.603   1.718  52.458  1.00  0.00     0.032 A 
HETATM    9  C9  UNL     1      25.115   0.555  53.003  1.00  0.00     0.039 A 
HETATM   10  C10 UNL     1      23.795   0.219  52.823  1.00  0.00     0.069 A 
HETATM   11  C14 UNL     1      23.026   1.116  52.073  1.00  0.00     0.039 A 
HETATM   12  C15 UNL     1      23.554   2.285  51.534  1.00  0.00     0.032 A 
BRANCH  10  13
HETATM   13  O2  UNL     1      23.051  -0.839  53.236  1.00  0.00    -0.347 OA
BRANCH  13  14
HETATM   14  C11 UNL     1      22.275  -0.776  54.408  1.00  0.00     0.120 C 
HETATM   15  C12 UNL     1      21.009  -1.616  54.218  1.00  0.00     0.040 C 
HETATM   16  C13 UNL     1      23.081  -1.430  55.526  1.00  0.00     0.040 C 
ENDBRANCH  13  14
ENDBRANCH  10  13
ENDBRANCH   4   7
BRANCH   1  17
HETATM   17  C5  UNL     1      27.729   5.132  48.553  1.00  0.00     0.144 C 
BRANCH  17  18
HETATM   18  C4  UNL     1      28.017   6.555  48.100  1.00  0.00     0.138 C 
BRANCH  18  19
HETATM   19  N1  UNL     1      29.140   7.073  48.892  1.00  0.00    -0.398 N 
HETATM   20  H6  UNL     1      29.549   6.572  49.720  1.00  0.00     0.158 HD
BRANCH  19  21
HETATM   21  C3  UNL     1      29.721   8.315  48.537  1.00  0.00     0.078 C 
HETATM   22  C2  UNL     1      30.936   8.736  48.843  1.00  0.00    -0.014 C 
HETATM   23  C1  UNL     1      31.853   7.889  49.632  1.00  0.00     0.037 C 
ENDBRANCH  19  21
ENDBRANCH  18  19
ENDBRANCH  17  18
ENDBRANCH   1  17
TORSDOF 7
ENDMDL
MODEL 3
REMARK VINA RESULT:      -6.2      3.884      8.524
REMARK  7 active torsions:
REMARK  status: ('A' for Active; 'I' for Inactive)
REMARK    1  A    between atoms: C3_3  and  N1_4 
REMARK    2  A    between atoms: N1_4  and  C4_5 
REMARK    3  A    between atoms: C4_5  and  C5_6 
REMARK    4  A    between atoms: C5_6  and  N2_7 
REMARK       I    between atoms: N2_7  and  C6_8 
REMARK       I    between atoms: C6_8  and  N3_10 
REMARK    5  A    between atoms: N3_10  and  C7_11 
REMARK    6  A    between atoms: C10_14  and  O2_15 
REMARK    7  A    between atoms: O2_15  and  C11_16 
ROOT
HETATM    1  N2  UNL     1      24.981   0.863  52.385  1.00  0.00    -0.341 N 
HETATM    2  C6  UNL     1      25.700   1.828  51.638  1.00  0.00     0.320 C 
HETATM    3  O1  UNL     1      26.932   1.636  51.618  1.00  0.00    -0.247 OA
HETATM    4  N3  UNL     1      25.140   2.929  50.952  1.00  0.00    -0.309 N 
HETATM    5  H11 UNL     1      23.930   0.978  52.438  1.00  0.00     0.164 HD
HETATM    6  H12 UNL     1      24.105   2.941  51.073  1.00  0.00     0.170 HD
ENDROOT
BRANCH   4   7
HETATM    7  C7  UNL     1      25.781   3.928  50.189  1.00  0.00     0.036 A 
HETATM    8  C8  UNL     1      26.886   3.751  49.399  1.00  0.00     0.032 A 
HETATM    9  C9  UNL     1      27.494   4.731  48.652  1.00  0.00     0.039 A 
HETATM   10  C10 UNL     1      26.988   6.008  48.665  1.00  0.00     0.069 A 
HETATM   11  C14 UNL     1      25.858   6.218  49.464  1.00  0.00     0.039 A 
HETATM   12  C15 UNL     1      25.269   5.201  50.209  1.00  0.00     0.032 A 
BRANCH  10  13
HETATM   13  O2  UNL     1      27.368   7.154  48.041  1.00  0.00    -0.347 OA
BRANCH  13  14
HETATM   14  C11 UNL     1      28.719   7.418  47.755  1.00  0.00     0.120 C 
HETATM   15  C12 UNL     1      28.829   7.997  46.341  1.00  0.00     0.040 C 
HETATM   16  C13 UNL     1      29.187   8.504  48.718  1.00  0.00     0.040 C 
ENDBRANCH  13  14
ENDBRANCH  10  13
ENDBRANCH   4   7
BRANCH   1  17
HETATM   17  C5  UNL     1      25.844  -0.166  52.976  1.00  0.00     0.144 C 
BRANCH  17  18
HETATM   18  C4  UNL     1      26.024   0.246  54.429  1.00  0.00     0.138 C 
BRANCH  18  19
HETATM   19  N1  UNL     1      27.289  -0.320  54.916  1.00  0.00    -0.398 N 
HETATM   20  H6  UNL     1      27.349  -1.174  55.527  1.00  0.00     0.158 HD
BRANCH  19  21
HETATM   21  C3  UNL     1      28.509   0.300  54.553  1.00  0.00     0.078 C 
HETATM   22  C2  UNL     1      29.496  -0.239  53.858  1.00  0.00    -0.014 C 
HETATM   23  C1  UNL     1      29.402  -1.629  53.367  1.00  0.00     0.037 C 
ENDBRANCH  19  21
ENDBRANCH  18  19
ENDBRANCH  17  18
ENDBRANCH   1  17
TORSDOF 7
ENDMDL
MODEL 4
REMARK VINA RESULT:      -6.1      4.130      6.346
REMARK  7 active torsions:
REMARK  status: ('A' for Active; 'I' for Inactive)
REMARK    1  A    between atoms: C3_3  and  N1_4 
REMARK    2  A    between atoms: N1_4  and  C4_5 
REMARK    3  A    between atoms: C4_5  and  C5_6 
REMARK    4  A    between atoms: C5_6  and  N2_7 
REMARK       I    between atoms: N2_7  and  C6_8 
REMARK       I    between atoms: C6_8  and  N3_10 
REMARK    5  A    between atoms: N3_10  and  C7_11 
REMARK    6  A    between atoms: C10_14  and  O2_15 
REMARK    7  A    between atoms: O2_15  and  C11_16 
ROOT
HETATM    1  N2  UNL     1      27.419   2.424  54.151  1.00  0.00    -0.341 N 
HETATM    2  C6  UNL     1      26.449   2.523  53.122  1.00  0.00     0.320 C 
HETATM    3  O1  UNL     1      26.882   2.227  51.991  1.00  0.00    -0.247 OA
HETATM    4  N3  UNL     1      25.102   2.911  53.291  1.00  0.00    -0.309 N 
HETATM    5  H11 UNL     1      27.107   2.667  55.133  1.00  0.00     0.164 HD
HETATM    6  H12 UNL     1      24.910   3.123  54.294  1.00  0.00     0.170 HD
ENDROOT
BRANCH   4   7
HETATM    7  C7  UNL     1      24.078   3.032  52.327  1.00  0.00     0.036 A 
HETATM    8  C8  UNL     1      23.698   4.190  51.701  1.00  0.00     0.032 A 
HETATM    9  C9  UNL     1      22.706   4.291  50.755  1.00  0.00     0.039 A 
HETATM   10  C10 UNL     1      22.012   3.169  50.373  1.00  0.00     0.069 A 
HETATM   11  C14 UNL     1      22.381   1.972  50.996  1.00  0.00     0.039 A 
HETATM   12  C15 UNL     1      23.391   1.906  51.951  1.00  0.00     0.032 A 
BRANCH  10  13
HETATM   13  O2  UNL     1      21.006   2.969  49.482  1.00  0.00    -0.347 OA
BRANCH  13  14
HETATM   14  C11 UNL     1      21.134   3.353  48.135  1.00  0.00     0.120 C 
HETATM   15  C12 UNL     1      22.231   2.512  47.475  1.00  0.00     0.040 C 
HETATM   16  C13 UNL     1      19.825   3.006  47.433  1.00  0.00     0.040 C 
ENDBRANCH  13  14
ENDBRANCH  10  13
ENDBRANCH   4   7
BRANCH   1  17
HETATM   17  C5  UNL     1      28.732   1.989  53.662  1.00  0.00     0.144 C 
BRANCH  17  18
HETATM   18  C4  UNL     1      29.151   0.857  54.589  1.00  0.00     0.138 C 
BRANCH  18  19
HETATM   19  N1  UNL     1      28.165  -0.225  54.471  1.00  0.00    -0.398 N 
HETATM   20  H6  UNL     1      27.531  -0.524  55.254  1.00  0.00     0.158 HD
BRANCH  19  21
HETATM   21  C3  UNL     1      28.043  -0.917  53.242  1.00  0.00     0.078 C 
HETATM   22  C2  UNL     1      26.920  -1.248  52.628  1.00  0.00    -0.014 C 
HETATM   23  C1  UNL     1      25.609  -0.899  53.211  1.00  0.00     0.037 C 
ENDBRANCH  19  21
ENDBRANCH  18  19
ENDBRANCH  17  18
ENDBRANCH   1  17
TORSDOF 7
ENDMDL
MODEL 5
REMARK VINA RESULT:      -6.0      3.398      4.650
REMARK  7 active torsions:
REMARK  status: ('A' for Active; 'I' for Inactive)
REMARK    1  A    between atoms: C3_3  and  N1_4 
REMARK    2  A    between atoms: N1_4  and  C4_5 
REMARK    3  A    between atoms: C4_5  and  C5_6 
REMARK    4  A    between atoms: C5_6  and  N2_7 
REMARK       I    between atoms: N2_7  and  C6_8 
REMARK       I    between atoms: C6_8  and  N3_10 
REMARK    5  A    between atoms: N3_10  and  C7_11 
REMARK    6  A    between atoms: C10_14  and  O2_15 
REMARK    7  A    between atoms: O2_15  and  C11_16 
ROOT
HETATM    1  N2  UNL     1      22.215   4.325  50.523  1.00  0.00    -0.341 N 
HETATM    2  C6  UNL     1      23.202   3.555  51.186  1.00  0.00     0.320 C 
HETATM    3  O1  UNL     1      24.183   4.220  51.575  1.00  0.00    -0.247 OA
HETATM    4  N3  UNL     1      23.147   2.164  51.421  1.00  0.00    -0.309 N 
HETATM    5  H11 UNL     1      21.359   3.810  50.169  1.00  0.00     0.164 HD
HETATM    6  H12 UNL     1      22.265   1.766  51.032  1.00  0.00     0.170 HD
ENDROOT
BRANCH   4   7
HETATM    7  C7  UNL     1      24.081   1.328  52.070  1.00  0.00     0.036 A 
HETATM    8  C8  UNL     1      23.832   0.545  53.167  1.00  0.00     0.032 A 
HETATM    9  C9  UNL     1      24.749  -0.273  53.783  1.00  0.00     0.039 A 
HETATM   10  C10 UNL     1      26.031  -0.347  53.295  1.00  0.00     0.069 A 
HETATM   11  C14 UNL     1      26.313   0.442  52.174  1.00  0.00     0.039 A 
HETATM   12  C15 UNL     1      25.359   1.261  51.576  1.00  0.00     0.032 A 
BRANCH  10  13
HETATM   13  O2  UNL     1      27.124  -1.053  53.686  1.00  0.00    -0.347 OA
BRANCH  13  14
HETATM   14  C11 UNL     1      28.422  -0.530  53.544  1.00  0.00     0.120 C 
HETATM   15  C12 UNL     1      28.807   0.213  54.827  1.00  0.00     0.040 C 
HETATM   16  C13 UNL     1      29.379  -1.710  53.408  1.00  0.00     0.040 C 
ENDBRANCH  13  14
ENDBRANCH  10  13
ENDBRANCH   4   7
BRANCH   1  17
HETATM   17  C5  UNL     1      22.556   5.748  50.439  1.00  0.00     0.144 C 
BRANCH  17  18
HETATM   18  C4  UNL     1      22.684   6.045  48.952  1.00  0.00     0.138 C 
BRANCH  18  19
HETATM   19  N1  UNL     1      23.995   5.564  48.498  1.00  0.00    -0.398 N 
HETATM   20  H6  UNL     1      24.131   4.687  47.934  1.00  0.00     0.158 HD
BRANCH  19  21
HETATM   21  C3  UNL     1      25.155   6.308  48.824  1.00  0.00     0.078 C 
HETATM   22  C2  UNL     1      26.347   5.822  49.128  1.00  0.00    -0.014 C 
HETATM   23  C1  UNL     1      26.585   4.366  49.153  1.00  0.00     0.037 C 
ENDBRANCH  19  21
ENDBRANCH  18  19
ENDBRANCH  17  18
ENDBRANCH   1  17
TORSDOF 7
ENDMDL
MODEL 6
REMARK VINA RESULT:      -5.9      4.450      5.937
REMARK  7 active torsions:
REMARK  status: ('A' for Active; 'I' for Inactive)
REMARK    1  A    between atoms: C3_3  and  N1_4 
REMARK    2  A    between atoms: N1_4  and  C4_5 
REMARK    3  A    between atoms: C4_5  and  C5_6 
REMARK    4  A    between atoms: C5_6  and  N2_7 
REMARK       I    between atoms: N2_7  and  C6_8 
REMARK       I    between atoms: C6_8  and  N3_10 
REMARK    5  A    between atoms: N3_10  and  C7_11 
REMARK    6  A    between atoms: C10_14  and  O2_15 
REMARK    7  A    between atoms: O2_15  and  C11_16 
ROOT
HETATM    1  N2  UNL     1      27.228   2.529  53.966  1.00  0.00    -0.341 N 
HETATM    2  C6  UNL     1      26.202   2.073  53.102  1.00  0.00     0.320 C 
HETATM    3  O1  UNL     1      26.623   1.522  52.066  1.00  0.00    -0.247 OA
HETATM    4  N3  UNL     1      24.814   2.195  53.329  1.00  0.00    -0.309 N 
HETATM    5  H11 UNL     1      26.927   3.007  54.862  1.00  0.00     0.164 HD
HETATM    6  H12 UNL     1      24.638   2.679  54.236  1.00  0.00     0.170 HD
ENDROOT
BRANCH   4   7
HETATM    7  C7  UNL     1      23.735   1.770  52.526  1.00  0.00     0.036 A 
HETATM    8  C8  UNL     1      22.853   0.767  52.830  1.00  0.00     0.032 A 
HETATM    9  C9  UNL     1      21.799   0.370  52.043  1.00  0.00     0.039 A 
HETATM   10  C10 UNL     1      21.569   1.001  50.845  1.00  0.00     0.069 A 
HETATM   11  C14 UNL     1      22.454   2.031  50.508  1.00  0.00     0.039 A 
HETATM   12  C15 UNL     1      23.513   2.406  51.330  1.00  0.00     0.032 A 
BRANCH  10  13
HETATM   13  O2  UNL     1      20.626   0.830  49.882  1.00  0.00    -0.347 OA
BRANCH  13  14
HETATM   14  C11 UNL     1      19.281   1.175  50.105  1.00  0.00     0.120 C 
HETATM   15  C12 UNL     1      18.635   0.118  51.006  1.00  0.00     0.040 C 
HETATM   16  C13 UNL     1      19.267   2.489  50.880  1.00  0.00     0.040 C 
ENDBRANCH  13  14
ENDBRANCH  10  13
ENDBRANCH   4   7
BRANCH   1  17
HETATM   17  C5  UNL     1      28.575   2.250  53.457  1.00  0.00     0.144 C 
BRANCH  17  18
HETATM   18  C4  UNL     1      29.317   1.600  54.616  1.00  0.00     0.138 C 
BRANCH  18  19
HETATM   19  N1  UNL     1      28.877   0.204  54.721  1.00  0.00    -0.398 N 
HETATM   20  H6  UNL     1      28.098  -0.117  55.350  1.00  0.00     0.158 HD
BRANCH  19  21
HETATM   21  C3  UNL     1      29.522  -0.785  53.939  1.00  0.00     0.078 C 
HETATM   22  C2  UNL     1      28.946  -1.641  53.112  1.00  0.00    -0.014 C 
HETATM   23  C1  UNL     1      27.482  -1.637  52.920  1.00  0.00     0.037 C 
ENDBRANCH  19  21
ENDBRANCH  18  19
ENDBRANCH  17  18
ENDBRANCH   1  17
TORSDOF 7
ENDMDL
MODEL 7
REMARK VINA RESULT:      -5.9      4.309      5.669
REMARK  7 active torsions:
REMARK  status: ('A' for Active; 'I' for Inactive)
REMARK    1  A    between atoms: C3_3  and  N1_4 
REMARK    2  A    between atoms: N1_4  and  C4_5 
REMARK    3  A    between atoms: C4_5  and  C5_6 
REMARK    4  A    between atoms: C5_6  and  N2_7 
REMARK       I    between atoms: N2_7  and  C6_8 
REMARK       I    between atoms: C6_8  and  N3_10 
REMARK    5  A    between atoms: N3_10  and  C7_11 
REMARK    6  A    between atoms: C10_14  and  O2_15 
REMARK    7  A    between atoms: O2_15  and  C11_16 
ROOT
HETATM    1  N2  UNL     1      25.937   2.701  52.875  1.00  0.00    -0.341 N 
HETATM    2  C6  UNL     1      24.809   1.879  52.633  1.00  0.00     0.320 C 
HETATM    3  O1  UNL     1      25.078   0.813  52.045  1.00  0.00    -0.247 OA
HETATM    4  N3  UNL     1      23.477   2.173  52.998  1.00  0.00    -0.309 N 
HETATM    5  H11 UNL     1      25.766   3.621  53.371  1.00  0.00     0.164 HD
HETATM    6  H12 UNL     1      23.430   3.098  53.477  1.00  0.00     0.170 HD
ENDROOT
BRANCH   4   7
HETATM    7  C7  UNL     1      22.305   1.413  52.797  1.00  0.00     0.036 A 
HETATM    8  C8  UNL     1      21.783   0.496  53.671  1.00  0.00     0.032 A 
HETATM    9  C9  UNL     1      20.634  -0.230  53.467  1.00  0.00     0.039 A 
HETATM   10  C10 UNL     1      19.914  -0.055  52.310  1.00  0.00     0.069 A 
HETATM   11  C14 UNL     1      20.425   0.877  51.399  1.00  0.00     0.039 A 
HETATM   12  C15 UNL     1      21.593   1.594  51.638  1.00  0.00     0.032 A 
BRANCH  10  13
HETATM   13  O2  UNL     1      18.768  -0.617  51.846  1.00  0.00    -0.347 OA
BRANCH  13  14
HETATM   14  C11 UNL     1      17.631   0.162  51.570  1.00  0.00     0.120 C 
HETATM   15  C12 UNL     1      17.230  -0.035  50.105  1.00  0.00     0.040 C 
HETATM   16  C13 UNL     1      16.487  -0.379  52.422  1.00  0.00     0.040 C 
ENDBRANCH  13  14
ENDBRANCH  10  13
ENDBRANCH   4   7
BRANCH   1  17
HETATM   17  C5  UNL     1      27.189   2.118  52.382  1.00  0.00     0.144 C 
BRANCH  17  18
HETATM   18  C4  UNL     1      28.188   2.291  53.517  1.00  0.00     0.138 C 
BRANCH  18  19
HETATM   19  N1  UNL     1      28.153   1.083  54.351  1.00  0.00    -0.398 N 
HETATM   20  H6  UNL     1      27.417   0.898  55.078  1.00  0.00     0.158 HD
BRANCH  19  21
HETATM   21  C3  UNL     1      29.156   0.097  54.181  1.00  0.00     0.078 C 
HETATM   22  C2  UNL     1      29.023  -1.071  53.577  1.00  0.00    -0.014 C 
HETATM   23  C1  UNL     1      27.731  -1.474  52.987  1.00  0.00     0.037 C 
ENDBRANCH  19  21
ENDBRANCH  18  19
ENDBRANCH  17  18
ENDBRANCH   1  17
TORSDOF 7
ENDMDL
MODEL 8
REMARK VINA RESULT:      -5.8      4.812      7.776
REMARK  7 active torsions:
REMARK  status: ('A' for Active; 'I' for Inactive)
REMARK    1  A    between atoms: C3_3  and  N1_4 
REMARK    2  A    between atoms: N1_4  and  C4_5 
REMARK    3  A    between atoms: C4_5  and  C5_6 
REMARK    4  A    between atoms: C5_6  and  N2_7 
REMARK       I    between atoms: N2_7  and  C6_8 
REMARK       I    between atoms: C6_8  and  N3_10 
REMARK    5  A    between atoms: N3_10  and  C7_11 
REMARK    6  A    between atoms: C10_14  and  O2_15 
REMARK    7  A    between atoms: O2_15  and  C11_16 
ROOT
HETATM    1  N2  UNL     1      20.814   2.685  50.440  1.00  0.00    -0.341 N 
HETATM    2  C6  UNL     1      21.817   1.783  50.873  1.00  0.00     0.320 C 
HETATM    3  O1  UNL     1      21.820   0.699  50.258  1.00  0.00    -0.247 OA
HETATM    4  N3  UNL     1      22.759   2.023  51.898  1.00  0.00    -0.309 N 
HETATM    5  H11 UNL     1      20.764   3.623  50.931  1.00  0.00     0.164 HD
HETATM    6  H12 UNL     1      22.615   2.972  52.306  1.00  0.00     0.170 HD
ENDROOT
BRANCH   4   7
HETATM    7  C7  UNL     1      23.784   1.184  52.385  1.00  0.00     0.036 A 
HETATM    8  C8  UNL     1      23.648   0.233  53.362  1.00  0.00     0.032 A 
HETATM    9  C9  UNL     1      24.652  -0.584  53.820  1.00  0.00     0.039 A 
HETATM   10  C10 UNL     1      25.913  -0.479  53.285  1.00  0.00     0.069 A 
HETATM   11  C14 UNL     1      26.081   0.484  52.283  1.00  0.00     0.039 A 
HETATM   12  C15 UNL     1      25.040   1.297  51.844  1.00  0.00     0.032 A 
BRANCH  10  13
HETATM   13  O2  UNL     1      27.075  -1.139  53.530  1.00  0.00    -0.347 OA
BRANCH  13  14
HETATM   14  C11 UNL     1      28.313  -0.471  53.515  1.00  0.00     0.120 C 
HETATM   15  C12 UNL     1      28.531   0.214  54.867  1.00  0.00     0.040 C 
HETATM   16  C13 UNL     1      29.402  -1.530  53.371  1.00  0.00     0.040 C 
ENDBRANCH  13  14
ENDBRANCH  10  13
ENDBRANCH   4   7
BRANCH   1  17
HETATM   17  C5  UNL     1      19.991   2.150  49.351  1.00  0.00     0.144 C 
BRANCH  17  18
HETATM   18  C4  UNL     1      18.654   1.802  49.989  1.00  0.00     0.138 C 
BRANCH  18  19
HETATM   19  N1  UNL     1      18.649   0.365  50.292  1.00  0.00    -0.398 N 
HETATM   20  H6  UNL     1      18.809  -0.384  49.572  1.00  0.00     0.158 HD
BRANCH  19  21
HETATM   21  C3  UNL     1      18.418  -0.060  51.623  1.00  0.00     0.078 C 
HETATM   22  C2  UNL     1      17.304  -0.585  52.105  1.00  0.00    -0.014 C 
HETATM   23  C1  UNL     1      16.127  -0.787  51.236  1.00  0.00     0.037 C 
ENDBRANCH  19  21
ENDBRANCH  18  19
ENDBRANCH  17  18
ENDBRANCH   1  17
TORSDOF 7
ENDMDL
MODEL 9
REMARK VINA RESULT:      -5.8      3.746      7.187
REMARK  7 active torsions:
REMARK  status: ('A' for Active; 'I' for Inactive)
REMARK    1  A    between atoms: C3_3  and  N1_4 
REMARK    2  A    between atoms: N1_4  and  C4_5 
REMARK    3  A    between atoms: C4_5  and  C5_6 
REMARK    4  A    between atoms: C5_6  and  N2_7 
REMARK       I    between atoms: N2_7  and  C6_8 
REMARK       I    between atoms: C6_8  and  N3_10 
REMARK    5  A    between atoms: N3_10  and  C7_11 
REMARK    6  A    between atoms: C10_14  and  O2_15 
REMARK    7  A    between atoms: O2_15  and  C11_16 
ROOT
HETATM    1  N2  UNL     1      20.952   3.880  51.586  1.00  0.00    -0.341 N 
HETATM    2  C6  UNL     1      22.099   3.155  51.992  1.00  0.00     0.320 C 
HETATM    3  O1  UNL     1      21.840   2.055  52.520  1.00  0.00    -0.247 OA
HETATM    4  N3  UNL     1      23.440   3.574  51.843  1.00  0.00    -0.309 N 
HETATM    5  H11 UNL     1      21.114   4.824  51.133  1.00  0.00     0.164 HD
HETATM    6  H12 UNL     1      23.476   4.511  51.387  1.00  0.00     0.170 HD
ENDROOT
BRANCH   4   7
HETATM    7  C7  UNL     1      24.630   2.916  52.216  1.00  0.00     0.036 A 
HETATM    8  C8  UNL     1      25.032   2.647  53.498  1.00  0.00     0.032 A 
HETATM    9  C9  UNL     1      26.190   1.994  53.847  1.00  0.00     0.039 A 
HETATM   10  C10 UNL     1      27.046   1.556  52.867  1.00  0.00     0.069 A 
HETATM   11  C14 UNL     1      26.660   1.816  51.547  1.00  0.00     0.039 A 
HETATM   12  C15 UNL     1      25.480   2.481  51.230  1.00  0.00     0.032 A 
BRANCH  10  13
HETATM   13  O2  UNL     1      28.233   0.896  52.909  1.00  0.00    -0.347 OA
BRANCH  13  14
HETATM   14  C11 UNL     1      28.382  -0.293  53.646  1.00  0.00     0.120 C 
HETATM   15  C12 UNL     1      27.572  -1.405  52.974  1.00  0.00     0.040 C 
HETATM   16  C13 UNL     1      29.850  -0.700  53.564  1.00  0.00     0.040 C 
ENDBRANCH  13  14
ENDBRANCH  10  13
ENDBRANCH   4   7
BRANCH   1  17
HETATM   17  C5  UNL     1      19.697   3.177  51.871  1.00  0.00     0.144 C 
BRANCH  17  18
HETATM   18  C4  UNL     1      19.276   2.553  50.549  1.00  0.00     0.138 C 
BRANCH  18  19
HETATM   19  N1  UNL     1      19.482   1.102  50.638  1.00  0.00    -0.398 N 
HETATM   20  H6  UNL     1      20.405   0.631  50.459  1.00  0.00     0.158 HD
BRANCH  19  21
HETATM   21  C3  UNL     1      18.390   0.269  50.985  1.00  0.00     0.078 C 
HETATM   22  C2  UNL     1      18.272  -0.468  52.077  1.00  0.00    -0.014 C 
HETATM   23  C1  UNL     1      19.341  -0.486  53.095  1.00  0.00     0.037 C 
ENDBRANCH  19  21
ENDBRANCH  18  19
ENDBRANCH  17  18
ENDBRANCH   1  17
TORSDOF 7
ENDMDL
