MODEL 1
REMARK VINA RESULT:      -7.3      0.000      0.000
REMARK  3 active torsions:
REMARK  status: ('A' for Active; 'I' for Inactive)
REMARK    1  A    between atoms: C5_5  and  C6_6 
REMARK       I    between atoms: C6_6  and  N1_8 
REMARK    2  A    between atoms: N1_8  and  S1_9 
REMARK    3  A    between atoms: S1_9  and  C7_12 
ROOT
HETATM    1  C6  UNL     1      25.517   2.301  52.813  1.00  0.00     0.268 C 
HETATM    2  O1  UNL     1      24.844   2.785  53.751  1.00  0.00    -0.267 OA
HETATM    3  N1  UNL     1      25.167   2.500  51.442  1.00  0.00    -0.246 N 
HETATM    4  H6  UNL     1      25.765   2.072  50.692  1.00  0.00     0.182 HD
ENDROOT
BRANCH   3   5
HETATM    5  S1  UNL     1      23.770   3.437  50.987  1.00  0.00     0.265 S 
HETATM    6  O2  UNL     1      23.888   3.688  49.503  1.00  0.00    -0.200 OA
HETATM    7  O3  UNL     1      23.749   4.746  51.685  1.00  0.00    -0.200 OA
BRANCH   5   8
HETATM    8  C7  UNL     1      22.369   2.472  51.385  1.00  0.00     0.080 A 
HETATM    9  C8  UNL     1      21.325   2.919  52.176  1.00  0.00     0.027 A 
HETATM   10  C9  UNL     1      20.231   2.127  52.470  1.00  0.00     0.020 A 
HETATM   11  C10 UNL     1      20.153   0.843  51.970  1.00  0.00     0.011 A 
HETATM   12 BR1  UNL     1      18.648  -0.262  52.369  1.00  0.00    -0.051 Br
HETATM   13  C11 UNL     1      21.186   0.365  51.173  1.00  0.00     0.020 A 
HETATM   14  C12 UNL     1      22.279   1.178  50.889  1.00  0.00     0.027 A 
ENDBRANCH   5   8
ENDBRANCH   3   5
BRANCH   1  15
HETATM   15  C5  UNL     1      26.720   1.490  53.083  1.00  0.00     0.073 A 
HETATM   16  C4  UNL     1      27.996   2.015  53.173  1.00  0.00     0.022 A 
HETATM   17  C3  UNL     1      29.026   1.121  53.432  1.00  0.00     0.028 A 
HETATM   18  C2  UNL     1      28.734  -0.237  53.586  1.00  0.00     0.032 A 
HETATM   19  C1  UNL     1      29.869  -1.156  53.863  1.00  0.00     0.070 C 
HETATM   20  N2  UNL     1      27.466  -0.708  53.490  1.00  0.00    -0.241 NA
HETATM   21  C13 UNL     1      26.454   0.143  53.240  1.00  0.00     0.142 A 
HETATM   22 CL1  UNL     1      24.847  -0.552  53.131  1.00  0.00    -0.061 Cl
ENDBRANCH   1  15
TORSDOF 3
ENDMDL
MODEL 2
REMARK VINA RESULT:      -7.1      4.860      6.824
REMARK  3 active torsions:
REMARK  status: ('A' for Active; 'I' for Inactive)
REMARK    1  A    between atoms: C5_5  and  C6_6 
REMARK       I    between atoms: C6_6  and  N1_8 
REMARK    2  A    between atoms: N1_8  and  S1_9 
REMARK    3  A    between atoms: S1_9  and  C7_12 
ROOT
HETATM    1  C6  UNL     1      25.587   3.929  49.797  1.00  0.00     0.268 C 
HETATM    2  O1  UNL     1      25.104   2.962  49.165  1.00  0.00    -0.267 OA
HETATM    3  N1  UNL     1      25.542   4.006  51.223  1.00  0.00    -0.246 N 
HETATM    4  H6  UNL     1      25.962   4.839  51.706  1.00  0.00     0.182 HD
ENDROOT
BRANCH   3   5
HETATM    5  S1  UNL     1      24.805   2.749  52.179  1.00  0.00     0.265 S 
HETATM    6  O2  UNL     1      23.692   2.170  51.341  1.00  0.00    -0.200 OA
HETATM    7  O3  UNL     1      24.219   3.296  53.427  1.00  0.00    -0.200 OA
BRANCH   5   8
HETATM    8  C7  UNL     1      26.057   1.578  52.515  1.00  0.00     0.080 A 
HETATM    9  C8  UNL     1      25.919   0.218  52.296  1.00  0.00     0.027 A 
HETATM   10  C9  UNL     1      26.933  -0.680  52.573  1.00  0.00     0.020 A 
HETATM   11  C10 UNL     1      28.133  -0.232  53.086  1.00  0.00     0.011 A 
HETATM   12 BR1  UNL     1      29.541  -1.462  53.474  1.00  0.00    -0.051 Br
HETATM   13  C11 UNL     1      28.302   1.128  53.317  1.00  0.00     0.020 A 
HETATM   14  C12 UNL     1      27.270   2.017  53.032  1.00  0.00     0.027 A 
ENDBRANCH   5   8
ENDBRANCH   3   5
BRANCH   1  15
HETATM   15  C5  UNL     1      26.235   5.049  49.089  1.00  0.00     0.073 A 
HETATM   16  C4  UNL     1      27.581   5.082  48.771  1.00  0.00     0.022 A 
HETATM   17  C3  UNL     1      28.041   6.208  48.103  1.00  0.00     0.028 A 
HETATM   18  C2  UNL     1      27.146   7.234  47.789  1.00  0.00     0.032 A 
HETATM   19  C1  UNL     1      27.685   8.420  47.072  1.00  0.00     0.070 C 
HETATM   20  N2  UNL     1      25.833   7.160  48.120  1.00  0.00    -0.241 NA
HETATM   21  C13 UNL     1      25.367   6.076  48.768  1.00  0.00     0.142 A 
HETATM   22 CL1  UNL     1      23.657   6.063  49.157  1.00  0.00    -0.061 Cl
ENDBRANCH   1  15
TORSDOF 3
ENDMDL
MODEL 3
REMARK VINA RESULT:      -7.1      3.289      6.612
REMARK  3 active torsions:
REMARK  status: ('A' for Active; 'I' for Inactive)
REMARK    1  A    between atoms: C5_5  and  C6_6 
REMARK       I    between atoms: C6_6  and  N1_8 
REMARK    2  A    between atoms: N1_8  and  S1_9 
REMARK    3  A    between atoms: S1_9  and  C7_12 
ROOT
HETATM    1  C6  UNL     1      21.675   1.456  51.425  1.00  0.00     0.268 C 
HETATM    2  O1  UNL     1      22.471   1.044  50.551  1.00  0.00    -0.267 OA
HETATM    3  N1  UNL     1      21.803   2.746  52.026  1.00  0.00    -0.246 N 
HETATM    4  H6  UNL     1      21.108   3.044  52.755  1.00  0.00     0.182 HD
ENDROOT
BRANCH   3   5
HETATM    5  S1  UNL     1      23.086   3.835  51.575  1.00  0.00     0.265 S 
HETATM    6  O2  UNL     1      22.844   5.118  52.332  1.00  0.00    -0.200 OA
HETATM    7  O3  UNL     1      23.055   4.133  50.123  1.00  0.00    -0.200 OA
BRANCH   5   8
HETATM    8  C7  UNL     1      24.583   3.065  52.044  1.00  0.00     0.080 A 
HETATM    9  C8  UNL     1      25.593   2.740  51.155  1.00  0.00     0.027 A 
HETATM   10  C9  UNL     1      26.766   2.131  51.562  1.00  0.00     0.020 A 
HETATM   11  C10 UNL     1      26.960   1.825  52.893  1.00  0.00     0.011 A 
HETATM   12 BR1  UNL     1      28.574   0.983  53.469  1.00  0.00    -0.051 Br
HETATM   13  C11 UNL     1      25.964   2.138  53.810  1.00  0.00     0.020 A 
HETATM   14  C12 UNL     1      24.790   2.751  53.381  1.00  0.00     0.027 A 
ENDBRANCH   5   8
ENDBRANCH   3   5
BRANCH   1  15
HETATM   15  C5  UNL     1      20.550   0.616  51.882  1.00  0.00     0.073 A 
HETATM   16  C4  UNL     1      19.333   0.540  51.230  1.00  0.00     0.022 A 
HETATM   17  C3  UNL     1      18.374  -0.295  51.786  1.00  0.00     0.028 A 
HETATM   18  C2  UNL     1      18.674  -1.005  52.951  1.00  0.00     0.032 A 
HETATM   19  C1  UNL     1      17.616  -1.888  53.509  1.00  0.00     0.070 C 
HETATM   20  N2  UNL     1      19.883  -0.900  53.558  1.00  0.00    -0.241 NA
HETATM   21  C13 UNL     1      20.826  -0.096  53.035  1.00  0.00     0.142 A 
HETATM   22 CL1  UNL     1      22.359  -0.019  53.883  1.00  0.00    -0.061 Cl
ENDBRANCH   1  15
TORSDOF 3
ENDMDL
MODEL 4
REMARK VINA RESULT:      -6.9      3.575      4.284
REMARK  3 active torsions:
REMARK  status: ('A' for Active; 'I' for Inactive)
REMARK    1  A    between atoms: C5_5  and  C6_6 
REMARK       I    between atoms: C6_6  and  N1_8 
REMARK    2  A    between atoms: N1_8  and  S1_9 
REMARK    3  A    between atoms: S1_9  and  C7_12 
ROOT
HETATM    1  C6  UNL     1      25.756   2.017  52.884  1.00  0.00     0.268 C 
HETATM    2  O1  UNL     1      25.287   2.788  53.752  1.00  0.00    -0.267 OA
HETATM    3  N1  UNL     1      25.176   1.890  51.584  1.00  0.00    -0.246 N 
HETATM    4  H6  UNL     1      25.608   1.228  50.892  1.00  0.00     0.182 HD
ENDROOT
BRANCH   3   5
HETATM    5  S1  UNL     1      23.770   2.809  51.122  1.00  0.00     0.265 S 
HETATM    6  O2  UNL     1      22.827   2.771  52.299  1.00  0.00    -0.200 OA
HETATM    7  O3  UNL     1      23.089   2.199  49.953  1.00  0.00    -0.200 OA
BRANCH   5   8
HETATM    8  C7  UNL     1      24.324   4.428  50.772  1.00  0.00     0.080 A 
HETATM    9  C8  UNL     1      25.335   4.719  49.871  1.00  0.00     0.027 A 
HETATM   10  C9  UNL     1      25.748   6.014  49.619  1.00  0.00     0.020 A 
HETATM   11  C10 UNL     1      25.149   7.071  50.273  1.00  0.00     0.011 A 
HETATM   12 BR1  UNL     1      25.710   8.864  49.935  1.00  0.00    -0.051 Br
HETATM   13  C11 UNL     1      24.132   6.811  51.183  1.00  0.00     0.020 A 
HETATM   14  C12 UNL     1      23.730   5.500  51.425  1.00  0.00     0.027 A 
ENDBRANCH   5   8
ENDBRANCH   3   5
BRANCH   1  15
HETATM   15  C5  UNL     1      26.945   1.191  53.167  1.00  0.00     0.073 A 
HETATM   16  C4  UNL     1      28.235   1.688  53.208  1.00  0.00     0.022 A 
HETATM   17  C3  UNL     1      29.249   0.783  53.487  1.00  0.00     0.028 A 
HETATM   18  C2  UNL     1      28.929  -0.559  53.710  1.00  0.00     0.032 A 
HETATM   19  C1  UNL     1      30.048  -1.491  54.006  1.00  0.00     0.070 C 
HETATM   20  N2  UNL     1      27.649  -1.004  53.660  1.00  0.00    -0.241 NA
HETATM   21  C13 UNL     1      26.652  -0.142  53.391  1.00  0.00     0.142 A 
HETATM   22 CL1  UNL     1      25.027  -0.802  53.346  1.00  0.00    -0.061 Cl
ENDBRANCH   1  15
TORSDOF 3
ENDMDL
MODEL 5
REMARK VINA RESULT:      -6.9      4.539      6.119
REMARK  3 active torsions:
REMARK  status: ('A' for Active; 'I' for Inactive)
REMARK    1  A    between atoms: C5_5  and  C6_6 
REMARK       I    between atoms: C6_6  and  N1_8 
REMARK    2  A    between atoms: N1_8  and  S1_9 
REMARK    3  A    between atoms: S1_9  and  C7_12 
ROOT
HETATM    1  C6  UNL     1      23.026   3.303  51.827  1.00  0.00     0.268 C 
HETATM    2  O1  UNL     1      23.353   4.320  52.480  1.00  0.00    -0.267 OA
HETATM    3  N1  UNL     1      22.811   3.341  50.415  1.00  0.00    -0.246 N 
HETATM    4  H6  UNL     1      22.538   2.459  49.913  1.00  0.00     0.182 HD
ENDROOT
BRANCH   3   5
HETATM    5  S1  UNL     1      22.992   4.817  49.507  1.00  0.00     0.265 S 
HETATM    6  O2  UNL     1      22.453   5.925  50.378  1.00  0.00    -0.200 OA
HETATM    7  O3  UNL     1      22.201   4.778  48.253  1.00  0.00    -0.200 OA
BRANCH   5   8
HETATM    8  C7  UNL     1      24.700   5.000  49.186  1.00  0.00     0.080 A 
HETATM    9  C8  UNL     1      25.637   4.006  49.412  1.00  0.00     0.027 A 
HETATM   10  C9  UNL     1      26.982   4.186  49.145  1.00  0.00     0.020 A 
HETATM   11  C10 UNL     1      27.431   5.388  48.637  1.00  0.00     0.011 A 
HETATM   12 BR1  UNL     1      29.285   5.650  48.265  1.00  0.00    -0.051 Br
HETATM   13  C11 UNL     1      26.514   6.405  48.400  1.00  0.00     0.020 A 
HETATM   14  C12 UNL     1      25.164   6.205  48.675  1.00  0.00     0.027 A 
ENDBRANCH   5   8
ENDBRANCH   3   5
BRANCH   1  15
HETATM   15  C5  UNL     1      22.845   2.000  52.494  1.00  0.00     0.073 A 
HETATM   16  C4  UNL     1      23.881   1.125  52.767  1.00  0.00     0.022 A 
HETATM   17  C3  UNL     1      23.549  -0.064  53.400  1.00  0.00     0.028 A 
HETATM   18  C2  UNL     1      22.215  -0.319  53.726  1.00  0.00     0.032 A 
HETATM   19  C1  UNL     1      21.907  -1.606  54.404  1.00  0.00     0.070 C 
HETATM   20  N2  UNL     1      21.229   0.567  53.439  1.00  0.00    -0.241 NA
HETATM   21  C13 UNL     1      21.531   1.727  52.826  1.00  0.00     0.142 A 
HETATM   22 CL1  UNL     1      20.197   2.815  52.492  1.00  0.00    -0.061 Cl
ENDBRANCH   1  15
TORSDOF 3
ENDMDL
MODEL 6
REMARK VINA RESULT:      -6.9      2.111      2.580
REMARK  3 active torsions:
REMARK  status: ('A' for Active; 'I' for Inactive)
REMARK    1  A    between atoms: C5_5  and  C6_6 
REMARK       I    between atoms: C6_6  and  N1_8 
REMARK    2  A    between atoms: N1_8  and  S1_9 
REMARK    3  A    between atoms: S1_9  and  C7_12 
ROOT
HETATM    1  C6  UNL     1      24.528   1.933  51.241  1.00  0.00     0.268 C 
HETATM    2  O1  UNL     1      24.773   2.840  50.413  1.00  0.00    -0.267 OA
HETATM    3  N1  UNL     1      23.229   1.354  51.374  1.00  0.00    -0.246 N 
HETATM    4  H6  UNL     1      23.075   0.595  52.084  1.00  0.00     0.182 HD
ENDROOT
BRANCH   3   5
HETATM    5  S1  UNL     1      21.893   1.878  50.384  1.00  0.00     0.265 S 
HETATM    6  O2  UNL     1      22.238   1.500  48.965  1.00  0.00    -0.200 OA
HETATM    7  O3  UNL     1      21.719   3.350  50.450  1.00  0.00    -0.200 OA
BRANCH   5   8
HETATM    8  C7  UNL     1      20.479   1.036  50.968  1.00  0.00     0.080 A 
HETATM    9  C8  UNL     1      19.292   0.941  50.261  1.00  0.00     0.027 A 
HETATM   10  C9  UNL     1      18.191   0.265  50.755  1.00  0.00     0.020 A 
HETATM   11  C10 UNL     1      18.252  -0.345  51.991  1.00  0.00     0.011 A 
HETATM   12 BR1  UNL     1      16.740  -1.281  52.685  1.00  0.00    -0.051 Br
HETATM   13  C11 UNL     1      19.429  -0.268  52.725  1.00  0.00     0.020 A 
HETATM   14  C12 UNL     1      20.527   0.418  52.211  1.00  0.00     0.027 A 
ENDBRANCH   5   8
ENDBRANCH   3   5
BRANCH   1  15
HETATM   15  C5  UNL     1      25.584   1.413  52.130  1.00  0.00     0.073 A 
HETATM   16  C4  UNL     1      26.427   0.369  51.794  1.00  0.00     0.022 A 
HETATM   17  C3  UNL     1      27.370  -0.006  52.740  1.00  0.00     0.028 A 
HETATM   18  C2  UNL     1      27.426   0.671  53.961  1.00  0.00     0.032 A 
HETATM   19  C1  UNL     1      28.453   0.235  54.942  1.00  0.00     0.070 C 
HETATM   20  N2  UNL     1      26.579   1.691  54.249  1.00  0.00    -0.241 NA
HETATM   21  C13 UNL     1      25.657   2.069  53.344  1.00  0.00     0.142 A 
HETATM   22 CL1  UNL     1      24.603   3.395  53.799  1.00  0.00    -0.061 Cl
ENDBRANCH   1  15
TORSDOF 3
ENDMDL
MODEL 7
REMARK VINA RESULT:      -6.8      3.670      4.540
REMARK  3 active torsions:
REMARK  status: ('A' for Active; 'I' for Inactive)
REMARK    1  A    between atoms: C5_5  and  C6_6 
REMARK       I    between atoms: C6_6  and  N1_8 
REMARK    2  A    between atoms: N1_8  and  S1_9 
REMARK    3  A    between atoms: S1_9  and  C7_12 
ROOT
HETATM    1  C6  UNL     1      23.774   4.514  50.628  1.00  0.00     0.268 C 
HETATM    2  O1  UNL     1      23.585   4.860  51.816  1.00  0.00    -0.267 OA
HETATM    3  N1  UNL     1      22.778   3.829  49.867  1.00  0.00    -0.246 N 
HETATM    4  H6  UNL     1      22.986   3.560  48.872  1.00  0.00     0.182 HD
ENDROOT
BRANCH   3   5
HETATM    5  S1  UNL     1      21.226   3.428  50.550  1.00  0.00     0.265 S 
HETATM    6  O2  UNL     1      20.343   3.016  49.397  1.00  0.00    -0.200 OA
HETATM    7  O3  UNL     1      20.612   4.603  51.216  1.00  0.00    -0.200 OA
BRANCH   5   8
HETATM    8  C7  UNL     1      21.498   2.119  51.674  1.00  0.00     0.080 A 
HETATM    9  C8  UNL     1      22.563   1.240  51.590  1.00  0.00     0.027 A 
HETATM   10  C9  UNL     1      22.747   0.214  52.499  1.00  0.00     0.020 A 
HETATM   11  C10 UNL     1      21.853   0.040  53.535  1.00  0.00     0.011 A 
HETATM   12 BR1  UNL     1      22.094  -1.373  54.797  1.00  0.00    -0.051 Br
HETATM   13  C11 UNL     1      20.772   0.906  53.646  1.00  0.00     0.020 A 
HETATM   14  C12 UNL     1      20.603   1.933  52.721  1.00  0.00     0.027 A 
ENDBRANCH   5   8
ENDBRANCH   3   5
BRANCH   1  15
HETATM   15  C5  UNL     1      25.051   4.802  49.949  1.00  0.00     0.073 A 
HETATM   16  C4  UNL     1      25.289   5.948  49.213  1.00  0.00     0.022 A 
HETATM   17  C3  UNL     1      26.544   6.073  48.633  1.00  0.00     0.028 A 
HETATM   18  C2  UNL     1      27.488   5.060  48.814  1.00  0.00     0.032 A 
HETATM   19  C1  UNL     1      28.818   5.238  48.174  1.00  0.00     0.070 C 
HETATM   20  N2  UNL     1      27.212   3.951  49.545  1.00  0.00    -0.241 NA
HETATM   21  C13 UNL     1      26.001   3.811  50.115  1.00  0.00     0.142 A 
HETATM   22 CL1  UNL     1      25.729   2.348  51.042  1.00  0.00    -0.061 Cl
ENDBRANCH   1  15
TORSDOF 3
ENDMDL
MODEL 8
REMARK VINA RESULT:      -6.7      5.368      6.803
REMARK  3 active torsions:
REMARK  status: ('A' for Active; 'I' for Inactive)
REMARK    1  A    between atoms: C5_5  and  C6_6 
REMARK       I    between atoms: C6_6  and  N1_8 
REMARK    2  A    between atoms: N1_8  and  S1_9 
REMARK    3  A    between atoms: S1_9  and  C7_12 
ROOT
HETATM    1  C6  UNL     1      25.210   3.466  50.288  1.00  0.00     0.268 C 
HETATM    2  O1  UNL     1      24.654   3.216  49.195  1.00  0.00    -0.267 OA
HETATM    3  N1  UNL     1      25.689   4.771  50.619  1.00  0.00    -0.246 N 
HETATM    4  H6  UNL     1      26.149   4.929  51.551  1.00  0.00     0.182 HD
ENDROOT
BRANCH   3   5
HETATM    5  S1  UNL     1      25.526   6.107  49.512  1.00  0.00     0.265 S 
HETATM    6  O2  UNL     1      25.139   7.306  50.343  1.00  0.00    -0.200 OA
HETATM    7  O3  UNL     1      24.453   5.856  48.520  1.00  0.00    -0.200 OA
BRANCH   5   8
HETATM    8  C7  UNL     1      27.081   6.310  48.743  1.00  0.00     0.080 A 
HETATM    9  C8  UNL     1      28.021   5.301  48.627  1.00  0.00     0.027 A 
HETATM   10  C9  UNL     1      29.243   5.498  48.009  1.00  0.00     0.020 A 
HETATM   11  C10 UNL     1      29.560   6.734  47.484  1.00  0.00     0.011 A 
HETATM   12 BR1  UNL     1      31.244   7.020  46.630  1.00  0.00    -0.051 Br
HETATM   13  C11 UNL     1      28.637   7.767  47.584  1.00  0.00     0.020 A 
HETATM   14  C12 UNL     1      27.413   7.550  48.210  1.00  0.00     0.027 A 
ENDBRANCH   5   8
ENDBRANCH   3   5
BRANCH   1  15
HETATM   15  C5  UNL     1      25.401   2.410  51.301  1.00  0.00     0.073 A 
HETATM   16  C4  UNL     1      26.537   1.627  51.390  1.00  0.00     0.022 A 
HETATM   17  C3  UNL     1      26.566   0.674  52.399  1.00  0.00     0.028 A 
HETATM   18  C2  UNL     1      25.472   0.551  53.258  1.00  0.00     0.032 A 
HETATM   19  C1  UNL     1      25.548  -0.483  54.323  1.00  0.00     0.070 C 
HETATM   20  N2  UNL     1      24.376   1.341  53.134  1.00  0.00    -0.241 NA
HETATM   21  C13 UNL     1      24.329   2.271  52.163  1.00  0.00     0.142 A 
HETATM   22 CL1  UNL     1      22.876   3.248  52.075  1.00  0.00    -0.061 Cl
ENDBRANCH   1  15
TORSDOF 3
ENDMDL
MODEL 9
REMARK VINA RESULT:      -6.7      4.106      4.920
REMARK  3 active torsions:
REMARK  status: ('A' for Active; 'I' for Inactive)
REMARK    1  A    between atoms: C5_5  and  C6_6 
REMARK       I    between atoms: C6_6  and  N1_8 
REMARK    2  A    between atoms: N1_8  and  S1_9 
REMARK    3  A    between atoms: S1_9  and  C7_12 
ROOT
HETATM    1  C6  UNL     1      24.099   2.617  52.306  1.00  0.00     0.268 C 
HETATM    2  O1  UNL     1      24.168   3.525  53.164  1.00  0.00    -0.267 OA
HETATM    3  N1  UNL     1      23.323   2.751  51.114  1.00  0.00    -0.246 N 
HETATM    4  H6  UNL     1      23.299   1.958  50.424  1.00  0.00     0.182 HD
ENDROOT
BRANCH   3   5
HETATM    5  S1  UNL     1      22.418   4.201  50.776  1.00  0.00     0.265 S 
HETATM    6  O2  UNL     1      21.526   4.436  51.971  1.00  0.00    -0.200 OA
HETATM    7  O3  UNL     1      21.563   4.035  49.576  1.00  0.00    -0.200 OA
BRANCH   5   8
HETATM    8  C7  UNL     1      23.587   5.482  50.562  1.00  0.00     0.080 A 
HETATM    9  C8  UNL     1      23.419   6.767  51.047  1.00  0.00     0.027 A 
HETATM   10  C9  UNL     1      24.367   7.756  50.859  1.00  0.00     0.020 A 
HETATM   11  C10 UNL     1      25.528   7.478  50.167  1.00  0.00     0.011 A 
HETATM   12 BR1  UNL     1      26.845   8.835  49.900  1.00  0.00    -0.051 Br
HETATM   13  C11 UNL     1      25.726   6.197  49.668  1.00  0.00     0.020 A 
HETATM   14  C12 UNL     1      24.760   5.214  49.867  1.00  0.00     0.027 A 
ENDBRANCH   5   8
ENDBRANCH   3   5
BRANCH   1  15
HETATM   15  C5  UNL     1      24.826   1.345  52.488  1.00  0.00     0.073 A 
HETATM   16  C4  UNL     1      24.347   0.287  53.238  1.00  0.00     0.022 A 
HETATM   17  C3  UNL     1      25.149  -0.843  53.315  1.00  0.00     0.028 A 
HETATM   18  C2  UNL     1      26.376  -0.860  52.647  1.00  0.00     0.032 A 
HETATM   19  C1  UNL     1      27.201  -2.092  52.757  1.00  0.00     0.070 C 
HETATM   20  N2  UNL     1      26.808   0.202  51.922  1.00  0.00    -0.241 NA
HETATM   21  C13 UNL     1      26.044   1.307  51.835  1.00  0.00     0.142 A 
HETATM   22 CL1  UNL     1      26.677   2.632  50.878  1.00  0.00    -0.061 Cl
ENDBRANCH   1  15
TORSDOF 3
ENDMDL
