MODEL 1
REMARK VINA RESULT:      -8.8      0.000      0.000
REMARK  3 active torsions:
REMARK  status: ('A' for Active; 'I' for Inactive)
REMARK    1  A    between atoms: C5_6  and  N1_7 
REMARK    2  A    between atoms: N1_7  and  C6_8 
REMARK    3  A    between atoms: C11_15  and  N4_16 
ROOT
HETATM    1  C6  UNL     1      23.718   5.006  49.184  1.00  0.00     0.142 A 
HETATM    2  N2  UNL     1      23.350   5.562  47.998  1.00  0.00    -0.224 NA
HETATM    3  C7  UNL     1      22.511   4.862  47.204  1.00  0.00     0.236 A 
HETATM    4  N3  UNL     1      22.041   3.630  47.573  1.00  0.00    -0.241 NA
HETATM    5  C8  UNL     1      22.415   3.092  48.750  1.00  0.00     0.072 A 
HETATM    6  C9  UNL     1      21.994   1.856  49.211  1.00  0.00     0.035 A 
HETATM    7  C10 UNL     1      22.422   1.358  50.440  1.00  0.00     0.031 A 
HETATM    8  C11 UNL     1      23.291   2.088  51.252  1.00  0.00     0.031 A 
HETATM    9  C20 UNL     1      23.729   3.331  50.817  1.00  0.00     0.047 A 
HETATM   10  C21 UNL     1      23.271   3.772  49.592  1.00  0.00     0.041 A 
ENDROOT
BRANCH   8  11
HETATM   11  N4  UNL     1      23.663   1.485  52.486  1.00  0.00    -0.379 N 
HETATM   12  C12 UNL     1      23.139   0.166  52.707  1.00  0.00     0.125 C 
HETATM   13  C13 UNL     1      23.468  -0.388  54.085  1.00  0.00     0.050 C 
HETATM   14  C14 UNL     1      24.932  -0.841  54.013  1.00  0.00     0.275 C 
HETATM   15  N5  UNL     1      25.568   0.037  53.078  1.00  0.00     0.099 N 
HETATM   16  C15 UNL     1      26.649  -0.505  52.335  1.00  0.00     0.299 C 
HETATM   17  C18 UNL     1      25.800   1.304  53.696  1.00  0.00     0.264 C 
HETATM   18  C16 UNL     1      27.953  -0.054  52.922  1.00  0.00     0.198 C 
HETATM   19  O1  UNL     1      28.114   1.305  52.969  1.00  0.00    -0.387 OA
HETATM   20  C17 UNL     1      26.970   2.051  53.157  1.00  0.00     0.205 C 
HETATM   21  C19 UNL     1      24.542   2.159  53.457  1.00  0.00     0.161 C 
ENDBRANCH   8  11
BRANCH   1  22
HETATM   22  N1  UNL     1      24.579   5.904  49.922  1.00  0.00    -0.340 N 
HETATM   23  H4  UNL     1      24.450   6.501  50.746  1.00  0.00     0.167 HD
BRANCH  22  24
HETATM   24  C5  UNL     1      25.905   5.937  49.343  1.00  0.00     0.035 A 
HETATM   25  C4  UNL     1      26.644   4.790  49.135  1.00  0.00     0.029 A 
HETATM   26  C3  UNL     1      27.910   4.733  48.583  1.00  0.00     0.004 A 
HETATM   27  C2  UNL     1      28.475   5.949  48.206  1.00  0.00     0.019 A 
HETATM   28  C1  UNL     1      27.804   7.134  48.380  1.00  0.00     0.013 A 
HETATM   29 BR1  UNL     1      28.512   8.852  47.883  1.00  0.00    -0.051 Br
HETATM   30  C22 UNL     1      26.540   7.120  48.939  1.00  0.00     0.048 A 
ENDBRANCH  22  24
ENDBRANCH   1  22
TORSDOF 3
ENDMDL
MODEL 2
REMARK VINA RESULT:      -8.8      4.038      7.081
REMARK  3 active torsions:
REMARK  status: ('A' for Active; 'I' for Inactive)
REMARK    1  A    between atoms: C5_6  and  N1_7 
REMARK    2  A    between atoms: N1_7  and  C6_8 
REMARK    3  A    between atoms: C11_15  and  N4_16 
ROOT
HETATM    1  C6  UNL     1      24.321  -0.183  53.440  1.00  0.00     0.142 A 
HETATM    2  N2  UNL     1      25.039  -0.867  54.373  1.00  0.00    -0.224 NA
HETATM    3  C7  UNL     1      24.370  -1.401  55.418  1.00  0.00     0.236 A 
HETATM    4  N3  UNL     1      23.014  -1.264  55.542  1.00  0.00    -0.241 NA
HETATM    5  C8  UNL     1      22.317  -0.584  54.612  1.00  0.00     0.072 A 
HETATM    6  C9  UNL     1      20.946  -0.392  54.649  1.00  0.00     0.035 A 
HETATM    7  C10 UNL     1      20.289   0.325  53.653  1.00  0.00     0.031 A 
HETATM    8  C11 UNL     1      20.989   0.877  52.578  1.00  0.00     0.031 A 
HETATM    9  C20 UNL     1      22.363   0.699  52.513  1.00  0.00     0.047 A 
HETATM   10  C21 UNL     1      22.959  -0.020  53.529  1.00  0.00     0.041 A 
ENDROOT
BRANCH   8  11
HETATM   11  N4  UNL     1      20.217   1.589  51.618  1.00  0.00    -0.379 N 
HETATM   12  C12 UNL     1      19.774   2.892  52.028  1.00  0.00     0.125 C 
HETATM   13  C13 UNL     1      18.859   3.562  51.015  1.00  0.00     0.050 C 
HETATM   14  C14 UNL     1      19.779   4.082  49.903  1.00  0.00     0.275 C 
HETATM   15  N5  UNL     1      20.882   3.170  49.848  1.00  0.00     0.099 N 
HETATM   16  C15 UNL     1      22.130   3.710  49.441  1.00  0.00     0.299 C 
HETATM   17  C18 UNL     1      20.473   1.967  49.198  1.00  0.00     0.264 C 
HETATM   18  C16 UNL     1      22.391   3.370  48.004  1.00  0.00     0.198 C 
HETATM   19  O1  UNL     1      22.404   2.028  47.732  1.00  0.00    -0.387 OA
HETATM   20  C17 UNL     1      21.566   1.242  48.492  1.00  0.00     0.205 C 
HETATM   21  C19 UNL     1      19.913   1.033  50.287  1.00  0.00     0.161 C 
ENDBRANCH   8  11
BRANCH   1  22
HETATM   22  N1  UNL     1      25.183   0.283  52.376  1.00  0.00    -0.340 N 
HETATM   23  H4  UNL     1      25.065   0.408  51.365  1.00  0.00     0.167 HD
BRANCH  22  24
HETATM   24  C5  UNL     1      26.486   0.646  52.891  1.00  0.00     0.035 A 
HETATM   25  C4  UNL     1      26.792   1.937  53.270  1.00  0.00     0.029 A 
HETATM   26  C3  UNL     1      28.005   2.365  53.777  1.00  0.00     0.004 A 
HETATM   27  C2  UNL     1      28.995   1.395  53.913  1.00  0.00     0.019 A 
HETATM   28  C1  UNL     1      28.769   0.088  53.558  1.00  0.00     0.013 A 
HETATM   29 BR1  UNL     1      30.080  -1.311  53.717  1.00  0.00    -0.051 Br
HETATM   30  C22 UNL     1      27.532  -0.273  53.057  1.00  0.00     0.048 A 
ENDBRANCH  22  24
ENDBRANCH   1  22
TORSDOF 3
ENDMDL
MODEL 3
REMARK VINA RESULT:      -8.5      2.960      5.482
REMARK  3 active torsions:
REMARK  status: ('A' for Active; 'I' for Inactive)
REMARK    1  A    between atoms: C5_6  and  N1_7 
REMARK    2  A    between atoms: N1_7  and  C6_8 
REMARK    3  A    between atoms: C11_15  and  N4_16 
ROOT
HETATM    1  C6  UNL     1      26.308   2.331  51.107  1.00  0.00     0.142 A 
HETATM    2  N2  UNL     1      27.515   2.533  51.701  1.00  0.00    -0.224 NA
HETATM    3  C7  UNL     1      27.634   2.230  53.012  1.00  0.00     0.236 A 
HETATM    4  N3  UNL     1      26.578   1.734  53.728  1.00  0.00    -0.241 NA
HETATM    5  C8  UNL     1      25.388   1.540  53.126  1.00  0.00     0.072 A 
HETATM    6  C9  UNL     1      24.264   1.044  53.764  1.00  0.00     0.035 A 
HETATM    7  C10 UNL     1      23.062   0.869  53.081  1.00  0.00     0.031 A 
HETATM    8  C11 UNL     1      22.949   1.189  51.727  1.00  0.00     0.031 A 
HETATM    9  C20 UNL     1      24.059   1.687  51.061  1.00  0.00     0.047 A 
HETATM   10  C21 UNL     1      25.221   1.837  51.790  1.00  0.00     0.041 A 
ENDROOT
BRANCH   8  11
HETATM   11  N4  UNL     1      21.676   0.971  51.130  1.00  0.00    -0.379 N 
HETATM   12  C12 UNL     1      20.636   0.559  52.031  1.00  0.00     0.125 C 
HETATM   13  C13 UNL     1      19.328   0.228  51.328  1.00  0.00     0.050 C 
HETATM   14  C14 UNL     1      18.682   1.579  50.994  1.00  0.00     0.275 C 
HETATM   15  N5  UNL     1      19.766   2.488  50.775  1.00  0.00     0.099 N 
HETATM   16  C15 UNL     1      19.527   3.848  51.102  1.00  0.00     0.299 C 
HETATM   17  C18 UNL     1      20.344   2.240  49.493  1.00  0.00     0.264 C 
HETATM   18  C16 UNL     1      19.241   4.634  49.857  1.00  0.00     0.198 C 
HETATM   19  O1  UNL     1      20.239   4.595  48.921  1.00  0.00    -0.387 OA
HETATM   20  C17 UNL     1      20.974   3.431  48.856  1.00  0.00     0.205 C 
HETATM   21  C19 UNL     1      21.438   1.175  49.690  1.00  0.00     0.161 C 
ENDBRANCH   8  11
BRANCH   1  22
HETATM   22  N1  UNL     1      26.369   2.667  49.701  1.00  0.00    -0.340 N 
HETATM   23  H4  UNL     1      26.380   2.117  48.836  1.00  0.00     0.167 HD
BRANCH  22  24
HETATM   24  C5  UNL     1      26.420   4.102  49.517  1.00  0.00     0.035 A 
HETATM   25  C4  UNL     1      27.403   4.711  48.764  1.00  0.00     0.029 A 
HETATM   26  C3  UNL     1      27.519   6.069  48.532  1.00  0.00     0.004 A 
HETATM   27  C2  UNL     1      26.550   6.881  49.116  1.00  0.00     0.019 A 
HETATM   28  C1  UNL     1      25.538   6.350  49.880  1.00  0.00     0.013 A 
HETATM   29 BR1  UNL     1      24.161   7.401  50.716  1.00  0.00    -0.051 Br
HETATM   30  C22 UNL     1      25.481   4.983  50.072  1.00  0.00     0.048 A 
ENDBRANCH  22  24
ENDBRANCH   1  22
TORSDOF 3
ENDMDL
MODEL 4
REMARK VINA RESULT:      -8.4      3.091      6.686
REMARK  3 active torsions:
REMARK  status: ('A' for Active; 'I' for Inactive)
REMARK    1  A    between atoms: C5_6  and  N1_7 
REMARK    2  A    between atoms: N1_7  and  C6_8 
REMARK    3  A    between atoms: C11_15  and  N4_16 
ROOT
HETATM    1  C6  UNL     1      24.513   0.628  52.412  1.00  0.00     0.142 A 
HETATM    2  N2  UNL     1      24.639  -0.444  53.241  1.00  0.00    -0.224 NA
HETATM    3  C7  UNL     1      23.588  -0.763  54.027  1.00  0.00     0.236 A 
HETATM    4  N3  UNL     1      22.429  -0.037  53.998  1.00  0.00    -0.241 NA
HETATM    5  C8  UNL     1      22.319   1.023  53.172  1.00  0.00     0.072 A 
HETATM    6  C9  UNL     1      21.189   1.818  53.070  1.00  0.00     0.035 A 
HETATM    7  C10 UNL     1      21.143   2.901  52.196  1.00  0.00     0.031 A 
HETATM    8  C11 UNL     1      22.236   3.224  51.390  1.00  0.00     0.031 A 
HETATM    9  C20 UNL     1      23.381   2.445  51.469  1.00  0.00     0.047 A 
HETATM   10  C21 UNL     1      23.367   1.385  52.353  1.00  0.00     0.041 A 
ENDROOT
BRANCH   8  11
HETATM   11  N4  UNL     1      22.080   4.350  50.533  1.00  0.00    -0.379 N 
HETATM   12  C12 UNL     1      21.195   5.372  51.017  1.00  0.00     0.125 C 
HETATM   13  C13 UNL     1      20.972   6.497  50.017  1.00  0.00     0.050 C 
HETATM   14  C14 UNL     1      22.231   7.372  50.087  1.00  0.00     0.275 C 
HETATM   15  N5  UNL     1      23.306   6.485  50.416  1.00  0.00     0.099 N 
HETATM   16  C15 UNL     1      24.375   7.038  51.168  1.00  0.00     0.299 C 
HETATM   17  C18 UNL     1      23.672   5.731  49.260  1.00  0.00     0.264 C 
HETATM   18  C16 UNL     1      25.533   7.345  50.266  1.00  0.00     0.198 C 
HETATM   19  O1  UNL     1      26.017   6.264  49.578  1.00  0.00    -0.387 OA
HETATM   20  C17 UNL     1      25.098   5.299  49.227  1.00  0.00     0.205 C 
HETATM   21  C19 UNL     1      22.794   4.466  49.250  1.00  0.00     0.161 C 
ENDBRANCH   8  11
BRANCH   1  22
HETATM   22  N1  UNL     1      25.709   0.800  51.616  1.00  0.00    -0.340 N 
HETATM   23  H4  UNL     1      25.896   0.838  50.609  1.00  0.00     0.167 HD
BRANCH  22  24
HETATM   24  C5  UNL     1      26.872   0.953  52.463  1.00  0.00     0.035 A 
HETATM   25  C4  UNL     1      27.184   2.150  53.074  1.00  0.00     0.029 A 
HETATM   26  C3  UNL     1      28.268   2.379  53.901  1.00  0.00     0.004 A 
HETATM   27  C2  UNL     1      29.110   1.293  54.130  1.00  0.00     0.019 A 
HETATM   28  C1  UNL     1      28.868   0.068  53.559  1.00  0.00     0.013 A 
HETATM   29 BR1  UNL     1      29.979  -1.480  53.827  1.00  0.00    -0.051 Br
HETATM   30  C22 UNL     1      27.766  -0.092  52.741  1.00  0.00     0.048 A 
ENDBRANCH  22  24
ENDBRANCH   1  22
TORSDOF 3
ENDMDL
MODEL 5
REMARK VINA RESULT:      -8.3      3.200      7.003
REMARK  3 active torsions:
REMARK  status: ('A' for Active; 'I' for Inactive)
REMARK    1  A    between atoms: C5_6  and  N1_7 
REMARK    2  A    between atoms: N1_7  and  C6_8 
REMARK    3  A    between atoms: C11_15  and  N4_16 
ROOT
HETATM    1  C6  UNL     1      23.927   0.286  53.475  1.00  0.00     0.142 A 
HETATM    2  N2  UNL     1      23.639  -0.619  54.450  1.00  0.00    -0.224 NA
HETATM    3  C7  UNL     1      22.449  -1.256  54.390  1.00  0.00     0.236 A 
HETATM    4  N3  UNL     1      21.556  -1.006  53.384  1.00  0.00    -0.241 NA
HETATM    5  C8  UNL     1      21.854  -0.107  52.426  1.00  0.00     0.072 A 
HETATM    6  C9  UNL     1      21.018   0.213  51.369  1.00  0.00     0.035 A 
HETATM    7  C10 UNL     1      21.390   1.155  50.412  1.00  0.00     0.031 A 
HETATM    8  C11 UNL     1      22.620   1.811  50.485  1.00  0.00     0.031 A 
HETATM    9  C20 UNL     1      23.479   1.509  51.531  1.00  0.00     0.047 A 
HETATM   10  C21 UNL     1      23.057   0.568  52.448  1.00  0.00     0.041 A 
ENDROOT
BRANCH   8  11
HETATM   11  N4  UNL     1      22.897   2.753  49.454  1.00  0.00    -0.379 N 
HETATM   12  C12 UNL     1      21.831   2.969  48.517  1.00  0.00     0.125 C 
HETATM   13  C13 UNL     1      22.216   3.894  47.373  1.00  0.00     0.050 C 
HETATM   14  C14 UNL     1      22.168   5.315  47.952  1.00  0.00     0.275 C 
HETATM   15  N5  UNL     1      22.520   5.186  49.334  1.00  0.00     0.099 N 
HETATM   16  C15 UNL     1      21.943   6.129  50.224  1.00  0.00     0.299 C 
HETATM   17  C18 UNL     1      23.929   4.988  49.451  1.00  0.00     0.264 C 
HETATM   18  C16 UNL     1      22.941   7.196  50.559  1.00  0.00     0.198 C 
HETATM   19  O1  UNL     1      24.097   6.732  51.128  1.00  0.00    -0.387 OA
HETATM   20  C17 UNL     1      24.521   5.484  50.725  1.00  0.00     0.205 C 
HETATM   21  C19 UNL     1      24.181   3.471  49.371  1.00  0.00     0.161 C 
ENDBRANCH   8  11
BRANCH   1  22
HETATM   22  N1  UNL     1      25.249   0.840  53.668  1.00  0.00    -0.340 N 
HETATM   23  H4  UNL     1      25.603   1.753  53.973  1.00  0.00     0.167 HD
BRANCH  22  24
HETATM   24  C5  UNL     1      26.267  -0.141  53.357  1.00  0.00     0.035 A 
HETATM   25  C4  UNL     1      25.975  -1.323  52.709  1.00  0.00     0.029 A 
HETATM   26  C3  UNL     1      26.886  -2.306  52.369  1.00  0.00     0.004 A 
HETATM   27  C2  UNL     1      28.213  -2.066  52.717  1.00  0.00     0.019 A 
HETATM   28  C1  UNL     1      28.585  -0.912  53.364  1.00  0.00     0.013 A 
HETATM   29 BR1  UNL     1      30.394  -0.503  53.875  1.00  0.00    -0.051 Br
HETATM   30  C22 UNL     1      27.623   0.030  53.675  1.00  0.00     0.048 A 
ENDBRANCH  22  24
ENDBRANCH   1  22
TORSDOF 3
ENDMDL
MODEL 6
REMARK VINA RESULT:      -8.1      3.669      6.709
REMARK  3 active torsions:
REMARK  status: ('A' for Active; 'I' for Inactive)
REMARK    1  A    between atoms: C5_6  and  N1_7 
REMARK    2  A    between atoms: N1_7  and  C6_8 
REMARK    3  A    between atoms: C11_15  and  N4_16 
ROOT
HETATM    1  C6  UNL     1      24.517   0.268  53.098  1.00  0.00     0.142 A 
HETATM    2  N2  UNL     1      25.500  -0.017  53.995  1.00  0.00    -0.224 NA
HETATM    3  C7  UNL     1      25.162  -0.709  55.105  1.00  0.00     0.236 A 
HETATM    4  N3  UNL     1      23.874  -1.114  55.329  1.00  0.00    -0.241 NA
HETATM    5  C8  UNL     1      22.911  -0.824  54.433  1.00  0.00     0.072 A 
HETATM    6  C9  UNL     1      21.583  -1.189  54.569  1.00  0.00     0.035 A 
HETATM    7  C10 UNL     1      20.637  -0.854  53.603  1.00  0.00     0.031 A 
HETATM    8  C11 UNL     1      20.995  -0.136  52.461  1.00  0.00     0.031 A 
HETATM    9  C20 UNL     1      22.319   0.243  52.296  1.00  0.00     0.047 A 
HETATM   10  C21 UNL     1      23.211  -0.118  53.286  1.00  0.00     0.041 A 
ENDROOT
BRANCH   8  11
HETATM   11  N4  UNL     1      19.949   0.152  51.539  1.00  0.00    -0.379 N 
HETATM   12  C12 UNL     1      18.618  -0.002  52.054  1.00  0.00     0.125 C 
HETATM   13  C13 UNL     1      17.539   0.204  51.001  1.00  0.00     0.050 C 
HETATM   14  C14 UNL     1      17.429   1.723  50.810  1.00  0.00     0.275 C 
HETATM   15  N5  UNL     1      18.740   2.244  51.056  1.00  0.00     0.099 N 
HETATM   16  C15 UNL     1      18.808   3.557  51.592  1.00  0.00     0.299 C 
HETATM   17  C18 UNL     1      19.578   1.978  49.931  1.00  0.00     0.264 C 
HETATM   18  C16 UNL     1      19.138   4.538  50.508  1.00  0.00     0.198 C 
HETATM   19  O1  UNL     1      20.316   4.287  49.856  1.00  0.00    -0.387 OA
HETATM   20  C17 UNL     1      20.677   2.964  49.730  1.00  0.00     0.205 C 
HETATM   21  C19 UNL     1      20.217   0.597  50.160  1.00  0.00     0.161 C 
ENDBRANCH   8  11
BRANCH   1  22
HETATM   22  N1  UNL     1      25.058   0.973  51.957  1.00  0.00    -0.340 N 
HETATM   23  H4  UNL     1      25.691   0.714  51.193  1.00  0.00     0.167 HD
BRANCH  22  24
HETATM   24  C5  UNL     1      24.572   2.335  51.915  1.00  0.00     0.035 A 
HETATM   25  C4  UNL     1      24.257   3.037  53.061  1.00  0.00     0.029 A 
HETATM   26  C3  UNL     1      23.795   4.339  53.110  1.00  0.00     0.004 A 
HETATM   27  C2  UNL     1      23.641   4.987  51.886  1.00  0.00     0.019 A 
HETATM   28  C1  UNL     1      23.934   4.357  50.702  1.00  0.00     0.013 A 
HETATM   29 BR1  UNL     1      23.752   5.181  48.973  1.00  0.00    -0.051 Br
HETATM   30  C22 UNL     1      24.391   3.053  50.724  1.00  0.00     0.048 A 
ENDBRANCH  22  24
ENDBRANCH   1  22
TORSDOF 3
ENDMDL
MODEL 7
REMARK VINA RESULT:      -8.0      3.900      7.926
REMARK  3 active torsions:
REMARK  status: ('A' for Active; 'I' for Inactive)
REMARK    1  A    between atoms: C5_6  and  N1_7 
REMARK    2  A    between atoms: N1_7  and  C6_8 
REMARK    3  A    between atoms: C11_15  and  N4_16 
ROOT
HETATM    1  C6  UNL     1      23.451   1.162  53.005  1.00  0.00     0.142 A 
HETATM    2  N2  UNL     1      23.581  -0.076  53.554  1.00  0.00    -0.224 NA
HETATM    3  C7  UNL     1      24.737  -0.743  53.343  1.00  0.00     0.236 A 
HETATM    4  N3  UNL     1      25.751  -0.197  52.603  1.00  0.00    -0.241 NA
HETATM    5  C8  UNL     1      25.607   1.029  52.066  1.00  0.00     0.072 A 
HETATM    6  C9  UNL     1      26.574   1.665  51.304  1.00  0.00     0.035 A 
HETATM    7  C10 UNL     1      26.358   2.936  50.776  1.00  0.00     0.031 A 
HETATM    8  C11 UNL     1      25.159   3.616  50.997  1.00  0.00     0.031 A 
HETATM    9  C20 UNL     1      24.173   3.005  51.757  1.00  0.00     0.047 A 
HETATM   10  C21 UNL     1      24.444   1.746  52.254  1.00  0.00     0.041 A 
ENDROOT
BRANCH   8  11
HETATM   11  N4  UNL     1      25.047   4.908  50.411  1.00  0.00    -0.379 N 
HETATM   12  C12 UNL     1      25.729   5.077  49.159  1.00  0.00     0.125 C 
HETATM   13  C13 UNL     1      25.676   6.503  48.633  1.00  0.00     0.050 C 
HETATM   14  C14 UNL     1      24.271   6.676  48.040  1.00  0.00     0.275 C 
HETATM   15  N5  UNL     1      23.412   5.832  48.815  1.00  0.00     0.099 N 
HETATM   16  C15 UNL     1      22.289   5.285  48.142  1.00  0.00     0.299 C 
HETATM   17  C18 UNL     1      23.154   6.446  50.078  1.00  0.00     0.264 C 
HETATM   18  C16 UNL     1      21.054   6.060  48.491  1.00  0.00     0.198 C 
HETATM   19  O1  UNL     1      20.766   6.097  49.830  1.00  0.00    -0.387 OA
HETATM   20  C17 UNL     1      21.844   6.082  50.688  1.00  0.00     0.205 C 
HETATM   21  C19 UNL     1      24.267   5.989  51.039  1.00  0.00     0.161 C 
ENDBRANCH   8  11
BRANCH   1  22
HETATM   22  N1  UNL     1      22.177   1.746  53.363  1.00  0.00    -0.340 N 
HETATM   23  H4  UNL     1      21.883   2.457  54.041  1.00  0.00     0.167 HD
BRANCH  22  24
HETATM   24  C5  UNL     1      21.111   1.183  52.563  1.00  0.00     0.035 A 
HETATM   25  C4  UNL     1      20.998   1.430  51.210  1.00  0.00     0.029 A 
HETATM   26  C3  UNL     1      20.018   0.928  50.375  1.00  0.00     0.004 A 
HETATM   27  C2  UNL     1      19.068   0.097  50.966  1.00  0.00     0.019 A 
HETATM   28  C1  UNL     1      19.112  -0.198  52.307  1.00  0.00     0.013 A 
HETATM   29 BR1  UNL     1      17.843  -1.337  53.198  1.00  0.00    -0.051 Br
HETATM   30  C22 UNL     1      20.119   0.339  53.086  1.00  0.00     0.048 A 
ENDBRANCH  22  24
ENDBRANCH   1  22
TORSDOF 3
ENDMDL
MODEL 8
REMARK VINA RESULT:      -8.0      3.001      4.568
REMARK  3 active torsions:
REMARK  status: ('A' for Active; 'I' for Inactive)
REMARK    1  A    between atoms: C5_6  and  N1_7 
REMARK    2  A    between atoms: N1_7  and  C6_8 
REMARK    3  A    between atoms: C11_15  and  N4_16 
ROOT
HETATM    1  C6  UNL     1      23.780   6.133  50.466  1.00  0.00     0.142 A 
HETATM    2  N2  UNL     1      23.923   7.066  49.486  1.00  0.00    -0.224 NA
HETATM    3  C7  UNL     1      24.883   6.866  48.557  1.00  0.00     0.236 A 
HETATM    4  N3  UNL     1      25.691   5.761  48.593  1.00  0.00    -0.241 NA
HETATM    5  C8  UNL     1      25.539   4.847  49.570  1.00  0.00     0.072 A 
HETATM    6  C9  UNL     1      26.305   3.700  49.691  1.00  0.00     0.035 A 
HETATM    7  C10 UNL     1      26.095   2.795  50.729  1.00  0.00     0.031 A 
HETATM    8  C11 UNL     1      25.102   3.013  51.686  1.00  0.00     0.031 A 
HETATM    9  C20 UNL     1      24.317   4.152  51.590  1.00  0.00     0.047 A 
HETATM   10  C21 UNL     1      24.572   5.011  50.540  1.00  0.00     0.041 A 
ENDROOT
BRANCH   8  11
HETATM   11  N4  UNL     1      24.973   2.024  52.702  1.00  0.00    -0.379 N 
HETATM   12  C12 UNL     1      24.051   0.962  52.413  1.00  0.00     0.125 C 
HETATM   13  C13 UNL     1      23.864  -0.004  53.573  1.00  0.00     0.050 C 
HETATM   14  C14 UNL     1      25.105  -0.906  53.567  1.00  0.00     0.275 C 
HETATM   15  N5  UNL     1      26.174  -0.099  53.063  1.00  0.00     0.099 N 
HETATM   16  C15 UNL     1      27.195  -0.776  52.346  1.00  0.00     0.299 C 
HETATM   17  C18 UNL     1      26.610   0.804  54.080  1.00  0.00     0.264 C 
HETATM   18  C16 UNL     1      28.393  -0.975  53.225  1.00  0.00     0.198 C 
HETATM   19  O1  UNL     1      28.927   0.182  53.727  1.00  0.00    -0.387 OA
HETATM   20  C17 UNL     1      28.041   1.206  53.980  1.00  0.00     0.205 C 
HETATM   21  C19 UNL     1      25.752   2.076  53.952  1.00  0.00     0.161 C 
ENDBRANCH   8  11
BRANCH   1  22
HETATM   22  N1  UNL     1      22.685   6.481  51.345  1.00  0.00    -0.340 N 
HETATM   23  H4  UNL     1      22.626   6.892  52.283  1.00  0.00     0.167 HD
BRANCH  22  24
HETATM   24  C5  UNL     1      21.413   6.173  50.729  1.00  0.00     0.035 A 
HETATM   25  C4  UNL     1      20.706   7.106  49.998  1.00  0.00     0.029 A 
HETATM   26  C3  UNL     1      19.491   6.892  49.373  1.00  0.00     0.004 A 
HETATM   27  C2  UNL     1      18.947   5.616  49.499  1.00  0.00     0.019 A 
HETATM   28  C1  UNL     1      19.590   4.632  50.211  1.00  0.00     0.013 A 
HETATM   29 BR1  UNL     1      18.908   2.847  50.430  1.00  0.00    -0.051 Br
HETATM   30  C22 UNL     1      20.802   4.913  50.812  1.00  0.00     0.048 A 
ENDBRANCH  22  24
ENDBRANCH   1  22
TORSDOF 3
ENDMDL
MODEL 9
REMARK VINA RESULT:      -7.8      1.913      2.408
REMARK  3 active torsions:
REMARK  status: ('A' for Active; 'I' for Inactive)
REMARK    1  A    between atoms: C5_6  and  N1_7 
REMARK    2  A    between atoms: N1_7  and  C6_8 
REMARK    3  A    between atoms: C11_15  and  N4_16 
ROOT
HETATM    1  C6  UNL     1      23.184   3.658  48.670  1.00  0.00     0.142 A 
HETATM    2  N2  UNL     1      22.599   3.990  47.487  1.00  0.00    -0.224 NA
HETATM    3  C7  UNL     1      21.517   3.282  47.095  1.00  0.00     0.236 A 
HETATM    4  N3  UNL     1      21.017   2.262  47.859  1.00  0.00    -0.241 NA
HETATM    5  C8  UNL     1      21.607   1.944  49.028  1.00  0.00     0.072 A 
HETATM    6  C9  UNL     1      21.177   0.932  49.869  1.00  0.00     0.035 A 
HETATM    7  C10 UNL     1      21.835   0.655  51.065  1.00  0.00     0.031 A 
HETATM    8  C11 UNL     1      22.955   1.390  51.459  1.00  0.00     0.031 A 
HETATM    9  C20 UNL     1      23.408   2.412  50.638  1.00  0.00     0.047 A 
HETATM   10  C21 UNL     1      22.715   2.639  49.466  1.00  0.00     0.041 A 
ENDROOT
BRANCH   8  11
HETATM   11  N4  UNL     1      23.549   1.023  52.699  1.00  0.00    -0.379 N 
HETATM   12  C12 UNL     1      23.288  -0.322  53.131  1.00  0.00     0.125 C 
HETATM   13  C13 UNL     1      23.847  -0.628  54.513  1.00  0.00     0.050 C 
HETATM   14  C14 UNL     1      25.352  -0.846  54.314  1.00  0.00     0.275 C 
HETATM   15  N5  UNL     1      25.728  -0.008  53.215  1.00  0.00     0.099 N 
HETATM   16  C15 UNL     1      26.806  -0.463  52.412  1.00  0.00     0.299 C 
HETATM   17  C18 UNL     1      25.796   1.349  53.651  1.00  0.00     0.264 C 
HETATM   18  C16 UNL     1      28.063   0.265  52.780  1.00  0.00     0.198 C 
HETATM   19  O1  UNL     1      27.988   1.626  52.652  1.00  0.00    -0.387 OA
HETATM   20  C17 UNL     1      26.758   2.197  52.892  1.00  0.00     0.205 C 
HETATM   21  C19 UNL     1      24.391   1.953  53.473  1.00  0.00     0.161 C 
ENDBRANCH   8  11
BRANCH   1  22
HETATM   22  N1  UNL     1      24.296   4.538  48.953  1.00  0.00    -0.340 N 
HETATM   23  H4  UNL     1      25.311   4.407  49.018  1.00  0.00     0.167 HD
BRANCH  22  24
HETATM   24  C5  UNL     1      23.836   5.890  49.186  1.00  0.00     0.035 A 
HETATM   25  C4  UNL     1      23.029   6.218  50.256  1.00  0.00     0.029 A 
HETATM   26  C3  UNL     1      22.553   7.481  50.554  1.00  0.00     0.004 A 
HETATM   27  C2  UNL     1      22.931   8.504  49.687  1.00  0.00     0.019 A 
HETATM   28  C1  UNL     1      23.732   8.259  48.598  1.00  0.00     0.013 A 
HETATM   29 BR1  UNL     1      24.301   9.615  47.358  1.00  0.00    -0.051 Br
HETATM   30  C22 UNL     1      24.174   6.972  48.359  1.00  0.00     0.048 A 
ENDBRANCH  22  24
ENDBRANCH   1  22
TORSDOF 3
ENDMDL
