MODEL 1
REMARK VINA RESULT:      -8.0      0.000      0.000
REMARK  7 active torsions:
REMARK  status: ('A' for Active; 'I' for Inactive)
REMARK    1  A    between atoms: O1_2  and  C2_3 
REMARK    2  A    between atoms: C10_12  and  C11_13 
REMARK    3  A    between atoms: C11_13  and  N2_14 
REMARK    4  A    between atoms: N2_14  and  C12_15 
REMARK    5  A    between atoms: N3_16  and  C13_17 
REMARK    6  A    between atoms: C13_17  and  N4_18 
REMARK    7  A    between atoms: N4_18  and  C14_19 
ROOT
HETATM    1  C11 UNL     1      23.378   2.852  52.257  1.00  0.00     0.002 C 
ENDROOT
BRANCH   1   2
HETATM    2  C10 UNL     1      23.970   3.906  51.712  1.00  0.00     0.212 C 
HETATM    3  C9  UNL     1      23.532   5.137  52.350  1.00  0.00     0.327 C 
HETATM    4  N1  UNL     1      24.082   6.349  51.857  1.00  0.00     0.091 N 
HETATM    5  C8  UNL     1      24.209   6.541  50.466  1.00  0.00     0.311 C 
HETATM    6  H9  UNL     1      23.596   7.179  52.261  1.00  0.00     0.316 HD
HETATM    7  C6  UNL     1      25.393   5.844  49.849  1.00  0.00     0.006 A 
HETATM    8  C5  UNL     1      25.605   4.465  49.999  1.00  0.00     0.079 A 
HETATM    9  C7  UNL     1      26.268   6.624  49.126  1.00  0.00     0.048 A 
HETATM   10  C4  UNL     1      26.718   3.872  49.406  1.00  0.00     0.040 A 
HETATM   11  O2  UNL     1      24.831   3.504  50.694  1.00  0.00    -0.320 OA
HETATM   12  C3  UNL     1      27.598   4.645  48.682  1.00  0.00     0.039 A 
HETATM   13  C2  UNL     1      27.356   6.001  48.555  1.00  0.00     0.069 A 
BRANCH  13  14
HETATM   14  O1  UNL     1      28.242   6.796  47.822  1.00  0.00    -0.356 OA
HETATM   15  C1  UNL     1      29.249   7.566  48.433  1.00  0.00     0.210 C 
ENDBRANCH  13  14
ENDBRANCH   1   2
BRANCH   1  16
HETATM   16  N2  UNL     1      22.938   1.891  52.997  1.00  0.00    -0.201 NA
BRANCH  16  17
HETATM   17  C12 UNL     1      22.271   0.836  52.273  1.00  0.00     0.238 C 
HETATM   18  N3  UNL     1      22.763  -0.295  52.681  1.00  0.00    -0.263 NA
BRANCH  18  19
HETATM   19  C13 UNL     1      23.811  -0.353  53.705  1.00  0.00     0.272 C 
BRANCH  19  20
HETATM   20  N4  UNL     1      25.052  -0.730  53.075  1.00  0.00    -0.372 N 
HETATM   21  H15 UNL     1      25.112  -1.542  52.422  1.00  0.00     0.161 HD
BRANCH  20  22
HETATM   22  C14 UNL     1      26.216   0.008  53.339  1.00  0.00     0.031 A 
HETATM   23  C15 UNL     1      26.241   1.348  53.571  1.00  0.00     0.032 A 
HETATM   24  C16 UNL     1      27.373   2.090  53.832  1.00  0.00     0.046 A 
HETATM   25  C17 UNL     1      28.604   1.452  53.871  1.00  0.00     0.138 A 
HETATM   26  F1  UNL     1      29.725   2.145  54.123  1.00  0.00    -0.204 F 
HETATM   27  C18 UNL     1      28.645   0.081  53.642  1.00  0.00     0.074 A 
HETATM   28 CL1  UNL     1      30.181  -0.765  53.682  1.00  0.00    -0.081 Cl
HETATM   29  C19 UNL     1      27.470  -0.593  53.387  1.00  0.00     0.056 A 
ENDBRANCH  20  22
ENDBRANCH  19  20
ENDBRANCH  18  19
ENDBRANCH  16  17
ENDBRANCH   1  16
TORSDOF 7
ENDMDL
MODEL 2
REMARK VINA RESULT:      -8.0      1.223      1.551
REMARK  7 active torsions:
REMARK  status: ('A' for Active; 'I' for Inactive)
REMARK    1  A    between atoms: O1_2  and  C2_3 
REMARK    2  A    between atoms: C10_12  and  C11_13 
REMARK    3  A    between atoms: C11_13  and  N2_14 
REMARK    4  A    between atoms: N2_14  and  C12_15 
REMARK    5  A    between atoms: N3_16  and  C13_17 
REMARK    6  A    between atoms: C13_17  and  N4_18 
REMARK    7  A    between atoms: N4_18  and  C14_19 
ROOT
HETATM    1  C11 UNL     1      23.717   2.997  51.453  1.00  0.00     0.002 C 
ENDROOT
BRANCH   1   2
HETATM    2  C10 UNL     1      24.286   4.165  51.186  1.00  0.00     0.212 C 
HETATM    3  C9  UNL     1      23.833   5.189  52.113  1.00  0.00     0.327 C 
HETATM    4  N1  UNL     1      24.357   6.496  51.935  1.00  0.00     0.091 N 
HETATM    5  C8  UNL     1      24.466   7.030  50.634  1.00  0.00     0.311 C 
HETATM    6  H9  UNL     1      23.860   7.189  52.534  1.00  0.00     0.316 HD
HETATM    7  C6  UNL     1      25.657   6.532  49.857  1.00  0.00     0.006 A 
HETATM    8  C5  UNL     1      25.893   5.163  49.658  1.00  0.00     0.079 A 
HETATM    9  C7  UNL     1      26.510   7.484  49.347  1.00  0.00     0.048 A 
HETATM   10  C4  UNL     1      27.011   4.758  48.930  1.00  0.00     0.040 A 
HETATM   11  O2  UNL     1      25.143   4.045  50.095  1.00  0.00    -0.320 OA
HETATM   12  C3  UNL     1      27.870   5.704  48.416  1.00  0.00     0.039 A 
HETATM   13  C2  UNL     1      27.604   7.044  48.633  1.00  0.00     0.069 A 
BRANCH  13  14
HETATM   14  O1  UNL     1      28.469   8.013  48.117  1.00  0.00    -0.356 OA
HETATM   15  C1  UNL     1      29.496   8.595  48.883  1.00  0.00     0.210 C 
ENDBRANCH  13  14
ENDBRANCH   1   2
BRANCH   1  16
HETATM   16  N2  UNL     1      23.403   1.789  51.780  1.00  0.00    -0.201 NA
BRANCH  16  17
HETATM   17  C12 UNL     1      22.193   1.674  52.557  1.00  0.00     0.238 C 
HETATM   18  N3  UNL     1      22.253   0.560  53.221  1.00  0.00    -0.263 NA
BRANCH  18  19
HETATM   19  C13 UNL     1      23.407  -0.339  53.111  1.00  0.00     0.272 C 
BRANCH  19  20
HETATM   20  N4  UNL     1      24.424   0.099  54.036  1.00  0.00    -0.372 N 
HETATM   21  H15 UNL     1      24.185   0.620  54.908  1.00  0.00     0.161 HD
BRANCH  20  22
HETATM   22  C14 UNL     1      25.773  -0.178  53.765  1.00  0.00     0.031 A 
HETATM   23  C15 UNL     1      26.211  -1.259  53.065  1.00  0.00     0.032 A 
HETATM   24  C16 UNL     1      27.530  -1.547  52.789  1.00  0.00     0.046 A 
HETATM   25  C17 UNL     1      28.518  -0.688  53.244  1.00  0.00     0.138 A 
HETATM   26  F1  UNL     1      29.811  -0.940  52.992  1.00  0.00    -0.204 F 
HETATM   27  C18 UNL     1      28.135   0.437  53.966  1.00  0.00     0.074 A 
HETATM   28 CL1  UNL     1      29.352   1.551  54.560  1.00  0.00    -0.081 Cl
HETATM   29  C19 UNL     1      26.794   0.659  54.203  1.00  0.00     0.056 A 
ENDBRANCH  20  22
ENDBRANCH  19  20
ENDBRANCH  18  19
ENDBRANCH  16  17
ENDBRANCH   1  16
TORSDOF 7
ENDMDL
MODEL 3
REMARK VINA RESULT:      -7.9      2.548      6.708
REMARK  7 active torsions:
REMARK  status: ('A' for Active; 'I' for Inactive)
REMARK    1  A    between atoms: O1_2  and  C2_3 
REMARK    2  A    between atoms: C10_12  and  C11_13 
REMARK    3  A    between atoms: C11_13  and  N2_14 
REMARK    4  A    between atoms: N2_14  and  C12_15 
REMARK    5  A    between atoms: N3_16  and  C13_17 
REMARK    6  A    between atoms: C13_17  and  N4_18 
REMARK    7  A    between atoms: N4_18  and  C14_19 
ROOT
HETATM    1  C11 UNL     1      23.182   4.102  52.288  1.00  0.00     0.002 C 
ENDROOT
BRANCH   1   2
HETATM    2  C10 UNL     1      23.609   2.859  52.461  1.00  0.00     0.212 C 
HETATM    3  C9  UNL     1      22.543   1.902  52.212  1.00  0.00     0.327 C 
HETATM    4  N1  UNL     1      22.860   0.529  52.371  1.00  0.00     0.091 N 
HETATM    5  C8  UNL     1      23.636   0.116  53.474  1.00  0.00     0.311 C 
HETATM    6  H9  UNL     1      22.005  -0.066  52.330  1.00  0.00     0.316 HD
HETATM    7  C6  UNL     1      25.115   0.358  53.317  1.00  0.00     0.006 A 
HETATM    8  C5  UNL     1      25.632   1.630  53.024  1.00  0.00     0.079 A 
HETATM    9  C7  UNL     1      25.945  -0.729  53.475  1.00  0.00     0.048 A 
HETATM   10  C4  UNL     1      27.009   1.798  52.890  1.00  0.00     0.040 A 
HETATM   11  O2  UNL     1      24.953   2.857  52.828  1.00  0.00    -0.320 OA
HETATM   12  C3  UNL     1      27.846   0.714  53.046  1.00  0.00     0.039 A 
HETATM   13  C2  UNL     1      27.300  -0.523  53.334  1.00  0.00     0.069 A 
BRANCH  13  14
HETATM   14  O1  UNL     1      28.140  -1.629  53.495  1.00  0.00    -0.356 OA
HETATM   15  C1  UNL     1      29.542  -1.523  53.464  1.00  0.00     0.210 C 
ENDBRANCH  13  14
ENDBRANCH   1   2
BRANCH   1  16
HETATM   16  N2  UNL     1      23.001   5.351  52.018  1.00  0.00    -0.201 NA
BRANCH  16  17
HETATM   17  C12 UNL     1      21.689   5.668  51.507  1.00  0.00     0.238 C 
HETATM   18  N3  UNL     1      21.802   6.717  50.750  1.00  0.00    -0.263 NA
BRANCH  18  19
HETATM   19  C13 UNL     1      23.096   7.373  50.534  1.00  0.00     0.272 C 
BRANCH  19  20
HETATM   20  N4  UNL     1      23.540   7.088  49.191  1.00  0.00    -0.372 N 
HETATM   21  H15 UNL     1      22.937   7.281  48.362  1.00  0.00     0.161 HD
BRANCH  20  22
HETATM   22  C14 UNL     1      24.815   6.540  48.985  1.00  0.00     0.031 A 
HETATM   23  C15 UNL     1      25.873   7.225  48.473  1.00  0.00     0.032 A 
HETATM   24  C16 UNL     1      27.132   6.704  48.263  1.00  0.00     0.046 A 
HETATM   25  C17 UNL     1      27.378   5.379  48.589  1.00  0.00     0.138 A 
HETATM   26  F1  UNL     1      28.592   4.842  48.398  1.00  0.00    -0.204 F 
HETATM   27  C18 UNL     1      26.336   4.625  49.119  1.00  0.00     0.074 A 
HETATM   28 CL1  UNL     1      26.603   2.945  49.546  1.00  0.00    -0.081 Cl
HETATM   29  C19 UNL     1      25.103   5.216  49.300  1.00  0.00     0.056 A 
ENDBRANCH  20  22
ENDBRANCH  19  20
ENDBRANCH  18  19
ENDBRANCH  16  17
ENDBRANCH   1  16
TORSDOF 7
ENDMDL
MODEL 4
REMARK VINA RESULT:      -7.6      3.892      7.650
REMARK  7 active torsions:
REMARK  status: ('A' for Active; 'I' for Inactive)
REMARK    1  A    between atoms: O1_2  and  C2_3 
REMARK    2  A    between atoms: C10_12  and  C11_13 
REMARK    3  A    between atoms: C11_13  and  N2_14 
REMARK    4  A    between atoms: N2_14  and  C12_15 
REMARK    5  A    between atoms: N3_16  and  C13_17 
REMARK    6  A    between atoms: C13_17  and  N4_18 
REMARK    7  A    between atoms: N4_18  and  C14_19 
ROOT
HETATM    1  C11 UNL     1      26.666   4.123  49.417  1.00  0.00     0.002 C 
ENDROOT
BRANCH   1   2
HETATM    2  C10 UNL     1      26.033   3.442  50.362  1.00  0.00     0.212 C 
HETATM    3  C9  UNL     1      24.641   3.853  50.457  1.00  0.00     0.327 C 
HETATM    4  N1  UNL     1      23.846   3.209  51.440  1.00  0.00     0.091 N 
HETATM    5  C8  UNL     1      24.376   2.985  52.727  1.00  0.00     0.311 C 
HETATM    6  H9  UNL     1      22.918   3.675  51.542  1.00  0.00     0.316 HD
HETATM    7  C6  UNL     1      25.304   1.803  52.818  1.00  0.00     0.006 A 
HETATM    8  C5  UNL     1      26.428   1.675  51.987  1.00  0.00     0.079 A 
HETATM    9  C7  UNL     1      25.002   0.844  53.759  1.00  0.00     0.048 A 
HETATM   10  C4  UNL     1      27.254   0.560  52.115  1.00  0.00     0.040 A 
HETATM   11  O2  UNL     1      26.903   2.541  50.972  1.00  0.00    -0.320 OA
HETATM   12  C3  UNL     1      26.958  -0.404  53.053  1.00  0.00     0.039 A 
HETATM   13  C2  UNL     1      25.843  -0.244  53.855  1.00  0.00     0.069 A 
BRANCH  13  14
HETATM   14  O1  UNL     1      25.533  -1.216  54.811  1.00  0.00    -0.356 OA
HETATM   15  C1  UNL     1      24.285  -1.267  55.458  1.00  0.00     0.210 C 
ENDBRANCH  13  14
ENDBRANCH   1   2
BRANCH   1  16
HETATM   16  N2  UNL     1      27.237   4.989  48.649  1.00  0.00    -0.201 NA
BRANCH  16  17
HETATM   17  C12 UNL     1      26.782   6.345  48.836  1.00  0.00     0.238 C 
HETATM   18  N3  UNL     1      27.715   7.139  48.403  1.00  0.00    -0.263 NA
BRANCH  18  19
HETATM   19  C13 UNL     1      28.967   6.619  47.843  1.00  0.00     0.272 C 
BRANCH  19  20
HETATM   20  N4  UNL     1      29.884   6.359  48.926  1.00  0.00    -0.372 N 
HETATM   21  H15 UNL     1      29.616   6.518  49.922  1.00  0.00     0.161 HD
BRANCH  20  22
HETATM   22  C14 UNL     1      31.172   5.879  48.643  1.00  0.00     0.031 A 
HETATM   23  C15 UNL     1      32.319   6.411  49.144  1.00  0.00     0.032 A 
HETATM   24  C16 UNL     1      33.592   5.953  48.878  1.00  0.00     0.046 A 
HETATM   25  C17 UNL     1      33.755   4.863  48.037  1.00  0.00     0.138 A 
HETATM   26  F1  UNL     1      34.980   4.393  47.758  1.00  0.00    -0.204 F 
HETATM   27  C18 UNL     1      32.620   4.273  47.493  1.00  0.00     0.074 A 
HETATM   28 CL1  UNL     1      32.780   2.892  46.424  1.00  0.00    -0.081 Cl
HETATM   29  C19 UNL     1      31.379   4.788  47.805  1.00  0.00     0.056 A 
ENDBRANCH  20  22
ENDBRANCH  19  20
ENDBRANCH  18  19
ENDBRANCH  16  17
ENDBRANCH   1  16
TORSDOF 7
ENDMDL
MODEL 5
REMARK VINA RESULT:      -7.6      1.881      2.452
REMARK  7 active torsions:
REMARK  status: ('A' for Active; 'I' for Inactive)
REMARK    1  A    between atoms: O1_2  and  C2_3 
REMARK    2  A    between atoms: C10_12  and  C11_13 
REMARK    3  A    between atoms: C11_13  and  N2_14 
REMARK    4  A    between atoms: N2_14  and  C12_15 
REMARK    5  A    between atoms: N3_16  and  C13_17 
REMARK    6  A    between atoms: C13_17  and  N4_18 
REMARK    7  A    between atoms: N4_18  and  C14_19 
ROOT
HETATM    1  C11 UNL     1      24.048   4.869  50.752  1.00  0.00     0.002 C 
ENDROOT
BRANCH   1   2
HETATM    2  C10 UNL     1      24.934   5.750  50.309  1.00  0.00     0.212 C 
HETATM    3  C9  UNL     1      24.651   7.079  50.830  1.00  0.00     0.327 C 
HETATM    4  N1  UNL     1      25.520   8.126  50.427  1.00  0.00     0.091 N 
HETATM    5  C8  UNL     1      25.932   8.209  49.080  1.00  0.00     0.311 C 
HETATM    6  H9  UNL     1      25.151   9.057  50.716  1.00  0.00     0.316 HD
HETATM    7  C6  UNL     1      27.039   7.256  48.711  1.00  0.00     0.006 A 
HETATM    8  C5  UNL     1      26.930   5.873  48.924  1.00  0.00     0.079 A 
HETATM    9  C7  UNL     1      28.171   7.803  48.151  1.00  0.00     0.048 A 
HETATM   10  C4  UNL     1      27.984   5.037  48.562  1.00  0.00     0.040 A 
HETATM   11  O2  UNL     1      25.862   5.127  49.479  1.00  0.00    -0.320 OA
HETATM   12  C3  UNL     1      29.121   5.577  48.002  1.00  0.00     0.039 A 
HETATM   13  C2  UNL     1      29.192   6.944  47.807  1.00  0.00     0.069 A 
BRANCH  13  14
HETATM   14  O1  UNL     1      30.341   7.503  47.239  1.00  0.00    -0.356 OA
HETATM   15  C1  UNL     1      31.468   7.853  48.004  1.00  0.00     0.210 C 
ENDBRANCH  13  14
ENDBRANCH   1   2
BRANCH   1  16
HETATM   16  N2  UNL     1      23.381   3.928  51.331  1.00  0.00    -0.201 NA
BRANCH  16  17
HETATM   17  C12 UNL     1      23.367   2.676  50.615  1.00  0.00     0.238 C 
HETATM   18  N3  UNL     1      23.936   1.783  51.368  1.00  0.00    -0.263 NA
BRANCH  18  19
HETATM   19  C13 UNL     1      24.460   2.119  52.696  1.00  0.00     0.272 C 
BRANCH  19  20
HETATM   20  N4  UNL     1      25.844   2.504  52.563  1.00  0.00    -0.372 N 
HETATM   21  H15 UNL     1      26.119   3.457  52.241  1.00  0.00     0.161 HD
BRANCH  20  22
HETATM   22  C14 UNL     1      26.853   1.580  52.874  1.00  0.00     0.031 A 
HETATM   23  C15 UNL     1      28.057   1.908  53.415  1.00  0.00     0.032 A 
HETATM   24  C16 UNL     1      29.060   1.015  53.727  1.00  0.00     0.046 A 
HETATM   25  C17 UNL     1      28.861  -0.335  53.484  1.00  0.00     0.138 A 
HETATM   26  F1  UNL     1      29.816  -1.230  53.777  1.00  0.00    -0.204 F 
HETATM   27  C18 UNL     1      27.649  -0.736  52.932  1.00  0.00     0.074 A 
HETATM   28 CL1  UNL     1      27.355  -2.434  52.608  1.00  0.00    -0.081 Cl
HETATM   29  C19 UNL     1      26.693   0.217  52.646  1.00  0.00     0.056 A 
ENDBRANCH  20  22
ENDBRANCH  19  20
ENDBRANCH  18  19
ENDBRANCH  16  17
ENDBRANCH   1  16
TORSDOF 7
ENDMDL
MODEL 6
REMARK VINA RESULT:      -7.6      4.498      7.318
REMARK  7 active torsions:
REMARK  status: ('A' for Active; 'I' for Inactive)
REMARK    1  A    between atoms: O1_2  and  C2_3 
REMARK    2  A    between atoms: C10_12  and  C11_13 
REMARK    3  A    between atoms: C11_13  and  N2_14 
REMARK    4  A    between atoms: N2_14  and  C12_15 
REMARK    5  A    between atoms: N3_16  and  C13_17 
REMARK    6  A    between atoms: C13_17  and  N4_18 
REMARK    7  A    between atoms: N4_18  and  C14_19 
ROOT
HETATM    1  C11 UNL     1      22.316   3.148  50.463  1.00  0.00     0.002 C 
ENDROOT
BRANCH   1   2
HETATM    2  C10 UNL     1      23.519   2.842  50.929  1.00  0.00     0.212 C 
HETATM    3  C9  UNL     1      24.467   3.914  50.669  1.00  0.00     0.327 C 
HETATM    4  N1  UNL     1      25.801   3.715  51.109  1.00  0.00     0.091 N 
HETATM    5  C8  UNL     1      26.418   2.462  50.913  1.00  0.00     0.311 C 
HETATM    6  H9  UNL     1      26.436   4.456  50.741  1.00  0.00     0.316 HD
HETATM    7  C6  UNL     1      26.016   1.410  51.913  1.00  0.00     0.006 A 
HETATM    8  C5  UNL     1      24.672   1.070  52.132  1.00  0.00     0.079 A 
HETATM    9  C7  UNL     1      27.029   0.790  52.608  1.00  0.00     0.048 A 
HETATM   10  C4  UNL     1      24.356   0.088  53.069  1.00  0.00     0.040 A 
HETATM   11  O2  UNL     1      23.500   1.584  51.526  1.00  0.00    -0.320 OA
HETATM   12  C3  UNL     1      25.364  -0.536  53.770  1.00  0.00     0.039 A 
HETATM   13  C2  UNL     1      26.676  -0.175  53.527  1.00  0.00     0.069 A 
BRANCH  13  14
HETATM   14  O1  UNL     1      27.709  -0.802  54.231  1.00  0.00    -0.356 OA
HETATM   15  C1  UNL     1      28.948  -0.180  54.468  1.00  0.00     0.210 C 
ENDBRANCH  13  14
ENDBRANCH   1   2
BRANCH   1  16
HETATM   16  N2  UNL     1      21.195   3.679  50.108  1.00  0.00    -0.201 NA
BRANCH  16  17
HETATM   17  C12 UNL     1      21.057   3.892  48.688  1.00  0.00     0.238 C 
HETATM   18  N3  UNL     1      19.895   3.434  48.331  1.00  0.00    -0.263 NA
BRANCH  18  19
HETATM   19  C13 UNL     1      18.976   2.829  49.301  1.00  0.00     0.272 C 
BRANCH  19  20
HETATM   20  N4  UNL     1      19.196   1.404  49.320  1.00  0.00    -0.372 N 
HETATM   21  H15 UNL     1      19.614   0.902  48.505  1.00  0.00     0.161 HD
BRANCH  20  22
HETATM   22  C14 UNL     1      18.845   0.663  50.459  1.00  0.00     0.031 A 
HETATM   23  C15 UNL     1      17.652   0.034  50.630  1.00  0.00     0.032 A 
HETATM   24  C16 UNL     1      17.289  -0.698  51.740  1.00  0.00     0.046 A 
HETATM   25  C17 UNL     1      18.189  -0.826  52.787  1.00  0.00     0.138 A 
HETATM   26  F1  UNL     1      17.868  -1.532  53.881  1.00  0.00    -0.204 F 
HETATM   27  C18 UNL     1      19.429  -0.207  52.673  1.00  0.00     0.074 A 
HETATM   28 CL1  UNL     1      20.597  -0.343  53.973  1.00  0.00    -0.081 Cl
HETATM   29  C19 UNL     1      19.719   0.509  51.530  1.00  0.00     0.056 A 
ENDBRANCH  20  22
ENDBRANCH  19  20
ENDBRANCH  18  19
ENDBRANCH  16  17
ENDBRANCH   1  16
TORSDOF 7
ENDMDL
MODEL 7
REMARK VINA RESULT:      -7.6      3.365      5.490
REMARK  7 active torsions:
REMARK  status: ('A' for Active; 'I' for Inactive)
REMARK    1  A    between atoms: O1_2  and  C2_3 
REMARK    2  A    between atoms: C10_12  and  C11_13 
REMARK    3  A    between atoms: C11_13  and  N2_14 
REMARK    4  A    between atoms: N2_14  and  C12_15 
REMARK    5  A    between atoms: N3_16  and  C13_17 
REMARK    6  A    between atoms: C13_17  and  N4_18 
REMARK    7  A    between atoms: N4_18  and  C14_19 
ROOT
HETATM    1  C11 UNL     1      22.719   4.019  52.044  1.00  0.00     0.002 C 
ENDROOT
BRANCH   1   2
HETATM    2  C10 UNL     1      23.996   3.673  51.958  1.00  0.00     0.212 C 
HETATM    3  C9  UNL     1      24.664   4.410  50.897  1.00  0.00     0.327 C 
HETATM    4  N1  UNL     1      26.039   4.130  50.687  1.00  0.00     0.091 N 
HETATM    5  C8  UNL     1      26.490   2.794  50.710  1.00  0.00     0.311 C 
HETATM    6  H9  UNL     1      26.389   4.580  49.814  1.00  0.00     0.316 HD
HETATM    7  C6  UNL     1      26.666   2.223  52.093  1.00  0.00     0.006 A 
HETATM    8  C5  UNL     1      25.625   2.222  53.034  1.00  0.00     0.079 A 
HETATM    9  C7  UNL     1      27.901   1.697  52.397  1.00  0.00     0.048 A 
HETATM   10  C4  UNL     1      25.843   1.680  54.299  1.00  0.00     0.040 A 
HETATM   11  O2  UNL     1      24.300   2.709  52.915  1.00  0.00    -0.320 OA
HETATM   12  C3  UNL     1      27.076   1.152  54.612  1.00  0.00     0.039 A 
HETATM   13  C2  UNL     1      28.078   1.171  53.658  1.00  0.00     0.069 A 
BRANCH  13  14
HETATM   14  O1  UNL     1      29.334   0.638  53.964  1.00  0.00    -0.356 OA
HETATM   15  C1  UNL     1      29.620  -0.735  53.850  1.00  0.00     0.210 C 
ENDBRANCH  13  14
ENDBRANCH   1   2
BRANCH   1  16
HETATM   16  N2  UNL     1      21.454   4.140  52.271  1.00  0.00    -0.201 NA
BRANCH  16  17
HETATM   17  C12 UNL     1      20.651   4.342  51.089  1.00  0.00     0.238 C 
HETATM   18  N3  UNL     1      19.719   3.438  51.084  1.00  0.00    -0.263 NA
BRANCH  18  19
HETATM   19  C13 UNL     1      19.610   2.441  52.155  1.00  0.00     0.272 C 
BRANCH  19  20
HETATM   20  N4  UNL     1      20.354   1.267  51.769  1.00  0.00    -0.372 N 
HETATM   21  H15 UNL     1      20.372   0.929  50.782  1.00  0.00     0.161 HD
BRANCH  20  22
HETATM   22  C14 UNL     1      21.076   0.554  52.738  1.00  0.00     0.031 A 
HETATM   23  C15 UNL     1      20.608   0.253  53.979  1.00  0.00     0.032 A 
HETATM   24  C16 UNL     1      21.301  -0.446  54.944  1.00  0.00     0.046 A 
HETATM   25  C17 UNL     1      22.582  -0.895  54.662  1.00  0.00     0.138 A 
HETATM   26  F1  UNL     1      23.284  -1.579  55.579  1.00  0.00    -0.204 F 
HETATM   27  C18 UNL     1      23.118  -0.620  53.409  1.00  0.00     0.074 A 
HETATM   28 CL1  UNL     1      24.735  -1.170  53.010  1.00  0.00    -0.081 Cl
HETATM   29  C19 UNL     1      22.363   0.085  52.496  1.00  0.00     0.056 A 
ENDBRANCH  20  22
ENDBRANCH  19  20
ENDBRANCH  18  19
ENDBRANCH  16  17
ENDBRANCH   1  16
TORSDOF 7
ENDMDL
MODEL 8
REMARK VINA RESULT:      -7.3      2.086      3.281
REMARK  7 active torsions:
REMARK  status: ('A' for Active; 'I' for Inactive)
REMARK    1  A    between atoms: O1_2  and  C2_3 
REMARK    2  A    between atoms: C10_12  and  C11_13 
REMARK    3  A    between atoms: C11_13  and  N2_14 
REMARK    4  A    between atoms: N2_14  and  C12_15 
REMARK    5  A    between atoms: N3_16  and  C13_17 
REMARK    6  A    between atoms: C13_17  and  N4_18 
REMARK    7  A    between atoms: N4_18  and  C14_19 
ROOT
HETATM    1  C11 UNL     1      25.127   4.378  49.455  1.00  0.00     0.002 C 
ENDROOT
BRANCH   1   2
HETATM    2  C10 UNL     1      25.959   5.411  49.431  1.00  0.00     0.212 C 
HETATM    3  C9  UNL     1      25.470   6.492  50.272  1.00  0.00     0.327 C 
HETATM    4  N1  UNL     1      26.262   7.668  50.332  1.00  0.00     0.091 N 
HETATM    5  C8  UNL     1      26.827   8.189  49.149  1.00  0.00     0.311 C 
HETATM    6  H9  UNL     1      25.760   8.439  50.824  1.00  0.00     0.316 HD
HETATM    7  C6  UNL     1      28.068   7.472  48.688  1.00  0.00     0.006 A 
HETATM    8  C5  UNL     1      28.086   6.086  48.464  1.00  0.00     0.079 A 
HETATM    9  C7  UNL     1      29.194   8.239  48.492  1.00  0.00     0.048 A 
HETATM   10  C4  UNL     1      29.262   5.474  48.036  1.00  0.00     0.040 A 
HETATM   11  O2  UNL     1      27.045   5.136  48.605  1.00  0.00    -0.320 OA
HETATM   12  C3  UNL     1      30.394   6.235  47.839  1.00  0.00     0.039 A 
HETATM   13  C2  UNL     1      30.338   7.597  48.069  1.00  0.00     0.069 A 
BRANCH  13  14
HETATM   14  O1  UNL     1      31.480   8.379  47.872  1.00  0.00    -0.356 OA
HETATM   15  C1  UNL     1      31.490   9.769  48.087  1.00  0.00     0.210 C 
ENDBRANCH  13  14
ENDBRANCH   1   2
BRANCH   1  16
HETATM   16  N2  UNL     1      24.503   3.261  49.618  1.00  0.00    -0.201 NA
BRANCH  16  17
HETATM   17  C12 UNL     1      23.093   3.313  49.318  1.00  0.00     0.238 C 
HETATM   18  N3  UNL     1      22.445   3.088  50.421  1.00  0.00    -0.263 NA
BRANCH  18  19
HETATM   19  C13 UNL     1      23.145   2.836  51.686  1.00  0.00     0.272 C 
BRANCH  19  20
HETATM   20  N4  UNL     1      23.575   1.460  51.710  1.00  0.00    -0.372 N 
HETATM   21  H15 UNL     1      23.147   0.740  51.086  1.00  0.00     0.161 HD
BRANCH  20  22
HETATM   22  C14 UNL     1      24.595   1.067  52.590  1.00  0.00     0.031 A 
HETATM   23  C15 UNL     1      24.532  -0.018  53.406  1.00  0.00     0.032 A 
HETATM   24  C16 UNL     1      25.523  -0.419  54.276  1.00  0.00     0.046 A 
HETATM   25  C17 UNL     1      26.694   0.319  54.352  1.00  0.00     0.138 A 
HETATM   26  F1  UNL     1      27.678  -0.044  55.187  1.00  0.00    -0.204 F 
HETATM   27  C18 UNL     1      26.821   1.441  53.541  1.00  0.00     0.074 A 
HETATM   28 CL1  UNL     1      28.285   2.404  53.604  1.00  0.00    -0.081 Cl
HETATM   29  C19 UNL     1      25.785   1.780  52.695  1.00  0.00     0.056 A 
ENDBRANCH  20  22
ENDBRANCH  19  20
ENDBRANCH  18  19
ENDBRANCH  16  17
ENDBRANCH   1  16
TORSDOF 7
ENDMDL
MODEL 9
REMARK VINA RESULT:      -7.2      1.842      2.279
REMARK  7 active torsions:
REMARK  status: ('A' for Active; 'I' for Inactive)
REMARK    1  A    between atoms: O1_2  and  C2_3 
REMARK    2  A    between atoms: C10_12  and  C11_13 
REMARK    3  A    between atoms: C11_13  and  N2_14 
REMARK    4  A    between atoms: N2_14  and  C12_15 
REMARK    5  A    between atoms: N3_16  and  C13_17 
REMARK    6  A    between atoms: C13_17  and  N4_18 
REMARK    7  A    between atoms: N4_18  and  C14_19 
ROOT
HETATM    1  C11 UNL     1      22.718   4.658  51.682  1.00  0.00     0.002 C 
ENDROOT
BRANCH   1   2
HETATM    2  C10 UNL     1      23.708   5.367  51.158  1.00  0.00     0.212 C 
HETATM    3  C9  UNL     1      23.662   6.745  51.619  1.00  0.00     0.327 C 
HETATM    4  N1  UNL     1      24.663   7.622  51.126  1.00  0.00     0.091 N 
HETATM    5  C8  UNL     1      25.019   7.577  49.762  1.00  0.00     0.311 C 
HETATM    6  H9  UNL     1      24.459   8.613  51.380  1.00  0.00     0.316 HD
HETATM    7  C6  UNL     1      25.944   6.445  49.400  1.00  0.00     0.006 A 
HETATM    8  C5  UNL     1      25.630   5.108  49.690  1.00  0.00     0.079 A 
HETATM    9  C7  UNL     1      27.119   6.779  48.766  1.00  0.00     0.048 A 
HETATM   10  C4  UNL     1      26.522   4.099  49.331  1.00  0.00     0.040 A 
HETATM   11  O2  UNL     1      24.486   4.566  50.325  1.00  0.00    -0.320 OA
HETATM   12  C3  UNL     1      27.701   4.425  48.697  1.00  0.00     0.039 A 
HETATM   13  C2  UNL     1      27.976   5.753  48.428  1.00  0.00     0.069 A 
BRANCH  13  14
HETATM   14  O1  UNL     1      29.169   6.097  47.785  1.00  0.00    -0.356 OA
HETATM   15  C1  UNL     1      30.343   6.417  48.492  1.00  0.00     0.210 C 
ENDBRANCH  13  14
ENDBRANCH   1   2
BRANCH   1  16
HETATM   16  N2  UNL     1      21.783   3.820  51.982  1.00  0.00    -0.201 NA
BRANCH  16  17
HETATM   17  C12 UNL     1      21.101   3.252  50.845  1.00  0.00     0.238 C 
HETATM   18  N3  UNL     1      21.424   1.995  50.777  1.00  0.00    -0.263 NA
BRANCH  18  19
HETATM   19  C13 UNL     1      22.335   1.382  51.750  1.00  0.00     0.272 C 
BRANCH  19  20
HETATM   20  N4  UNL     1      23.691   1.581  51.302  1.00  0.00    -0.372 N 
HETATM   21  H15 UNL     1      23.906   2.052  50.396  1.00  0.00     0.161 HD
BRANCH  20  22
HETATM   22  C14 UNL     1      24.757   1.135  52.098  1.00  0.00     0.031 A 
HETATM   23  C15 UNL     1      26.069   1.371  51.831  1.00  0.00     0.032 A 
HETATM   24  C16 UNL     1      27.128   0.942  52.601  1.00  0.00     0.046 A 
HETATM   25  C17 UNL     1      26.874   0.207  53.750  1.00  0.00     0.138 A 
HETATM   26  F1  UNL     1      27.883  -0.225  54.521  1.00  0.00    -0.204 F 
HETATM   27  C18 UNL     1      25.552  -0.067  54.079  1.00  0.00     0.074 A 
HETATM   28 CL1  UNL     1      25.184  -0.993  55.522  1.00  0.00    -0.081 Cl
HETATM   29  C19 UNL     1      24.545   0.396  53.258  1.00  0.00     0.056 A 
ENDBRANCH  20  22
ENDBRANCH  19  20
ENDBRANCH  18  19
ENDBRANCH  16  17
ENDBRANCH   1  16
TORSDOF 7
ENDMDL
