MODEL 1
REMARK VINA RESULT:      -9.5      0.000      0.000
REMARK  2 active torsions:
REMARK  status: ('A' for Active; 'I' for Inactive)
REMARK    1  A    between atoms: C10_13  and  O1_14 
REMARK    2  A    between atoms: O1_14  and  C11_15 
ROOT
HETATM    1  F1  UNL     1      19.180  -2.211  53.568  1.00  0.00    -0.203 F 
HETATM    2  C1  UNL     1      19.431  -0.924  53.250  1.00  0.00     0.149 A 
HETATM    3  C2  UNL     1      18.735  -0.156  52.338  1.00  0.00     0.075 A 
HETATM    4 CL1  UNL     1      17.400  -0.803  51.470  1.00  0.00    -0.081 Cl
HETATM    5  C3  UNL     1      19.096   1.177  52.091  1.00  0.00     0.058 A 
HETATM    6  C4  UNL     1      20.165   1.521  52.866  1.00  0.00     0.050 A 
HETATM    7  C5  UNL     1      20.995   1.025  53.797  1.00  0.00     0.047 A 
HETATM    8  C6  UNL     1      20.441  -0.210  53.821  1.00  0.00     0.024 A 
HETATM    9  C7  UNL     1      21.446  -0.967  54.550  1.00  0.00     0.132 C 
HETATM   10  N1  UNL     1      22.607  -0.715  54.205  1.00  0.00    -0.258 NA
HETATM   11  C8  UNL     1      23.224   0.132  53.273  1.00  0.00     0.090 A 
HETATM   12  C9  UNL     1      24.543  -0.355  53.341  1.00  0.00     0.073 A 
HETATM   13  C10 UNL     1      25.670   0.121  52.636  1.00  0.00     0.107 A 
HETATM   14  C15 UNL     1      25.429   1.184  51.787  1.00  0.00     0.138 A 
HETATM   15  C16 UNL     1      24.147   1.691  51.692  1.00  0.00     0.135 A 
HETATM   16  C17 UNL     1      23.051   1.216  52.389  1.00  0.00     0.113 A 
HETATM   17  N2  UNL     1      21.992   2.051  51.954  1.00  0.00    -0.295 N 
HETATM   18  N3  UNL     1      20.916   2.719  52.543  1.00  0.00    -0.300 N 
HETATM   19  O3  UNL     1      24.183   2.742  50.786  1.00  0.00    -0.344 OA
HETATM   20  C18 UNL     1      25.301   3.625  50.734  1.00  0.00     0.202 C 
HETATM   21  C19 UNL     1      26.585   2.890  50.540  1.00  0.00     0.202 C 
HETATM   22  O4  UNL     1      26.560   1.607  51.122  1.00  0.00    -0.344 OA
HETATM   23  H12 UNL     1      21.761   2.382  51.007  1.00  0.00     0.187 HD
HETATM   24  H13 UNL     1      20.291   3.415  52.901  1.00  0.00     0.187 HD
ENDROOT
BRANCH  13  25
HETATM   25  O1  UNL     1      26.873  -0.468  52.824  1.00  0.00    -0.341 OA
BRANCH  25  26
HETATM   26  C11 UNL     1      27.698  -0.715  53.860  1.00  0.00     0.154 C 
HETATM   27  C12 UNL     1      28.125   0.649  54.450  1.00  0.00     0.061 C 
HETATM   28  C13 UNL     1      29.361   0.933  53.628  1.00  0.00     0.170 C 
HETATM   29  O2  UNL     1      30.008  -0.320  53.733  1.00  0.00    -0.389 OA
HETATM   30  C14 UNL     1      29.037  -1.226  53.334  1.00  0.00     0.200 C 
ENDBRANCH  25  26
ENDBRANCH  13  25
TORSDOF 2
ENDMDL
MODEL 2
REMARK VINA RESULT:      -9.2      3.829      5.827
REMARK  2 active torsions:
REMARK  status: ('A' for Active; 'I' for Inactive)
REMARK    1  A    between atoms: C10_13  and  O1_14 
REMARK    2  A    between atoms: O1_14  and  C11_15 
ROOT
HETATM    1  F1  UNL     1      26.976   6.816  49.544  1.00  0.00    -0.203 F 
HETATM    2  C1  UNL     1      25.762   6.236  49.652  1.00  0.00     0.149 A 
HETATM    3  C2  UNL     1      24.594   6.852  50.054  1.00  0.00     0.075 A 
HETATM    4 CL1  UNL     1      24.569   8.517  50.477  1.00  0.00    -0.081 Cl
HETATM    5  C3  UNL     1      23.389   6.137  50.129  1.00  0.00     0.058 A 
HETATM    6  C4  UNL     1      23.593   4.841  49.754  1.00  0.00     0.050 A 
HETATM    7  C5  UNL     1      24.552   4.006  49.327  1.00  0.00     0.047 A 
HETATM    8  C6  UNL     1      25.548   4.923  49.360  1.00  0.00     0.024 A 
HETATM    9  C7  UNL     1      26.726   4.080  49.238  1.00  0.00     0.132 C 
HETATM   10  N1  UNL     1      26.680   3.054  49.928  1.00  0.00    -0.258 NA
HETATM   11  C8  UNL     1      25.766   2.476  50.821  1.00  0.00     0.090 A 
HETATM   12  C9  UNL     1      26.567   1.448  51.354  1.00  0.00     0.073 A 
HETATM   13  C10 UNL     1      26.192   0.479  52.310  1.00  0.00     0.107 A 
HETATM   14  C15 UNL     1      24.889   0.568  52.762  1.00  0.00     0.138 A 
HETATM   15  C16 UNL     1      24.072   1.563  52.262  1.00  0.00     0.135 A 
HETATM   16  C17 UNL     1      24.450   2.507  51.325  1.00  0.00     0.113 A 
HETATM   17  N2  UNL     1      23.280   3.288  51.146  1.00  0.00    -0.295 N 
HETATM   18  N3  UNL     1      22.585   3.846  50.072  1.00  0.00    -0.300 N 
HETATM   19  O3  UNL     1      22.832   1.426  52.872  1.00  0.00    -0.344 OA
HETATM   20  C18 UNL     1      22.292   0.135  53.148  1.00  0.00     0.202 C 
HETATM   21  C19 UNL     1      23.227  -0.699  53.958  1.00  0.00     0.202 C 
HETATM   22  O4  UNL     1      24.578  -0.398  53.694  1.00  0.00    -0.344 OA
HETATM   23  H12 UNL     1      22.618   3.650  51.845  1.00  0.00     0.187 HD
HETATM   24  H13 UNL     1      21.905   4.060  49.368  1.00  0.00     0.187 HD
ENDROOT
BRANCH  13  25
HETATM   25  O1  UNL     1      27.094  -0.444  52.713  1.00  0.00    -0.341 OA
BRANCH  25  26
HETATM   26  C11 UNL     1      27.835  -0.683  53.813  1.00  0.00     0.154 C 
HETATM   27  C12 UNL     1      28.219   0.685  54.423  1.00  0.00     0.061 C 
HETATM   28  C13 UNL     1      29.516   0.958  53.698  1.00  0.00     0.170 C 
HETATM   29  O2  UNL     1      30.150  -0.295  53.864  1.00  0.00    -0.389 OA
HETATM   30  C14 UNL     1      29.210  -1.202  53.399  1.00  0.00     0.200 C 
ENDBRANCH  25  26
ENDBRANCH  13  25
TORSDOF 2
ENDMDL
MODEL 3
REMARK VINA RESULT:      -9.0      4.129      7.247
REMARK  2 active torsions:
REMARK  status: ('A' for Active; 'I' for Inactive)
REMARK    1  A    between atoms: C10_13  and  O1_14 
REMARK    2  A    between atoms: O1_14  and  C11_15 
ROOT
HETATM    1  F1  UNL     1      28.268  -0.538  54.919  1.00  0.00    -0.203 F 
HETATM    2  C1  UNL     1      28.057   0.452  54.027  1.00  0.00     0.149 A 
HETATM    3  C2  UNL     1      28.678   1.685  54.011  1.00  0.00     0.075 A 
HETATM    4 CL1  UNL     1      29.852   2.102  55.195  1.00  0.00    -0.081 Cl
HETATM    5  C3  UNL     1      28.370   2.637  53.028  1.00  0.00     0.058 A 
HETATM    6  C4  UNL     1      27.430   2.137  52.175  1.00  0.00     0.050 A 
HETATM    7  C5  UNL     1      26.695   1.039  51.943  1.00  0.00     0.047 A 
HETATM    8  C6  UNL     1      27.172   0.337  52.997  1.00  0.00     0.024 A 
HETATM    9  C7  UNL     1      26.223  -0.762  53.072  1.00  0.00     0.132 C 
HETATM   10  N1  UNL     1      25.044  -0.413  52.923  1.00  0.00    -0.258 NA
HETATM   11  C8  UNL     1      24.367   0.793  52.694  1.00  0.00     0.090 A 
HETATM   12  C9  UNL     1      23.040   0.365  52.889  1.00  0.00     0.073 A 
HETATM   13  C10 UNL     1      21.865   1.138  52.769  1.00  0.00     0.107 A 
HETATM   14  C15 UNL     1      22.062   2.461  52.423  1.00  0.00     0.138 A 
HETATM   15  C16 UNL     1      23.349   2.919  52.222  1.00  0.00     0.135 A 
HETATM   16  C17 UNL     1      24.493   2.152  52.342  1.00  0.00     0.113 A 
HETATM   17  N2  UNL     1      25.538   3.062  52.044  1.00  0.00    -0.295 N 
HETATM   18  N3  UNL     1      26.717   3.046  51.296  1.00  0.00    -0.300 N 
HETATM   19  O3  UNL     1      23.263   4.263  51.885  1.00  0.00    -0.344 OA
HETATM   20  C18 UNL     1      22.203   4.744  51.062  1.00  0.00     0.202 C 
HETATM   21  C19 UNL     1      20.862   4.387  51.613  1.00  0.00     0.202 C 
HETATM   22  O4  UNL     1      20.883   3.170  52.322  1.00  0.00    -0.344 OA
HETATM   23  H12 UNL     1      25.668   4.037  52.346  1.00  0.00     0.187 HD
HETATM   24  H13 UNL     1      27.423   3.203  50.603  1.00  0.00     0.187 HD
ENDROOT
BRANCH  13  25
HETATM   25  O1  UNL     1      20.662   0.562  52.993  1.00  0.00    -0.341 OA
BRANCH  25  26
HETATM   26  C11 UNL     1      19.893  -0.374  52.403  1.00  0.00     0.154 C 
HETATM   27  C12 UNL     1      19.261   0.267  51.145  1.00  0.00     0.061 C 
HETATM   28  C13 UNL     1      17.991   0.836  51.733  1.00  0.00     0.170 C 
HETATM   29  O2  UNL     1      17.549  -0.285  52.474  1.00  0.00    -0.389 OA
HETATM   30  C14 UNL     1      18.648  -0.618  53.251  1.00  0.00     0.200 C 
ENDBRANCH  25  26
ENDBRANCH  13  25
TORSDOF 2
ENDMDL
MODEL 4
REMARK VINA RESULT:      -8.6      4.741      7.053
REMARK  2 active torsions:
REMARK  status: ('A' for Active; 'I' for Inactive)
REMARK    1  A    between atoms: C10_13  and  O1_14 
REMARK    2  A    between atoms: O1_14  and  C11_15 
ROOT
HETATM    1  F1  UNL     1      28.504   7.609  48.942  1.00  0.00    -0.203 F 
HETATM    2  C1  UNL     1      27.174   7.385  48.992  1.00  0.00     0.149 A 
HETATM    3  C2  UNL     1      26.205   8.298  49.357  1.00  0.00     0.075 A 
HETATM    4 CL1  UNL     1      26.621   9.903  49.806  1.00  0.00    -0.081 Cl
HETATM    5  C3  UNL     1      24.847   7.942  49.373  1.00  0.00     0.058 A 
HETATM    6  C4  UNL     1      24.702   6.642  48.986  1.00  0.00     0.050 A 
HETATM    7  C5  UNL     1      25.412   5.576  48.584  1.00  0.00     0.047 A 
HETATM    8  C6  UNL     1      26.619   6.183  48.672  1.00  0.00     0.024 A 
HETATM    9  C7  UNL     1      27.525   5.049  48.582  1.00  0.00     0.132 C 
HETATM   10  N1  UNL     1      27.168   4.072  49.254  1.00  0.00    -0.258 NA
HETATM   11  C8  UNL     1      26.093   3.764  50.100  1.00  0.00     0.090 A 
HETATM   12  C9  UNL     1      26.557   2.554  50.648  1.00  0.00     0.073 A 
HETATM   13  C10 UNL     1      25.889   1.721  51.573  1.00  0.00     0.107 A 
HETATM   14  C15 UNL     1      24.644   2.164  51.974  1.00  0.00     0.138 A 
HETATM   15  C16 UNL     1      24.153   3.348  51.458  1.00  0.00     0.135 A 
HETATM   16  C17 UNL     1      24.817   4.155  50.552  1.00  0.00     0.113 A 
HETATM   17  N2  UNL     1      23.915   5.229  50.340  1.00  0.00    -0.295 N 
HETATM   18  N3  UNL     1      23.448   5.962  49.248  1.00  0.00    -0.300 N 
HETATM   19  O3  UNL     1      22.899   3.554  52.016  1.00  0.00    -0.344 OA
HETATM   20  C18 UNL     1      22.013   2.462  52.250  1.00  0.00     0.202 C 
HETATM   21  C19 UNL     1      22.647   1.398  53.082  1.00  0.00     0.202 C 
HETATM   22  O4  UNL     1      24.039   1.316  52.877  1.00  0.00    -0.344 OA
HETATM   23  H12 UNL     1      23.349   5.756  51.017  1.00  0.00     0.187 HD
HETATM   24  H13 UNL     1      22.884   6.358  48.521  1.00  0.00     0.187 HD
ENDROOT
BRANCH  13  25
HETATM   25  O1  UNL     1      26.485   0.584  51.997  1.00  0.00    -0.341 OA
BRANCH  25  26
HETATM   26  C11 UNL     1      27.554   0.251  52.746  1.00  0.00     0.154 C 
HETATM   27  C12 UNL     1      27.082  -0.775  53.802  1.00  0.00     0.061 C 
HETATM   28  C13 UNL     1      26.674   0.150  54.925  1.00  0.00     0.170 C 
HETATM   29  O2  UNL     1      27.806   0.998  54.957  1.00  0.00    -0.389 OA
HETATM   30  C14 UNL     1      27.933   1.425  53.644  1.00  0.00     0.200 C 
ENDBRANCH  25  26
ENDBRANCH  13  25
TORSDOF 2
ENDMDL
MODEL 5
REMARK VINA RESULT:      -8.5      3.866      6.090
REMARK  2 active torsions:
REMARK  status: ('A' for Active; 'I' for Inactive)
REMARK    1  A    between atoms: C10_13  and  O1_14 
REMARK    2  A    between atoms: O1_14  and  C11_15 
ROOT
HETATM    1  F1  UNL     1      20.748   5.567  48.538  1.00  0.00    -0.203 F 
HETATM    2  C1  UNL     1      22.039   5.769  48.878  1.00  0.00     0.149 A 
HETATM    3  C2  UNL     1      23.067   6.103  48.020  1.00  0.00     0.075 A 
HETATM    4 CL1  UNL     1      22.788   6.309  46.337  1.00  0.00    -0.081 Cl
HETATM    5  C3  UNL     1      24.375   6.284  48.496  1.00  0.00     0.058 A 
HETATM    6  C4  UNL     1      24.410   6.087  49.846  1.00  0.00     0.050 A 
HETATM    7  C5  UNL     1      23.620   5.785  50.888  1.00  0.00     0.047 A 
HETATM    8  C6  UNL     1      22.485   5.663  50.160  1.00  0.00     0.024 A 
HETATM    9  C7  UNL     1      21.597   5.011  51.110  1.00  0.00     0.132 C 
HETATM   10  N1  UNL     1      22.135   4.097  51.749  1.00  0.00    -0.258 NA
HETATM   11  C8  UNL     1      23.408   3.511  51.800  1.00  0.00     0.090 A 
HETATM   12  C9  UNL     1      23.125   2.391  52.603  1.00  0.00     0.073 A 
HETATM   13  C10 UNL     1      24.032   1.402  53.044  1.00  0.00     0.107 A 
HETATM   14  C15 UNL     1      25.338   1.571  52.626  1.00  0.00     0.138 A 
HETATM   15  C16 UNL     1      25.656   2.659  51.837  1.00  0.00     0.135 A 
HETATM   16  C17 UNL     1      24.758   3.622  51.412  1.00  0.00     0.113 A 
HETATM   17  N2  UNL     1      25.557   4.506  50.643  1.00  0.00    -0.295 N 
HETATM   18  N3  UNL     1      25.691   5.888  50.498  1.00  0.00    -0.300 N 
HETATM   19  O3  UNL     1      27.016   2.592  51.567  1.00  0.00    -0.344 OA
HETATM   20  C18 UNL     1      27.937   2.142  52.558  1.00  0.00     0.202 C 
HETATM   21  C19 UNL     1      27.571   0.796  53.089  1.00  0.00     0.202 C 
HETATM   22  O4  UNL     1      26.179   0.578  53.082  1.00  0.00    -0.344 OA
HETATM   23  H12 UNL     1      26.290   4.298  49.952  1.00  0.00     0.187 HD
HETATM   24  H13 UNL     1      26.023   6.833  50.515  1.00  0.00     0.187 HD
ENDROOT
BRANCH  13  25
HETATM   25  O1  UNL     1      23.587   0.386  53.817  1.00  0.00    -0.341 OA
BRANCH  25  26
HETATM   26  C11 UNL     1      23.085  -0.850  53.629  1.00  0.00     0.154 C 
HETATM   27  C12 UNL     1      21.713  -0.694  52.932  1.00  0.00     0.061 C 
HETATM   28  C13 UNL     1      20.803  -0.587  54.133  1.00  0.00     0.170 C 
HETATM   29  O2  UNL     1      21.290  -1.672  54.898  1.00  0.00    -0.389 OA
HETATM   30  C14 UNL     1      22.654  -1.435  54.970  1.00  0.00     0.200 C 
ENDBRANCH  25  26
ENDBRANCH  13  25
TORSDOF 2
ENDMDL
MODEL 6
REMARK VINA RESULT:      -8.5      4.088      7.371
REMARK  2 active torsions:
REMARK  status: ('A' for Active; 'I' for Inactive)
REMARK    1  A    between atoms: C10_13  and  O1_14 
REMARK    2  A    between atoms: O1_14  and  C11_15 
ROOT
HETATM    1  F1  UNL     1      26.182  -0.711  54.705  1.00  0.00    -0.203 F 
HETATM    2  C1  UNL     1      26.491   0.246  53.805  1.00  0.00     0.149 A 
HETATM    3  C2  UNL     1      27.592   1.078  53.842  1.00  0.00     0.075 A 
HETATM    4 CL1  UNL     1      28.746   0.967  55.110  1.00  0.00    -0.081 Cl
HETATM    5  C3  UNL     1      27.803   2.041  52.843  1.00  0.00     0.058 A 
HETATM    6  C4  UNL     1      26.799   1.983  51.921  1.00  0.00     0.050 A 
HETATM    7  C5  UNL     1      25.672   1.315  51.631  1.00  0.00     0.047 A 
HETATM    8  C6  UNL     1      25.718   0.504  52.714  1.00  0.00     0.024 A 
HETATM    9  C7  UNL     1      24.378  -0.062  52.714  1.00  0.00     0.132 C 
HETATM   10  N1  UNL     1      23.488   0.766  52.481  1.00  0.00    -0.258 NA
HETATM   11  C8  UNL     1      23.430   2.140  52.210  1.00  0.00     0.090 A 
HETATM   12  C9  UNL     1      22.041   2.347  52.306  1.00  0.00     0.073 A 
HETATM   13  C10 UNL     1      21.338   3.555  52.104  1.00  0.00     0.107 A 
HETATM   14  C15 UNL     1      22.122   4.646  51.780  1.00  0.00     0.138 A 
HETATM   15  C16 UNL     1      23.489   4.484  51.676  1.00  0.00     0.135 A 
HETATM   16  C17 UNL     1      24.166   3.295  51.875  1.00  0.00     0.113 A 
HETATM   17  N2  UNL     1      25.523   3.643  51.658  1.00  0.00    -0.295 N 
HETATM   18  N3  UNL     1      26.622   3.089  50.998  1.00  0.00    -0.300 N 
HETATM   19  O3  UNL     1      24.028   5.718  51.340  1.00  0.00    -0.344 OA
HETATM   20  C18 UNL     1      23.348   6.595  50.445  1.00  0.00     0.202 C 
HETATM   21  C19 UNL     1      21.954   6.880  50.895  1.00  0.00     0.202 C 
HETATM   22  O4  UNL     1      21.387   5.798  51.598  1.00  0.00    -0.344 OA
HETATM   23  H12 UNL     1      26.049   4.469  51.974  1.00  0.00     0.187 HD
HETATM   24  H13 UNL     1      27.370   2.899  50.359  1.00  0.00     0.187 HD
ENDROOT
BRANCH  13  25
HETATM   25  O1  UNL     1      19.993   3.574  52.237  1.00  0.00    -0.341 OA
BRANCH  25  26
HETATM   26  C11 UNL     1      18.933   3.032  51.606  1.00  0.00     0.154 C 
HETATM   27  C12 UNL     1      19.261   2.989  50.095  1.00  0.00     0.061 C 
HETATM   28  C13 UNL     1      18.737   4.338  49.660  1.00  0.00     0.170 C 
HETATM   29  O2  UNL     1      17.472   4.317  50.294  1.00  0.00    -0.389 OA
HETATM   30  C14 UNL     1      17.772   4.023  51.615  1.00  0.00     0.200 C 
ENDBRANCH  25  26
ENDBRANCH  13  25
TORSDOF 2
ENDMDL
MODEL 7
REMARK VINA RESULT:      -7.9      4.311      6.882
REMARK  2 active torsions:
REMARK  status: ('A' for Active; 'I' for Inactive)
REMARK    1  A    between atoms: C10_13  and  O1_14 
REMARK    2  A    between atoms: O1_14  and  C11_15 
ROOT
HETATM    1  F1  UNL     1      29.467  -0.115  52.704  1.00  0.00    -0.203 F 
HETATM    2  C1  UNL     1      28.146  -0.198  52.969  1.00  0.00     0.149 A 
HETATM    3  C2  UNL     1      27.412  -1.359  53.111  1.00  0.00     0.075 A 
HETATM    4 CL1  UNL     1      28.153  -2.901  52.958  1.00  0.00    -0.081 Cl
HETATM    5  C3  UNL     1      26.036  -1.315  53.384  1.00  0.00     0.058 A 
HETATM    6  C4  UNL     1      25.622  -0.017  53.477  1.00  0.00     0.050 A 
HETATM    7  C5  UNL     1      26.078   1.242  53.404  1.00  0.00     0.047 A 
HETATM    8  C6  UNL     1      27.360   0.902  53.135  1.00  0.00     0.024 A 
HETATM    9  C7  UNL     1      27.916   2.174  52.701  1.00  0.00     0.132 C 
HETATM   10  N1  UNL     1      27.174   2.809  51.942  1.00  0.00    -0.258 NA
HETATM   11  C8  UNL     1      25.906   2.621  51.375  1.00  0.00     0.090 A 
HETATM   12  C9  UNL     1      25.894   3.682  50.451  1.00  0.00     0.073 A 
HETATM   13  C10 UNL     1      24.847   4.043  49.574  1.00  0.00     0.107 A 
HETATM   14  C15 UNL     1      23.717   3.252  49.647  1.00  0.00     0.138 A 
HETATM   15  C16 UNL     1      23.689   2.201  50.543  1.00  0.00     0.135 A 
HETATM   16  C17 UNL     1      24.721   1.857  51.397  1.00  0.00     0.113 A 
HETATM   17  N2  UNL     1      24.215   0.732  52.096  1.00  0.00    -0.295 N 
HETATM   18  N3  UNL     1      24.202   0.277  53.416  1.00  0.00    -0.300 N 
HETATM   19  O3  UNL     1      22.454   1.582  50.416  1.00  0.00    -0.344 OA
HETATM   20  C18 UNL     1      21.272   2.345  50.182  1.00  0.00     0.202 C 
HETATM   21  C19 UNL     1      21.403   3.220  48.980  1.00  0.00     0.202 C 
HETATM   22  O4  UNL     1      22.730   3.647  48.770  1.00  0.00    -0.344 OA
HETATM   23  H12 UNL     1      23.689  -0.079  51.744  1.00  0.00     0.187 HD
HETATM   24  H13 UNL     1      23.932   0.007  54.342  1.00  0.00     0.187 HD
ENDROOT
BRANCH  13  25
HETATM   25  O1  UNL     1      25.006   5.100  48.747  1.00  0.00    -0.341 OA
BRANCH  25  26
HETATM   26  C11 UNL     1      24.579   6.377  48.685  1.00  0.00     0.154 C 
HETATM   27  C12 UNL     1      25.823   7.275  48.488  1.00  0.00     0.061 C 
HETATM   28  C13 UNL     1      26.198   7.547  49.926  1.00  0.00     0.170 C 
HETATM   29  O2  UNL     1      24.927   7.893  50.442  1.00  0.00    -0.389 OA
HETATM   30  C14 UNL     1      24.121   6.829  50.069  1.00  0.00     0.200 C 
ENDBRANCH  25  26
ENDBRANCH  13  25
TORSDOF 2
ENDMDL
MODEL 8
REMARK VINA RESULT:      -7.7      7.512      8.971
REMARK  2 active torsions:
REMARK  status: ('A' for Active; 'I' for Inactive)
REMARK    1  A    between atoms: C10_13  and  O1_14 
REMARK    2  A    between atoms: O1_14  and  C11_15 
ROOT
HETATM    1  F1  UNL     1      23.214   4.970  47.903  1.00  0.00    -0.203 F 
HETATM    2  C1  UNL     1      23.739   6.026  48.558  1.00  0.00     0.149 A 
HETATM    3  C2  UNL     1      23.219   7.304  48.599  1.00  0.00     0.075 A 
HETATM    4 CL1  UNL     1      21.765   7.697  47.773  1.00  0.00    -0.081 Cl
HETATM    5  C3  UNL     1      23.863   8.324  49.318  1.00  0.00     0.058 A 
HETATM    6  C4  UNL     1      24.990   7.834  49.911  1.00  0.00     0.050 A 
HETATM    7  C5  UNL     1      25.701   6.705  50.053  1.00  0.00     0.047 A 
HETATM    8  C6  UNL     1      24.888   5.941  49.286  1.00  0.00     0.024 A 
HETATM    9  C7  UNL     1      25.710   4.760  49.074  1.00  0.00     0.132 C 
HETATM   10  N1  UNL     1      26.894   5.015  48.823  1.00  0.00    -0.258 NA
HETATM   11  C8  UNL     1      27.672   6.173  48.684  1.00  0.00     0.090 A 
HETATM   12  C9  UNL     1      28.852   5.611  48.162  1.00  0.00     0.073 A 
HETATM   13  C10 UNL     1      30.048   6.284  47.829  1.00  0.00     0.107 A 
HETATM   14  C15 UNL     1      30.037   7.648  48.046  1.00  0.00     0.138 A 
HETATM   15  C16 UNL     1      28.898   8.238  48.558  1.00  0.00     0.135 A 
HETATM   16  C17 UNL     1      27.733   7.568  48.881  1.00  0.00     0.113 A 
HETATM   17  N2  UNL     1      26.878   8.595  49.356  1.00  0.00    -0.295 N 
HETATM   18  N3  UNL     1      25.984   8.764  50.415  1.00  0.00    -0.300 N 
HETATM   19  O3  UNL     1      29.155   9.597  48.680  1.00  0.00    -0.344 OA
HETATM   20  C18 UNL     1      30.439  10.066  49.084  1.00  0.00     0.202 C 
HETATM   21  C19 UNL     1      31.527   9.534  48.212  1.00  0.00     0.202 C 
HETATM   22  O4  UNL     1      31.226   8.255  47.702  1.00  0.00    -0.344 OA
HETATM   23  H12 UNL     1      26.715   9.540  48.984  1.00  0.00     0.187 HD
HETATM   24  H13 UNL     1      25.531   9.056  51.260  1.00  0.00     0.187 HD
ENDROOT
BRANCH  13  25
HETATM   25  O1  UNL     1      31.093   5.582  47.335  1.00  0.00    -0.341 OA
BRANCH  25  26
HETATM   26  C11 UNL     1      31.938   4.630  47.777  1.00  0.00     0.154 C 
HETATM   27  C12 UNL     1      33.372   5.200  47.683  1.00  0.00     0.061 C 
HETATM   28  C13 UNL     1      33.746   4.778  46.281  1.00  0.00     0.170 C 
HETATM   29  O2  UNL     1      33.330   3.427  46.321  1.00  0.00    -0.389 OA
HETATM   30  C14 UNL     1      32.015   3.501  46.753  1.00  0.00     0.200 C 
ENDBRANCH  25  26
ENDBRANCH  13  25
TORSDOF 2
ENDMDL
MODEL 9
REMARK VINA RESULT:      -7.7      6.333      8.038
REMARK  2 active torsions:
REMARK  status: ('A' for Active; 'I' for Inactive)
REMARK    1  A    between atoms: C10_13  and  O1_14 
REMARK    2  A    between atoms: O1_14  and  C11_15 
ROOT
HETATM    1  F1  UNL     1      23.567   2.790  48.407  1.00  0.00    -0.203 F 
HETATM    2  C1  UNL     1      23.683   3.946  49.092  1.00  0.00     0.149 A 
HETATM    3  C2  UNL     1      22.693   4.890  49.277  1.00  0.00     0.075 A 
HETATM    4 CL1  UNL     1      21.122   4.669  48.617  1.00  0.00    -0.081 Cl
HETATM    5  C3  UNL     1      22.939   6.060  50.012  1.00  0.00     0.058 A 
HETATM    6  C4  UNL     1      24.227   6.065  50.462  1.00  0.00     0.050 A 
HETATM    7  C5  UNL     1      25.349   5.330  50.453  1.00  0.00     0.047 A 
HETATM    8  C6  UNL     1      24.840   4.323  49.705  1.00  0.00     0.024 A 
HETATM    9  C7  UNL     1      26.044   3.598  49.330  1.00  0.00     0.132 C 
HETATM   10  N1  UNL     1      26.982   4.331  48.994  1.00  0.00    -0.258 NA
HETATM   11  C8  UNL     1      27.196   5.712  48.876  1.00  0.00     0.090 A 
HETATM   12  C9  UNL     1      28.435   5.709  48.208  1.00  0.00     0.073 A 
HETATM   13  C10 UNL     1      29.204   6.829  47.822  1.00  0.00     0.107 A 
HETATM   14  C15 UNL     1      28.659   8.057  48.143  1.00  0.00     0.138 A 
HETATM   15  C16 UNL     1      27.444   8.102  48.800  1.00  0.00     0.135 A 
HETATM   16  C17 UNL     1      26.701   6.998  49.173  1.00  0.00     0.113 A 
HETATM   17  N2  UNL     1      25.561   7.560  49.801  1.00  0.00    -0.295 N 
HETATM   18  N3  UNL     1      24.802   7.307  50.945  1.00  0.00    -0.300 N 
HETATM   19  O3  UNL     1      27.133   9.440  49.002  1.00  0.00    -0.344 OA
HETATM   20  C18 UNL     1      28.149  10.387  49.324  1.00  0.00     0.202 C 
HETATM   21  C19 UNL     1      29.253  10.385  48.320  1.00  0.00     0.202 C 
HETATM   22  O4  UNL     1      29.447   9.114  47.742  1.00  0.00    -0.344 OA
HETATM   23  H12 UNL     1      24.983   8.363  49.519  1.00  0.00     0.187 HD
HETATM   24  H13 UNL     1      24.369   7.356  51.847  1.00  0.00     0.187 HD
ENDROOT
BRANCH  13  25
HETATM   25  O1  UNL     1      30.381   6.642  47.184  1.00  0.00    -0.341 OA
BRANCH  25  26
HETATM   26  C11 UNL     1      31.659   6.390  47.528  1.00  0.00     0.154 C 
HETATM   27  C12 UNL     1      32.214   5.349  46.527  1.00  0.00     0.061 C 
HETATM   28  C13 UNL     1      31.848   4.064  47.233  1.00  0.00     0.170 C 
HETATM   29  O2  UNL     1      32.302   4.370  48.536  1.00  0.00    -0.389 OA
HETATM   30  C14 UNL     1      31.689   5.581  48.821  1.00  0.00     0.200 C 
ENDBRANCH  25  26
ENDBRANCH  13  25
TORSDOF 2
ENDMDL
