MODEL 1
REMARK VINA RESULT:      -7.9      0.000      0.000
REMARK  3 active torsions:
REMARK  status: ('A' for Active; 'I' for Inactive)
REMARK    1  A    between atoms: O1_2  and  C2_3 
REMARK    2  A    between atoms: C6_7  and  N1_8 
REMARK    3  A    between atoms: C15_20  and  O2_21 
ROOT
HETATM    1  C2  UNL     1      21.034   0.624  52.551  1.00  0.00     0.111 A 
HETATM    2  C3  UNL     1      22.375   0.667  52.524  1.00  0.00    -0.009 A 
HETATM    3  C4  UNL     1      23.271   1.406  51.608  1.00  0.00     0.052 C 
HETATM    4  C5  UNL     1      22.872  -0.183  53.603  1.00  0.00     0.054 A 
HETATM    5  C6  UNL     1      23.868  -0.718  54.296  1.00  0.00     0.165 A 
HETATM    6  N2  UNL     1      23.369  -1.559  55.347  1.00  0.00    -0.130 NA
HETATM    7  N3  UNL     1      22.085  -1.561  55.325  1.00  0.00    -0.144 NA
HETATM    8  C14 UNL     1      21.669  -0.719  54.256  1.00  0.00     0.130 A 
HETATM    9  C15 UNL     1      20.604  -0.241  53.632  1.00  0.00     0.133 A 
ENDROOT
BRANCH   5  10
HETATM   10  N1  UNL     1      25.232  -0.452  53.987  1.00  0.00    -0.336 N 
HETATM   11  C7  UNL     1      25.691  -0.817  52.687  1.00  0.00     0.090 C 
HETATM   12  C8  UNL     1      26.717  -0.334  52.003  1.00  0.00     0.000 C 
HETATM   13  C9  UNL     1      27.670   0.731  52.423  1.00  0.00     0.050 C 
HETATM   14  C10 UNL     1      27.025   2.068  52.621  1.00  0.00     0.020 C 
HETATM   15  C11 UNL     1      28.207   0.308  53.767  1.00  0.00     0.017 C 
HETATM   16 CL1  UNL     1      29.939   0.105  53.866  1.00  0.00    -0.088 Cl
HETATM   17  C12 UNL     1      27.448   0.091  54.836  1.00  0.00     0.013 C 
HETATM   18  C13 UNL     1      25.999   0.174  55.065  1.00  0.00     0.158 C 
ENDBRANCH   5  10
BRANCH   1  19
HETATM   19  O1  UNL     1      20.285   1.352  51.620  1.00  0.00    -0.352 OA
HETATM   20  C1  UNL     1      19.695   2.585  52.033  1.00  0.00     0.210 C 
ENDBRANCH   1  19
BRANCH   9  21
HETATM   21  O2  UNL     1      19.255  -0.458  53.881  1.00  0.00    -0.351 OA
HETATM   22  C16 UNL     1      18.372  -1.052  52.967  1.00  0.00     0.210 C 
ENDBRANCH   9  21
TORSDOF 3
ENDMDL
MODEL 2
REMARK VINA RESULT:      -7.1      2.119      3.382
REMARK  3 active torsions:
REMARK  status: ('A' for Active; 'I' for Inactive)
REMARK    1  A    between atoms: O1_2  and  C2_3 
REMARK    2  A    between atoms: C6_7  and  N1_8 
REMARK    3  A    between atoms: C15_20  and  O2_21 
ROOT
HETATM    1  C2  UNL     1      20.771   1.262  52.649  1.00  0.00     0.111 A 
HETATM    2  C3  UNL     1      22.046   0.890  52.844  1.00  0.00    -0.009 A 
HETATM    3  C4  UNL     1      22.599  -0.457  53.105  1.00  0.00     0.052 C 
HETATM    4  C5  UNL     1      22.880   2.086  52.759  1.00  0.00     0.054 A 
HETATM    5  C6  UNL     1      24.064   2.683  52.800  1.00  0.00     0.165 A 
HETATM    6  N2  UNL     1      23.936   4.094  52.576  1.00  0.00    -0.130 NA
HETATM    7  N3  UNL     1      22.699   4.392  52.396  1.00  0.00    -0.144 NA
HETATM    8  C14 UNL     1      21.945   3.189  52.492  1.00  0.00     0.130 A 
HETATM    9  C15 UNL     1      20.719   2.695  52.431  1.00  0.00     0.133 A 
ENDROOT
BRANCH   5  10
HETATM   10  N1  UNL     1      25.266   1.959  53.040  1.00  0.00    -0.336 N 
HETATM   11  C7  UNL     1      25.341   1.194  54.240  1.00  0.00     0.090 C 
HETATM   12  C8  UNL     1      26.103   0.145  54.510  1.00  0.00     0.000 C 
HETATM   13  C9  UNL     1      27.092  -0.515  53.614  1.00  0.00     0.050 C 
HETATM   14  C10 UNL     1      26.480  -1.130  52.394  1.00  0.00     0.020 C 
HETATM   15  C11 UNL     1      28.015   0.576  53.131  1.00  0.00     0.017 C 
HETATM   16 CL1  UNL     1      29.707   0.365  53.508  1.00  0.00    -0.088 Cl
HETATM   17  C12 UNL     1      27.610   1.647  52.458  1.00  0.00     0.013 C 
HETATM   18  C13 UNL     1      26.289   2.099  52.000  1.00  0.00     0.158 C 
ENDBRANCH   5  10
BRANCH   1  19
HETATM   19  O1  UNL     1      19.745   0.312  52.678  1.00  0.00    -0.352 OA
HETATM   20  C1  UNL     1      19.008   0.068  51.479  1.00  0.00     0.210 C 
ENDBRANCH   1  19
BRANCH   9  21
HETATM   21  O2  UNL     1      19.510   3.339  52.202  1.00  0.00    -0.351 OA
HETATM   22  C16 UNL     1      19.141   3.905  50.973  1.00  0.00     0.210 C 
ENDBRANCH   9  21
TORSDOF 3
ENDMDL
MODEL 3
REMARK VINA RESULT:      -7.1      4.248      7.245
REMARK  3 active torsions:
REMARK  status: ('A' for Active; 'I' for Inactive)
REMARK    1  A    between atoms: O1_2  and  C2_3 
REMARK    2  A    between atoms: C6_7  and  N1_8 
REMARK    3  A    between atoms: C15_20  and  O2_21 
ROOT
HETATM    1  C2  UNL     1      26.067   0.685  53.012  1.00  0.00     0.111 A 
HETATM    2  C3  UNL     1      24.738   0.655  52.823  1.00  0.00    -0.009 A 
HETATM    3  C4  UNL     1      23.747  -0.337  53.294  1.00  0.00     0.052 C 
HETATM    4  C5  UNL     1      24.372   1.823  52.026  1.00  0.00     0.054 A 
HETATM    5  C6  UNL     1      23.467   2.573  51.410  1.00  0.00     0.165 A 
HETATM    6  N2  UNL     1      24.081   3.710  50.788  1.00  0.00    -0.130 NA
HETATM    7  N3  UNL     1      25.348   3.688  51.001  1.00  0.00    -0.144 NA
HETATM    8  C14 UNL     1      25.635   2.530  51.777  1.00  0.00     0.130 A 
HETATM    9  C15 UNL     1      26.616   1.857  52.357  1.00  0.00     0.133 A 
ENDROOT
BRANCH   5  10
HETATM   10  N1  UNL     1      22.084   2.236  51.406  1.00  0.00    -0.336 N 
HETATM   11  C7  UNL     1      21.674   1.163  50.561  1.00  0.00     0.090 C 
HETATM   12  C8  UNL     1      20.604   0.389  50.661  1.00  0.00     0.000 C 
HETATM   13  C9  UNL     1      19.538   0.441  51.699  1.00  0.00     0.050 C 
HETATM   14  C10 UNL     1      20.031   0.135  53.080  1.00  0.00     0.020 C 
HETATM   15  C11 UNL     1      19.044   1.866  51.723  1.00  0.00     0.017 C 
HETATM   16 CL1  UNL     1      17.345   2.088  51.388  1.00  0.00    -0.088 Cl
HETATM   17  C12 UNL     1      19.817   2.916  51.978  1.00  0.00     0.013 C 
HETATM   18  C13 UNL     1      21.247   3.052  52.288  1.00  0.00     0.158 C 
ENDBRANCH   5  10
BRANCH   1  19
HETATM   19  O1  UNL     1      26.699  -0.322  53.748  1.00  0.00    -0.352 OA
HETATM   20  C1  UNL     1      27.478  -1.292  53.047  1.00  0.00     0.210 C 
ENDBRANCH   1  19
BRANCH   9  21
HETATM   21  O2  UNL     1      27.978   2.127  52.401  1.00  0.00    -0.351 OA
HETATM   22  C16 UNL     1      28.679   2.449  53.572  1.00  0.00     0.210 C 
ENDBRANCH   9  21
TORSDOF 3
ENDMDL
MODEL 4
REMARK VINA RESULT:      -7.0      4.155      6.680
REMARK  3 active torsions:
REMARK  status: ('A' for Active; 'I' for Inactive)
REMARK    1  A    between atoms: O1_2  and  C2_3 
REMARK    2  A    between atoms: C6_7  and  N1_8 
REMARK    3  A    between atoms: C15_20  and  O2_21 
ROOT
HETATM    1  C2  UNL     1      25.723  -0.319  54.111  1.00  0.00     0.111 A 
HETATM    2  C3  UNL     1      24.877   0.445  53.402  1.00  0.00    -0.009 A 
HETATM    3  C4  UNL     1      23.401   0.390  53.330  1.00  0.00     0.052 C 
HETATM    4  C5  UNL     1      25.671   1.414  52.650  1.00  0.00     0.054 A 
HETATM    5  C6  UNL     1      25.769   2.430  51.804  1.00  0.00     0.165 A 
HETATM    6  N2  UNL     1      27.140   2.801  51.602  1.00  0.00    -0.130 NA
HETATM    7  N3  UNL     1      27.901   2.039  52.303  1.00  0.00    -0.144 NA
HETATM    8  C14 UNL     1      27.068   1.124  53.005  1.00  0.00     0.130 A 
HETATM    9  C15 UNL     1      27.084   0.111  53.857  1.00  0.00     0.133 A 
ENDROOT
BRANCH   5  10
HETATM   10  N1  UNL     1      24.622   3.030  51.209  1.00  0.00    -0.336 N 
HETATM   11  C7  UNL     1      24.462   2.880  49.801  1.00  0.00     0.090 C 
HETATM   12  C8  UNL     1      23.354   2.947  49.079  1.00  0.00     0.000 C 
HETATM   13  C9  UNL     1      21.968   3.200  49.562  1.00  0.00     0.050 C 
HETATM   14  C10 UNL     1      21.446   2.132  50.474  1.00  0.00     0.020 C 
HETATM   15  C11 UNL     1      22.032   4.468  50.376  1.00  0.00     0.017 C 
HETATM   16 CL1  UNL     1      21.014   5.777  49.827  1.00  0.00    -0.088 Cl
HETATM   17  C12 UNL     1      22.799   4.625  51.449  1.00  0.00     0.013 C 
HETATM   18  C13 UNL     1      23.741   3.736  52.142  1.00  0.00     0.158 C 
ENDBRANCH   5  10
BRANCH   1  19
HETATM   19  O1  UNL     1      25.234  -1.341  54.930  1.00  0.00    -0.352 OA
HETATM   20  C1  UNL     1      24.981  -1.051  56.306  1.00  0.00     0.210 C 
ENDBRANCH   1  19
BRANCH   9  21
HETATM   21  O2  UNL     1      28.159  -0.518  54.471  1.00  0.00    -0.351 OA
HETATM   22  C16 UNL     1      29.346  -0.871  53.813  1.00  0.00     0.210 C 
ENDBRANCH   9  21
TORSDOF 3
ENDMDL
MODEL 5
REMARK VINA RESULT:      -7.0      4.242      6.131
REMARK  3 active torsions:
REMARK  status: ('A' for Active; 'I' for Inactive)
REMARK    1  A    between atoms: O1_2  and  C2_3 
REMARK    2  A    between atoms: C6_7  and  N1_8 
REMARK    3  A    between atoms: C15_20  and  O2_21 
ROOT
HETATM    1  C2  UNL     1      26.283   0.231  53.222  1.00  0.00     0.111 A 
HETATM    2  C3  UNL     1      25.982   1.218  52.363  1.00  0.00    -0.009 A 
HETATM    3  C4  UNL     1      26.882   2.021  51.507  1.00  0.00     0.052 C 
HETATM    4  C5  UNL     1      24.534   1.409  52.390  1.00  0.00     0.054 A 
HETATM    5  C6  UNL     1      23.436   2.028  51.979  1.00  0.00     0.165 A 
HETATM    6  N2  UNL     1      22.272   1.495  52.626  1.00  0.00    -0.130 NA
HETATM    7  N3  UNL     1      22.619   0.556  53.432  1.00  0.00    -0.144 NA
HETATM    8  C14 UNL     1      24.033   0.423  53.358  1.00  0.00     0.130 A 
HETATM    9  C15 UNL     1      25.063  -0.257  53.836  1.00  0.00     0.133 A 
ENDROOT
BRANCH   5  10
HETATM   10  N1  UNL     1      23.476   3.078  51.017  1.00  0.00    -0.336 N 
HETATM   11  C7  UNL     1      23.569   4.413  51.509  1.00  0.00     0.090 C 
HETATM   12  C8  UNL     1      24.030   5.493  50.897  1.00  0.00     0.000 C 
HETATM   13  C9  UNL     1      24.580   5.592  49.517  1.00  0.00     0.050 C 
HETATM   14  C10 UNL     1      25.835   4.800  49.313  1.00  0.00     0.020 C 
HETATM   15  C11 UNL     1      23.538   4.991  48.606  1.00  0.00     0.017 C 
HETATM   16 CL1  UNL     1      22.913   6.047  47.364  1.00  0.00    -0.088 Cl
HETATM   17  C12 UNL     1      23.095   3.742  48.706  1.00  0.00     0.013 C 
HETATM   18  C13 UNL     1      23.416   2.639  49.621  1.00  0.00     0.158 C 
ENDBRANCH   5  10
BRANCH   1  19
HETATM   19  O1  UNL     1      27.611  -0.169  53.402  1.00  0.00    -0.352 OA
HETATM   20  C1  UNL     1      28.272   0.189  54.617  1.00  0.00     0.210 C 
ENDBRANCH   1  19
BRANCH   9  21
HETATM   21  O2  UNL     1      25.095  -1.286  54.768  1.00  0.00    -0.351 OA
HETATM   22  C16 UNL     1      24.464  -1.233  56.020  1.00  0.00     0.210 C 
ENDBRANCH   9  21
TORSDOF 3
ENDMDL
MODEL 6
REMARK VINA RESULT:      -6.9      3.838      6.713
REMARK  3 active torsions:
REMARK  status: ('A' for Active; 'I' for Inactive)
REMARK    1  A    between atoms: O1_2  and  C2_3 
REMARK    2  A    between atoms: C6_7  and  N1_8 
REMARK    3  A    between atoms: C15_20  and  O2_21 
ROOT
HETATM    1  C2  UNL     1      25.026   0.607  52.420  1.00  0.00     0.111 A 
HETATM    2  C3  UNL     1      23.789   0.978  52.052  1.00  0.00    -0.009 A 
HETATM    3  C4  UNL     1      23.364   1.824  50.916  1.00  0.00     0.052 C 
HETATM    4  C5  UNL     1      22.845   0.391  52.999  1.00  0.00     0.054 A 
HETATM    5  C6  UNL     1      21.608   0.192  53.436  1.00  0.00     0.165 A 
HETATM    6  N2  UNL     1      21.603  -0.639  54.605  1.00  0.00    -0.130 NA
HETATM    7  N3  UNL     1      22.809  -0.963  54.909  1.00  0.00    -0.144 NA
HETATM    8  C14 UNL     1      23.673  -0.360  53.953  1.00  0.00     0.130 A 
HETATM    9  C15 UNL     1      24.943  -0.226  53.604  1.00  0.00     0.133 A 
ENDROOT
BRANCH   5  10
HETATM   10  N1  UNL     1      20.477   0.758  52.782  1.00  0.00    -0.336 N 
HETATM   11  C7  UNL     1      20.363   2.179  52.784  1.00  0.00     0.090 C 
HETATM   12  C8  UNL     1      19.700   2.960  51.945  1.00  0.00     0.000 C 
HETATM   13  C9  UNL     1      18.893   2.548  50.764  1.00  0.00     0.050 C 
HETATM   14  C10 UNL     1      19.696   1.882  49.690  1.00  0.00     0.020 C 
HETATM   15  C11 UNL     1      17.909   1.521  51.266  1.00  0.00     0.017 C 
HETATM   16 CL1  UNL     1      16.221   1.907  51.036  1.00  0.00    -0.088 Cl
HETATM   17  C12 UNL     1      18.258   0.381  51.852  1.00  0.00     0.013 C 
HETATM   18  C13 UNL     1      19.561  -0.214  52.181  1.00  0.00     0.158 C 
ENDBRANCH   5  10
BRANCH   1  19
HETATM   19  O1  UNL     1      26.138   1.029  51.685  1.00  0.00    -0.352 OA
HETATM   20  C1  UNL     1      26.824   2.209  52.105  1.00  0.00     0.210 C 
ENDBRANCH   1  19
BRANCH   9  21
HETATM   21  O2  UNL     1      26.088  -0.747  54.193  1.00  0.00    -0.351 OA
HETATM   22  C16 UNL     1      26.976  -0.002  54.982  1.00  0.00     0.210 C 
ENDBRANCH   9  21
TORSDOF 3
ENDMDL
MODEL 7
REMARK VINA RESULT:      -6.6      4.523      6.587
REMARK  3 active torsions:
REMARK  status: ('A' for Active; 'I' for Inactive)
REMARK    1  A    between atoms: O1_2  and  C2_3 
REMARK    2  A    between atoms: C6_7  and  N1_8 
REMARK    3  A    between atoms: C15_20  and  O2_21 
ROOT
HETATM    1  C2  UNL     1      23.835   0.819  53.097  1.00  0.00     0.111 A 
HETATM    2  C3  UNL     1      23.528   1.729  52.159  1.00  0.00    -0.009 A 
HETATM    3  C4  UNL     1      22.200   2.207  51.717  1.00  0.00     0.052 C 
HETATM    4  C5  UNL     1      24.778   2.223  51.588  1.00  0.00     0.054 A 
HETATM    5  C6  UNL     1      25.444   3.002  50.745  1.00  0.00     0.165 A 
HETATM    6  N2  UNL     1      26.859   2.814  50.881  1.00  0.00    -0.130 NA
HETATM    7  N3  UNL     1      27.093   1.935  51.789  1.00  0.00    -0.144 NA
HETATM    8  C14 UNL     1      25.840   1.497  52.300  1.00  0.00     0.130 A 
HETATM    9  C15 UNL     1      25.276   0.682  53.177  1.00  0.00     0.133 A 
ENDROOT
BRANCH   5  10
HETATM   10  N1  UNL     1      24.779   3.886  49.849  1.00  0.00    -0.336 N 
HETATM   11  C7  UNL     1      23.870   3.309  48.915  1.00  0.00     0.090 C 
HETATM   12  C8  UNL     1      22.849   3.877  48.290  1.00  0.00     0.000 C 
HETATM   13  C9  UNL     1      22.381   5.285  48.407  1.00  0.00     0.050 C 
HETATM   14  C10 UNL     1      21.891   5.644  49.776  1.00  0.00     0.020 C 
HETATM   15  C11 UNL     1      23.587   6.152  48.140  1.00  0.00     0.017 C 
HETATM   16 CL1  UNL     1      23.445   7.263  46.801  1.00  0.00    -0.088 Cl
HETATM   17  C12 UNL     1      24.707   6.107  48.854  1.00  0.00     0.013 C 
HETATM   18  C13 UNL     1      25.123   5.301  50.009  1.00  0.00     0.158 C 
ENDBRANCH   5  10
BRANCH   1  19
HETATM   19  O1  UNL     1      22.821   0.175  53.814  1.00  0.00    -0.352 OA
HETATM   20  C1  UNL     1      22.427  -1.137  53.409  1.00  0.00     0.210 C 
ENDBRANCH   1  19
BRANCH   9  21
HETATM   21  O2  UNL     1      25.861  -0.201  54.076  1.00  0.00    -0.351 OA
HETATM   22  C16 UNL     1      26.902   0.141  54.950  1.00  0.00     0.210 C 
ENDBRANCH   9  21
TORSDOF 3
ENDMDL
MODEL 8
REMARK VINA RESULT:      -6.5      3.854      5.106
REMARK  3 active torsions:
REMARK  status: ('A' for Active; 'I' for Inactive)
REMARK    1  A    between atoms: O1_2  and  C2_3 
REMARK    2  A    between atoms: C6_7  and  N1_8 
REMARK    3  A    between atoms: C15_20  and  O2_21 
ROOT
HETATM    1  C2  UNL     1      21.645   0.473  51.872  1.00  0.00     0.111 A 
HETATM    2  C3  UNL     1      22.092   1.635  51.371  1.00  0.00    -0.009 A 
HETATM    3  C4  UNL     1      21.454   2.539  50.390  1.00  0.00     0.052 C 
HETATM    4  C5  UNL     1      23.396   1.908  51.968  1.00  0.00     0.054 A 
HETATM    5  C6  UNL     1      24.475   2.668  52.109  1.00  0.00     0.165 A 
HETATM    6  N2  UNL     1      25.394   2.087  53.044  1.00  0.00    -0.130 NA
HETATM    7  N3  UNL     1      24.915   0.981  53.490  1.00  0.00    -0.144 NA
HETATM    8  C14 UNL     1      23.651   0.776  52.870  1.00  0.00     0.130 A 
HETATM    9  C15 UNL     1      22.622  -0.054  52.805  1.00  0.00     0.133 A 
ENDROOT
BRANCH   5  10
HETATM   10  N1  UNL     1      24.635   3.890  51.395  1.00  0.00    -0.336 N 
HETATM   11  C7  UNL     1      25.641   3.931  50.386  1.00  0.00     0.090 C 
HETATM   12  C8  UNL     1      25.729   4.728  49.333  1.00  0.00     0.000 C 
HETATM   13  C9  UNL     1      24.783   5.804  48.925  1.00  0.00     0.050 C 
HETATM   14  C10 UNL     1      23.417   5.300  48.574  1.00  0.00     0.020 C 
HETATM   15  C11 UNL     1      24.617   6.696  50.130  1.00  0.00     0.017 C 
HETATM   16 CL1  UNL     1      25.058   8.370  49.904  1.00  0.00    -0.088 Cl
HETATM   17  C12 UNL     1      24.167   6.277  51.308  1.00  0.00     0.013 C 
HETATM   18  C13 UNL     1      23.727   4.965  51.800  1.00  0.00     0.158 C 
ENDBRANCH   5  10
BRANCH   1  19
HETATM   19  O1  UNL     1      20.406  -0.040  51.472  1.00  0.00    -0.352 OA
HETATM   20  C1  UNL     1      19.297   0.083  52.363  1.00  0.00     0.210 C 
ENDBRANCH   1  19
BRANCH   9  21
HETATM   21  O2  UNL     1      22.402  -1.254  53.469  1.00  0.00    -0.351 OA
HETATM   22  C16 UNL     1      22.296  -1.374  54.862  1.00  0.00     0.210 C 
ENDBRANCH   9  21
TORSDOF 3
ENDMDL
MODEL 9
REMARK VINA RESULT:      -6.5      6.272      8.930
REMARK  3 active torsions:
REMARK  status: ('A' for Active; 'I' for Inactive)
REMARK    1  A    between atoms: O1_2  and  C2_3 
REMARK    2  A    between atoms: C6_7  and  N1_8 
REMARK    3  A    between atoms: C15_20  and  O2_21 
ROOT
HETATM    1  C2  UNL     1      27.636   5.474  48.461  1.00  0.00     0.111 A 
HETATM    2  C3  UNL     1      26.699   4.726  49.065  1.00  0.00    -0.009 A 
HETATM    3  C4  UNL     1      26.794   3.343  49.581  1.00  0.00     0.052 C 
HETATM    4  C5  UNL     1      25.477   5.521  49.150  1.00  0.00     0.054 A 
HETATM    5  C6  UNL     1      24.208   5.669  49.507  1.00  0.00     0.165 A 
HETATM    6  N2  UNL     1      23.722   6.970  49.151  1.00  0.00    -0.130 NA
HETATM    7  N3  UNL     1      24.658   7.639  48.579  1.00  0.00    -0.144 NA
HETATM    8  C14 UNL     1      25.813   6.810  48.529  1.00  0.00     0.130 A 
HETATM    9  C15 UNL     1      27.075   6.769  48.131  1.00  0.00     0.133 A 
ENDROOT
BRANCH   5  10
HETATM   10  N1  UNL     1      23.482   4.630  50.156  1.00  0.00    -0.336 N 
HETATM   11  C7  UNL     1      23.043   3.537  49.353  1.00  0.00     0.090 C 
HETATM   12  C8  UNL     1      22.745   2.301  49.723  1.00  0.00     0.000 C 
HETATM   13  C9  UNL     1      22.794   1.727  51.096  1.00  0.00     0.050 C 
HETATM   14  C10 UNL     1      24.171   1.694  51.685  1.00  0.00     0.020 C 
HETATM   15  C11 UNL     1      21.975   2.648  51.966  1.00  0.00     0.017 C 
HETATM   16 CL1  UNL     1      20.616   1.916  52.782  1.00  0.00    -0.088 Cl
HETATM   17  C12 UNL     1      22.235   3.940  52.130  1.00  0.00     0.013 C 
HETATM   18  C13 UNL     1      23.277   4.826  51.593  1.00  0.00     0.158 C 
ENDBRANCH   5  10
BRANCH   1  19
HETATM   19  O1  UNL     1      28.919   4.960  48.244  1.00  0.00    -0.352 OA
HETATM   20  C1  UNL     1      30.044   5.783  48.553  1.00  0.00     0.210 C 
ENDBRANCH   1  19
BRANCH   9  21
HETATM   21  O2  UNL     1      27.841   7.739  47.497  1.00  0.00    -0.351 OA
HETATM   22  C16 UNL     1      28.159   8.983  48.060  1.00  0.00     0.210 C 
ENDBRANCH   9  21
TORSDOF 3
ENDMDL
