MODEL 1
REMARK VINA RESULT:      -7.9      0.000      0.000
REMARK  7 active torsions:
REMARK  status: ('A' for Active; 'I' for Inactive)
REMARK    1  A    between atoms: C1_2  and  C2_3 
REMARK    2  A    between atoms: C2_3  and  C3_4 
REMARK    3  A    between atoms: C8_9  and  O1_10 
REMARK    4  A    between atoms: O1_10  and  C9_11 
REMARK    5  A    between atoms: C11_13  and  N1_14 
REMARK    6  A    between atoms: N1_14  and  C12_15 
REMARK    7  A    between atoms: C12_15  and  C13_16 
ROOT
HETATM    1  C9  UNL     1      26.926   1.875  51.540  1.00  0.00     0.174 A 
HETATM    2  C10 UNL     1      26.286   0.780  52.079  1.00  0.00     0.108 A 
HETATM    3  C11 UNL     1      26.575   0.356  53.382  1.00  0.00     0.129 A 
HETATM    4  N2  UNL     1      27.484   1.041  54.087  1.00  0.00    -0.225 NA
HETATM    5  C19 UNL     1      28.103   2.098  53.568  1.00  0.00     0.238 A 
HETATM    6  N3  UNL     1      27.823   2.500  52.320  1.00  0.00    -0.217 NA
ENDROOT
BRANCH   1   7
HETATM    7  O1  UNL     1      26.478   2.096  50.253  1.00  0.00    -0.291 OA
BRANCH   7   8
HETATM    8  C8  UNL     1      26.272   3.349  49.729  1.00  0.00     0.084 A 
HETATM    9  C3  UNL     1      24.914   3.684  49.704  1.00  0.00    -0.022 A 
HETATM   10  C4  UNL     1      24.525   4.930  49.200  1.00  0.00     0.010 A 
HETATM   11  C5  UNL     1      25.426   5.858  48.718  1.00  0.00     0.001 A 
HETATM   12  C6  UNL     1      26.763   5.516  48.748  1.00  0.00     0.003 A 
HETATM   13  C7  UNL     1      27.148   4.293  49.243  1.00  0.00     0.038 A 
BRANCH   9  14
HETATM   14  C2  UNL     1      23.825   2.791  50.188  1.00  0.00     0.073 C 
BRANCH  14  15
HETATM   15  C1  UNL     1      23.205   3.264  51.478  1.00  0.00     0.227 C 
HETATM   16  F1  UNL     1      24.213   3.533  52.376  1.00  0.00    -0.255 F 
ENDBRANCH  14  15
ENDBRANCH   9  14
ENDBRANCH   7   8
ENDBRANCH   1   7
BRANCH   3  17
HETATM   17  N1  UNL     1      26.019  -0.737  54.095  1.00  0.00    -0.370 N 
HETATM   18  H10 UNL     1      26.573  -1.616  53.856  1.00  0.00     0.161 HD
BRANCH  17  19
HETATM   19  C12 UNL     1      24.924  -0.818  55.003  1.00  0.00     0.160 C 
BRANCH  19  20
HETATM   20  C13 UNL     1      23.586  -0.744  54.401  1.00  0.00    -0.041 A 
HETATM   21  C14 UNL     1      22.535  -1.398  55.054  1.00  0.00     0.009 A 
HETATM   22  C15 UNL     1      21.234  -1.414  54.590  1.00  0.00     0.001 A 
HETATM   23  C16 UNL     1      20.943  -0.744  53.409  1.00  0.00     0.000 A 
HETATM   24  C17 UNL     1      21.946  -0.080  52.720  1.00  0.00     0.001 A 
HETATM   25  C18 UNL     1      23.217  -0.113  53.252  1.00  0.00     0.009 A 
ENDBRANCH  19  20
ENDBRANCH  17  19
ENDBRANCH   3  17
TORSDOF 7
ENDMDL
MODEL 2
REMARK VINA RESULT:      -7.9      2.381      6.946
REMARK  7 active torsions:
REMARK  status: ('A' for Active; 'I' for Inactive)
REMARK    1  A    between atoms: C1_2  and  C2_3 
REMARK    2  A    between atoms: C2_3  and  C3_4 
REMARK    3  A    between atoms: C8_9  and  O1_10 
REMARK    4  A    between atoms: O1_10  and  C9_11 
REMARK    5  A    between atoms: C11_13  and  N1_14 
REMARK    6  A    between atoms: N1_14  and  C12_15 
REMARK    7  A    between atoms: C12_15  and  C13_16 
ROOT
HETATM    1  C9  UNL     1      24.710   0.581  53.269  1.00  0.00     0.174 A 
HETATM    2  C10 UNL     1      24.810   1.416  52.177  1.00  0.00     0.108 A 
HETATM    3  C11 UNL     1      23.692   1.672  51.373  1.00  0.00     0.129 A 
HETATM    4  N2  UNL     1      22.530   1.087  51.692  1.00  0.00    -0.225 NA
HETATM    5  C19 UNL     1      22.434   0.281  52.745  1.00  0.00     0.238 A 
HETATM    6  N3  UNL     1      23.505   0.039  53.512  1.00  0.00    -0.217 NA
ENDROOT
BRANCH   1   7
HETATM    7  O1  UNL     1      25.934   0.484  53.901  1.00  0.00    -0.291 OA
BRANCH   7   8
HETATM    8  C8  UNL     1      26.883  -0.452  53.570  1.00  0.00     0.084 A 
HETATM    9  C3  UNL     1      28.167  -0.046  53.954  1.00  0.00    -0.022 A 
HETATM   10  C4  UNL     1      29.256  -0.884  53.691  1.00  0.00     0.010 A 
HETATM   11  C5  UNL     1      29.128  -2.106  53.064  1.00  0.00     0.001 A 
HETATM   12  C6  UNL     1      27.857  -2.495  52.690  1.00  0.00     0.003 A 
HETATM   13  C7  UNL     1      26.784  -1.674  52.947  1.00  0.00     0.038 A 
BRANCH   9  14
HETATM   14  C2  UNL     1      28.466   1.242  54.639  1.00  0.00     0.073 C 
BRANCH  14  15
HETATM   15  C1  UNL     1      28.901   2.328  53.688  1.00  0.00     0.227 C 
HETATM   16  F1  UNL     1      27.878   2.569  52.800  1.00  0.00    -0.255 F 
ENDBRANCH  14  15
ENDBRANCH   9  14
ENDBRANCH   7   8
ENDBRANCH   1   7
BRANCH   3  17
HETATM   17  N1  UNL     1      23.607   2.497  50.222  1.00  0.00    -0.370 N 
HETATM   18  H10 UNL     1      23.497   1.874  49.364  1.00  0.00     0.161 HD
BRANCH  17  19
HETATM   19  C12 UNL     1      23.646   3.913  50.066  1.00  0.00     0.160 C 
BRANCH  19  20
HETATM   20  C13 UNL     1      24.908   4.468  49.558  1.00  0.00    -0.041 A 
HETATM   21  C14 UNL     1      24.894   5.769  49.043  1.00  0.00     0.009 A 
HETATM   22  C15 UNL     1      26.007   6.403  48.528  1.00  0.00     0.001 A 
HETATM   23  C16 UNL     1      27.214   5.718  48.517  1.00  0.00     0.000 A 
HETATM   24  C17 UNL     1      27.287   4.426  49.014  1.00  0.00     0.001 A 
HETATM   25  C18 UNL     1      26.129   3.867  49.510  1.00  0.00     0.009 A 
ENDBRANCH  19  20
ENDBRANCH  17  19
ENDBRANCH   3  17
TORSDOF 7
ENDMDL
MODEL 3
REMARK VINA RESULT:      -7.7      2.433      5.036
REMARK  7 active torsions:
REMARK  status: ('A' for Active; 'I' for Inactive)
REMARK    1  A    between atoms: C1_2  and  C2_3 
REMARK    2  A    between atoms: C2_3  and  C3_4 
REMARK    3  A    between atoms: C8_9  and  O1_10 
REMARK    4  A    between atoms: O1_10  and  C9_11 
REMARK    5  A    between atoms: C11_13  and  N1_14 
REMARK    6  A    between atoms: N1_14  and  C12_15 
REMARK    7  A    between atoms: C12_15  and  C13_16 
ROOT
HETATM    1  C9  UNL     1      24.980  -0.864  54.037  1.00  0.00     0.174 A 
HETATM    2  C10 UNL     1      23.797  -0.622  53.374  1.00  0.00     0.108 A 
HETATM    3  C11 UNL     1      22.569  -0.818  54.017  1.00  0.00     0.129 A 
HETATM    4  N2  UNL     1      22.574  -1.243  55.286  1.00  0.00    -0.225 NA
HETATM    5  C19 UNL     1      23.716  -1.478  55.927  1.00  0.00     0.238 A 
HETATM    6  N3  UNL     1      24.890  -1.289  55.309  1.00  0.00    -0.217 NA
ENDROOT
BRANCH   1   7
HETATM    7  O1  UNL     1      26.050  -0.602  53.204  1.00  0.00    -0.291 OA
BRANCH   7   8
HETATM    8  C8  UNL     1      27.088   0.231  53.546  1.00  0.00     0.084 A 
HETATM    9  C3  UNL     1      27.131   1.366  52.728  1.00  0.00    -0.022 A 
HETATM   10  C4  UNL     1      28.130   2.323  52.939  1.00  0.00     0.010 A 
HETATM   11  C5  UNL     1      29.088   2.203  53.925  1.00  0.00     0.001 A 
HETATM   12  C6  UNL     1      29.034   1.078  54.725  1.00  0.00     0.003 A 
HETATM   13  C7  UNL     1      28.054   0.136  54.521  1.00  0.00     0.038 A 
BRANCH   9  14
HETATM   14  C2  UNL     1      26.170   1.638  51.624  1.00  0.00     0.073 C 
BRANCH  14  15
HETATM   15  C1  UNL     1      26.474   2.912  50.878  1.00  0.00     0.227 C 
HETATM   16  F1  UNL     1      26.648   2.609  49.546  1.00  0.00    -0.255 F 
ENDBRANCH  14  15
ENDBRANCH   9  14
ENDBRANCH   7   8
ENDBRANCH   1   7
BRANCH   3  17
HETATM   17  N1  UNL     1      21.263  -0.620  53.497  1.00  0.00    -0.370 N 
HETATM   18  H10 UNL     1      20.721  -1.534  53.584  1.00  0.00     0.161 HD
BRANCH  17  19
HETATM   19  C12 UNL     1      20.633   0.524  52.927  1.00  0.00     0.160 C 
BRANCH  19  20
HETATM   20  C13 UNL     1      21.272   1.075  51.725  1.00  0.00    -0.041 A 
HETATM   21  C14 UNL     1      22.079   2.210  51.871  1.00  0.00     0.009 A 
HETATM   22  C15 UNL     1      22.728   2.830  50.822  1.00  0.00     0.001 A 
HETATM   23  C16 UNL     1      22.579   2.306  49.546  1.00  0.00     0.000 A 
HETATM   24  C17 UNL     1      21.791   1.183  49.343  1.00  0.00     0.001 A 
HETATM   25  C18 UNL     1      21.178   0.624  50.444  1.00  0.00     0.009 A 
ENDBRANCH  19  20
ENDBRANCH  17  19
ENDBRANCH   3  17
TORSDOF 7
ENDMDL
MODEL 4
REMARK VINA RESULT:      -7.6      3.091      5.961
REMARK  7 active torsions:
REMARK  status: ('A' for Active; 'I' for Inactive)
REMARK    1  A    between atoms: C1_2  and  C2_3 
REMARK    2  A    between atoms: C2_3  and  C3_4 
REMARK    3  A    between atoms: C8_9  and  O1_10 
REMARK    4  A    between atoms: O1_10  and  C9_11 
REMARK    5  A    between atoms: C11_13  and  N1_14 
REMARK    6  A    between atoms: N1_14  and  C12_15 
REMARK    7  A    between atoms: C12_15  and  C13_16 
ROOT
HETATM    1  C9  UNL     1      24.531  -0.562  53.830  1.00  0.00     0.174 A 
HETATM    2  C10 UNL     1      23.360  -0.158  53.228  1.00  0.00     0.108 A 
HETATM    3  C11 UNL     1      22.125  -0.387  53.848  1.00  0.00     0.129 A 
HETATM    4  N2  UNL     1      22.114  -1.006  55.036  1.00  0.00    -0.225 NA
HETATM    5  C19 UNL     1      23.244  -1.396  55.618  1.00  0.00     0.238 A 
HETATM    6  N3  UNL     1      24.424  -1.174  55.021  1.00  0.00    -0.217 NA
ENDROOT
BRANCH   1   7
HETATM    7  O1  UNL     1      25.610  -0.229  53.035  1.00  0.00    -0.291 OA
BRANCH   7   8
HETATM    8  C8  UNL     1      26.819  -0.877  53.091  1.00  0.00     0.084 A 
HETATM    9  C3  UNL     1      27.823  -0.058  53.621  1.00  0.00    -0.022 A 
HETATM   10  C4  UNL     1      29.121  -0.562  53.749  1.00  0.00     0.010 A 
HETATM   11  C5  UNL     1      29.468  -1.844  53.374  1.00  0.00     0.001 A 
HETATM   12  C6  UNL     1      28.470  -2.643  52.853  1.00  0.00     0.003 A 
HETATM   13  C7  UNL     1      27.192  -2.150  52.726  1.00  0.00     0.038 A 
BRANCH   9  14
HETATM   14  C2  UNL     1      27.605   1.345  54.070  1.00  0.00     0.073 C 
BRANCH  14  15
HETATM   15  C1  UNL     1      28.607   2.312  53.492  1.00  0.00     0.227 C 
HETATM   16  F1  UNL     1      29.546   2.599  54.456  1.00  0.00    -0.255 F 
ENDBRANCH  14  15
ENDBRANCH   9  14
ENDBRANCH   7   8
ENDBRANCH   1   7
BRANCH   3  17
HETATM   17  N1  UNL     1      20.830  -0.043  53.382  1.00  0.00    -0.370 N 
HETATM   18  H10 UNL     1      20.161  -0.839  53.620  1.00  0.00     0.161 HD
BRANCH  17  19
HETATM   19  C12 UNL     1      20.343   1.110  52.703  1.00  0.00     0.160 C 
BRANCH  19  20
HETATM   20  C13 UNL     1      20.952   1.390  51.396  1.00  0.00    -0.041 A 
HETATM   21  C14 UNL     1      21.763   2.525  51.278  1.00  0.00     0.009 A 
HETATM   22  C15 UNL     1      22.386   2.905  50.107  1.00  0.00     0.001 A 
HETATM   23  C16 UNL     1      22.205   2.122  48.975  1.00  0.00     0.000 A 
HETATM   24  C17 UNL     1      21.411   0.986  49.034  1.00  0.00     0.001 A 
HETATM   25  C18 UNL     1      20.826   0.678  50.243  1.00  0.00     0.009 A 
ENDBRANCH  19  20
ENDBRANCH  17  19
ENDBRANCH   3  17
TORSDOF 7
ENDMDL
MODEL 5
REMARK VINA RESULT:      -7.6      2.983      6.382
REMARK  7 active torsions:
REMARK  status: ('A' for Active; 'I' for Inactive)
REMARK    1  A    between atoms: C1_2  and  C2_3 
REMARK    2  A    between atoms: C2_3  and  C3_4 
REMARK    3  A    between atoms: C8_9  and  O1_10 
REMARK    4  A    between atoms: O1_10  and  C9_11 
REMARK    5  A    between atoms: C11_13  and  N1_14 
REMARK    6  A    between atoms: N1_14  and  C12_15 
REMARK    7  A    between atoms: C12_15  and  C13_16 
ROOT
HETATM    1  C9  UNL     1      22.096   2.690  51.923  1.00  0.00     0.174 A 
HETATM    2  C10 UNL     1      23.415   2.557  51.548  1.00  0.00     0.108 A 
HETATM    3  C11 UNL     1      24.252   3.678  51.481  1.00  0.00     0.129 A 
HETATM    4  N2  UNL     1      23.739   4.876  51.792  1.00  0.00    -0.225 NA
HETATM    5  C19 UNL     1      22.466   5.004  52.154  1.00  0.00     0.238 A 
HETATM    6  N3  UNL     1      21.668   3.929  52.217  1.00  0.00    -0.217 NA
ENDROOT
BRANCH   1   7
HETATM    7  O1  UNL     1      21.477   1.455  51.914  1.00  0.00    -0.291 OA
BRANCH   7   8
HETATM    8  C8  UNL     1      21.729   0.476  52.844  1.00  0.00     0.084 A 
HETATM    9  C3  UNL     1      20.588  -0.287  53.116  1.00  0.00    -0.022 A 
HETATM   10  C4  UNL     1      20.669  -1.331  54.044  1.00  0.00     0.010 A 
HETATM   11  C5  UNL     1      21.832  -1.650  54.714  1.00  0.00     0.001 A 
HETATM   12  C6  UNL     1      22.951  -0.890  54.437  1.00  0.00     0.003 A 
HETATM   13  C7  UNL     1      22.875   0.136  53.525  1.00  0.00     0.038 A 
BRANCH   9  14
HETATM   14  C2  UNL     1      19.263  -0.065  52.475  1.00  0.00     0.073 C 
BRANCH  14  15
HETATM   15  C1  UNL     1      18.199  -1.006  52.981  1.00  0.00     0.227 C 
HETATM   16  F1  UNL     1      17.254  -1.171  51.994  1.00  0.00    -0.255 F 
ENDBRANCH  14  15
ENDBRANCH   9  14
ENDBRANCH   7   8
ENDBRANCH   1   7
BRANCH   3  17
HETATM   17  N1  UNL     1      25.623   3.732  51.119  1.00  0.00    -0.370 N 
HETATM   18  H10 UNL     1      25.874   4.742  50.889  1.00  0.00     0.161 HD
BRANCH  17  19
HETATM   19  C12 UNL     1      26.619   2.718  51.028  1.00  0.00     0.160 C 
BRANCH  19  20
HETATM   20  C13 UNL     1      26.615   1.716  52.102  1.00  0.00    -0.041 A 
HETATM   21  C14 UNL     1      26.562   0.365  51.740  1.00  0.00     0.009 A 
HETATM   22  C15 UNL     1      26.544  -0.674  52.649  1.00  0.00     0.001 A 
HETATM   23  C16 UNL     1      26.580  -0.370  54.004  1.00  0.00     0.000 A 
HETATM   24  C17 UNL     1      26.631   0.952  54.420  1.00  0.00     0.001 A 
HETATM   25  C18 UNL     1      26.647   1.928  53.446  1.00  0.00     0.009 A 
ENDBRANCH  19  20
ENDBRANCH  17  19
ENDBRANCH   3  17
TORSDOF 7
ENDMDL
MODEL 6
REMARK VINA RESULT:      -7.5      2.389      7.896
REMARK  7 active torsions:
REMARK  status: ('A' for Active; 'I' for Inactive)
REMARK    1  A    between atoms: C1_2  and  C2_3 
REMARK    2  A    between atoms: C2_3  and  C3_4 
REMARK    3  A    between atoms: C8_9  and  O1_10 
REMARK    4  A    between atoms: O1_10  and  C9_11 
REMARK    5  A    between atoms: C11_13  and  N1_14 
REMARK    6  A    between atoms: N1_14  and  C12_15 
REMARK    7  A    between atoms: C12_15  and  C13_16 
ROOT
HETATM    1  C9  UNL     1      23.471   2.635  51.741  1.00  0.00     0.174 A 
HETATM    2  C10 UNL     1      24.546   3.055  50.988  1.00  0.00     0.108 A 
HETATM    3  C11 UNL     1      24.814   4.421  50.833  1.00  0.00     0.129 A 
HETATM    4  N2  UNL     1      24.005   5.302  51.434  1.00  0.00    -0.225 NA
HETATM    5  C19 UNL     1      22.967   4.897  52.161  1.00  0.00     0.238 A 
HETATM    6  N3  UNL     1      22.714   3.588  52.307  1.00  0.00    -0.217 NA
ENDROOT
BRANCH   1   7
HETATM    7  O1  UNL     1      23.411   1.255  51.746  1.00  0.00    -0.291 OA
BRANCH   7   8
HETATM    8  C8  UNL     1      22.914   0.524  52.798  1.00  0.00     0.084 A 
HETATM    9  C3  UNL     1      23.928  -0.160  53.479  1.00  0.00    -0.022 A 
HETATM   10  C4  UNL     1      23.595  -0.955  54.580  1.00  0.00     0.010 A 
HETATM   11  C5  UNL     1      22.300  -1.103  55.036  1.00  0.00     0.001 A 
HETATM   12  C6  UNL     1      21.309  -0.423  54.355  1.00  0.00     0.003 A 
HETATM   13  C7  UNL     1      21.633   0.360  53.272  1.00  0.00     0.038 A 
BRANCH   9  14
HETATM   14  C2  UNL     1      25.369  -0.100  53.110  1.00  0.00     0.073 C 
BRANCH  14  15
HETATM   15  C1  UNL     1      26.198   0.681  54.097  1.00  0.00     0.227 C 
HETATM   16  F1  UNL     1      25.766   1.988  54.095  1.00  0.00    -0.255 F 
ENDBRANCH  14  15
ENDBRANCH   9  14
ENDBRANCH   7   8
ENDBRANCH   1   7
BRANCH   3  17
HETATM   17  N1  UNL     1      25.866   5.033  50.103  1.00  0.00    -0.370 N 
HETATM   18  H10 UNL     1      25.828   6.086  50.270  1.00  0.00     0.161 HD
BRANCH  17  19
HETATM   19  C12 UNL     1      26.873   4.489  49.255  1.00  0.00     0.160 C 
BRANCH  19  20
HETATM   20  C13 UNL     1      27.718   5.465  48.554  1.00  0.00    -0.041 A 
HETATM   21  C14 UNL     1      27.126   6.658  48.124  1.00  0.00     0.009 A 
HETATM   22  C15 UNL     1      27.805   7.652  47.448  1.00  0.00     0.001 A 
HETATM   23  C16 UNL     1      29.153   7.466  47.175  1.00  0.00     0.000 A 
HETATM   24  C17 UNL     1      29.792   6.302  47.577  1.00  0.00     0.001 A 
HETATM   25  C18 UNL     1      29.040   5.361  48.247  1.00  0.00     0.009 A 
ENDBRANCH  19  20
ENDBRANCH  17  19
ENDBRANCH   3  17
TORSDOF 7
ENDMDL
MODEL 7
REMARK VINA RESULT:      -7.4      2.901      5.116
REMARK  7 active torsions:
REMARK  status: ('A' for Active; 'I' for Inactive)
REMARK    1  A    between atoms: C1_2  and  C2_3 
REMARK    2  A    between atoms: C2_3  and  C3_4 
REMARK    3  A    between atoms: C8_9  and  O1_10 
REMARK    4  A    between atoms: O1_10  and  C9_11 
REMARK    5  A    between atoms: C11_13  and  N1_14 
REMARK    6  A    between atoms: N1_14  and  C12_15 
REMARK    7  A    between atoms: C12_15  and  C13_16 
ROOT
HETATM    1  C9  UNL     1      21.037   0.527  53.089  1.00  0.00     0.174 A 
HETATM    2  C10 UNL     1      22.257   0.151  53.607  1.00  0.00     0.108 A 
HETATM    3  C11 UNL     1      22.374  -1.011  54.380  1.00  0.00     0.129 A 
HETATM    4  N2  UNL     1      21.274  -1.743  54.600  1.00  0.00    -0.225 NA
HETATM    5  C19 UNL     1      20.096  -1.380  54.100  1.00  0.00     0.238 A 
HETATM    6  N3  UNL     1      19.989  -0.267  53.361  1.00  0.00    -0.217 NA
ENDROOT
BRANCH   1   7
HETATM    7  O1  UNL     1      21.172   1.698  52.369  1.00  0.00    -0.291 OA
BRANCH   7   8
HETATM    8  C8  UNL     1      21.522   1.732  51.041  1.00  0.00     0.084 A 
HETATM    9  C3  UNL     1      22.619   2.571  50.815  1.00  0.00    -0.022 A 
HETATM   10  C4  UNL     1      23.108   2.722  49.514  1.00  0.00     0.010 A 
HETATM   11  C5  UNL     1      22.556   2.078  48.425  1.00  0.00     0.001 A 
HETATM   12  C6  UNL     1      21.473   1.253  48.660  1.00  0.00     0.003 A 
HETATM   13  C7  UNL     1      20.990   1.102  49.939  1.00  0.00     0.038 A 
BRANCH   9  14
HETATM   14  C2  UNL     1      23.322   3.331  51.885  1.00  0.00     0.073 C 
BRANCH  14  15
HETATM   15  C1  UNL     1      24.654   2.731  52.256  1.00  0.00     0.227 C 
HETATM   16  F1  UNL     1      24.788   2.774  53.626  1.00  0.00    -0.255 F 
ENDBRANCH  14  15
ENDBRANCH   9  14
ENDBRANCH   7   8
ENDBRANCH   1   7
BRANCH   3  17
HETATM   17  N1  UNL     1      23.537  -1.550  54.988  1.00  0.00    -0.370 N 
HETATM   18  H10 UNL     1      23.478  -2.614  54.951  1.00  0.00     0.161 HD
BRANCH  17  19
HETATM   19  C12 UNL     1      24.669  -0.926  55.587  1.00  0.00     0.160 C 
BRANCH  19  20
HETATM   20  C13 UNL     1      25.694  -0.430  54.659  1.00  0.00    -0.041 A 
HETATM   21  C14 UNL     1      25.659  -0.887  53.336  1.00  0.00     0.009 A 
HETATM   22  C15 UNL     1      26.567  -0.506  52.368  1.00  0.00     0.001 A 
HETATM   23  C16 UNL     1      27.576   0.381  52.717  1.00  0.00     0.000 A 
HETATM   24  C17 UNL     1      27.658   0.866  54.014  1.00  0.00     0.001 A 
HETATM   25  C18 UNL     1      26.712   0.436  54.919  1.00  0.00     0.009 A 
ENDBRANCH  19  20
ENDBRANCH  17  19
ENDBRANCH   3  17
TORSDOF 7
ENDMDL
MODEL 8
REMARK VINA RESULT:      -7.2      2.301      5.071
REMARK  7 active torsions:
REMARK  status: ('A' for Active; 'I' for Inactive)
REMARK    1  A    between atoms: C1_2  and  C2_3 
REMARK    2  A    between atoms: C2_3  and  C3_4 
REMARK    3  A    between atoms: C8_9  and  O1_10 
REMARK    4  A    between atoms: O1_10  and  C9_11 
REMARK    5  A    between atoms: C11_13  and  N1_14 
REMARK    6  A    between atoms: N1_14  and  C12_15 
REMARK    7  A    between atoms: C12_15  and  C13_16 
ROOT
HETATM    1  C9  UNL     1      26.238   2.590  51.642  1.00  0.00     0.174 A 
HETATM    2  C10 UNL     1      24.890   2.680  51.373  1.00  0.00     0.108 A 
HETATM    3  C11 UNL     1      24.440   3.284  50.192  1.00  0.00     0.129 A 
HETATM    4  N2  UNL     1      25.349   3.767  49.336  1.00  0.00    -0.225 NA
HETATM    5  C19 UNL     1      26.651   3.681  49.596  1.00  0.00     0.238 A 
HETATM    6  N3  UNL     1      27.078   3.102  50.727  1.00  0.00    -0.217 NA
ENDROOT
BRANCH   1   7
HETATM    7  O1  UNL     1      26.436   1.960  52.855  1.00  0.00    -0.291 OA
BRANCH   7   8
HETATM    8  C8  UNL     1      27.475   1.095  53.098  1.00  0.00     0.084 A 
HETATM    9  C3  UNL     1      27.070  -0.241  53.004  1.00  0.00    -0.022 A 
HETATM   10  C4  UNL     1      28.006  -1.257  53.223  1.00  0.00     0.010 A 
HETATM   11  C5  UNL     1      29.328  -1.005  53.532  1.00  0.00     0.001 A 
HETATM   12  C6  UNL     1      29.715   0.317  53.621  1.00  0.00     0.003 A 
HETATM   13  C7  UNL     1      28.797   1.318  53.406  1.00  0.00     0.038 A 
BRANCH   9  14
HETATM   14  C2  UNL     1      25.682  -0.672  52.680  1.00  0.00     0.073 C 
BRANCH  14  15
HETATM   15  C1  UNL     1      24.744  -0.576  53.856  1.00  0.00     0.227 C 
HETATM   16  F1  UNL     1      23.839   0.431  53.614  1.00  0.00    -0.255 F 
ENDBRANCH  14  15
ENDBRANCH   9  14
ENDBRANCH   7   8
ENDBRANCH   1   7
BRANCH   3  17
HETATM   17  N1  UNL     1      23.103   3.463  49.751  1.00  0.00    -0.370 N 
HETATM   18  H10 UNL     1      23.097   3.483  48.685  1.00  0.00     0.161 HD
BRANCH  17  19
HETATM   19  C12 UNL     1      21.880   3.609  50.467  1.00  0.00     0.160 C 
BRANCH  19  20
HETATM   20  C13 UNL     1      21.453   2.443  51.251  1.00  0.00    -0.041 A 
HETATM   21  C14 UNL     1      21.563   1.178  50.661  1.00  0.00     0.009 A 
HETATM   22  C15 UNL     1      21.190   0.005  51.285  1.00  0.00     0.001 A 
HETATM   23  C16 UNL     1      20.675   0.073  52.573  1.00  0.00     0.000 A 
HETATM   24  C17 UNL     1      20.543   1.300  53.206  1.00  0.00     0.001 A 
HETATM   25  C18 UNL     1      20.940   2.422  52.512  1.00  0.00     0.009 A 
ENDBRANCH  19  20
ENDBRANCH  17  19
ENDBRANCH   3  17
TORSDOF 7
ENDMDL
MODEL 9
REMARK VINA RESULT:      -7.2      3.009      4.904
REMARK  7 active torsions:
REMARK  status: ('A' for Active; 'I' for Inactive)
REMARK    1  A    between atoms: C1_2  and  C2_3 
REMARK    2  A    between atoms: C2_3  and  C3_4 
REMARK    3  A    between atoms: C8_9  and  O1_10 
REMARK    4  A    between atoms: O1_10  and  C9_11 
REMARK    5  A    between atoms: C11_13  and  N1_14 
REMARK    6  A    between atoms: N1_14  and  C12_15 
REMARK    7  A    between atoms: C12_15  and  C13_16 
ROOT
HETATM    1  C9  UNL     1      24.690   4.037  50.617  1.00  0.00     0.174 A 
HETATM    2  C10 UNL     1      25.231   2.849  51.057  1.00  0.00     0.108 A 
HETATM    3  C11 UNL     1      24.982   2.392  52.358  1.00  0.00     0.129 A 
HETATM    4  N2  UNL     1      24.208   3.137  53.157  1.00  0.00    -0.225 NA
HETATM    5  C19 UNL     1      23.686   4.284  52.733  1.00  0.00     0.238 A 
HETATM    6  N3  UNL     1      23.926   4.717  51.488  1.00  0.00    -0.217 NA
ENDROOT
BRANCH   1   7
HETATM    7  O1  UNL     1      25.073   4.275  49.312  1.00  0.00    -0.291 OA
BRANCH   7   8
HETATM    8  C8  UNL     1      25.128   5.530  48.758  1.00  0.00     0.084 A 
HETATM    9  C3  UNL     1      26.445   5.919  48.485  1.00  0.00    -0.022 A 
HETATM   10  C4  UNL     1      26.683   7.175  47.917  1.00  0.00     0.010 A 
HETATM   11  C5  UNL     1      25.673   8.063  47.608  1.00  0.00     0.001 A 
HETATM   12  C6  UNL     1      24.379   7.668  47.881  1.00  0.00     0.003 A 
HETATM   13  C7  UNL     1      24.141   6.434  48.439  1.00  0.00     0.038 A 
BRANCH   9  14
HETATM   14  C2  UNL     1      27.639   5.074  48.761  1.00  0.00     0.073 C 
BRANCH  14  15
HETATM   15  C1  UNL     1      28.919   5.672  48.234  1.00  0.00     0.227 C 
HETATM   16  F1  UNL     1      29.715   4.655  47.759  1.00  0.00    -0.255 F 
ENDBRANCH  14  15
ENDBRANCH   9  14
ENDBRANCH   7   8
ENDBRANCH   1   7
BRANCH   3  17
HETATM   17  N1  UNL     1      25.449   1.204  52.977  1.00  0.00    -0.370 N 
HETATM   18  H10 UNL     1      25.382   1.323  54.034  1.00  0.00     0.161 HD
BRANCH  17  19
HETATM   19  C12 UNL     1      25.950  -0.014  52.433  1.00  0.00     0.160 C 
BRANCH  19  20
HETATM   20  C13 UNL     1      27.303  -0.397  52.857  1.00  0.00    -0.041 A 
HETATM   21  C14 UNL     1      28.152   0.609  53.335  1.00  0.00     0.009 A 
HETATM   22  C15 UNL     1      29.447   0.385  53.755  1.00  0.00     0.001 A 
HETATM   23  C16 UNL     1      29.946  -0.909  53.706  1.00  0.00     0.000 A 
HETATM   24  C17 UNL     1      29.150  -1.945  53.241  1.00  0.00     0.001 A 
HETATM   25  C18 UNL     1      27.868  -1.635  52.840  1.00  0.00     0.009 A 
ENDBRANCH  19  20
ENDBRANCH  17  19
ENDBRANCH   3  17
TORSDOF 7
ENDMDL
