MODEL 1
REMARK VINA RESULT:      -7.0      0.000      0.000
REMARK  12 active torsions:
REMARK  status: ('A' for Active; 'I' for Inactive)
REMARK    1  A    between atoms: O1_2  and  C2_3 
REMARK    2  A    between atoms: C2_3  and  C3_4 
REMARK    3  A    between atoms: C3_4  and  O2_5 
REMARK    4  A    between atoms: O2_5  and  C4_6 
REMARK    5  A    between atoms: C9_11  and  O3_12 
REMARK    6  A    between atoms: O3_12  and  C10_13 
REMARK    7  A    between atoms: C10_13  and  C11_14 
REMARK    8  A    between atoms: C11_14  and  O4_15 
REMARK    9  A    between atoms: C13_17  and  N1_18 
REMARK   10  A    between atoms: N1_18  and  C14_19 
REMARK   11  A    between atoms: C18_23  and  C19_24 
REMARK   12  A    between atoms: C19_24  and  O5_25 
ROOT
HETATM    1  C4  UNL     1      23.488   0.929  52.433  1.00  0.00     0.104 A 
HETATM    2  C5  UNL     1      22.553   1.478  51.402  1.00  0.00     0.071 A 
HETATM    3  C6  UNL     1      22.351   2.766  50.918  1.00  0.00     0.063 A 
HETATM    4  C7  UNL     1      23.208   3.574  51.552  1.00  0.00    -0.002 A 
HETATM    5  C8  UNL     1      24.240   3.393  52.577  1.00  0.00     0.051 A 
HETATM    6  C9  UNL     1      24.196   2.073  52.844  1.00  0.00     0.102 A 
HETATM    7  C13 UNL     1      23.116   5.104  51.404  1.00  0.00     0.144 A 
HETATM    8  C21 UNL     1      21.922   4.930  50.444  1.00  0.00     0.163 A 
HETATM    9  N2  UNL     1      21.518   3.618  50.175  1.00  0.00    -0.279 NA
ENDROOT
BRANCH   7  10
HETATM   10  N1  UNL     1      24.251   5.650  50.705  1.00  0.00    -0.379 N 
HETATM   11  H18 UNL     1      23.987   4.651  50.037  1.00  0.00     0.160 HD
BRANCH  10  12
HETATM   12  C14 UNL     1      25.383   6.303  50.192  1.00  0.00     0.029 A 
HETATM   13  C15 UNL     1      25.939   5.356  49.198  1.00  0.00     0.029 A 
HETATM   14  C16 UNL     1      26.960   6.048  48.513  1.00  0.00     0.003 A 
HETATM   15  C17 UNL     1      27.421   7.252  48.627  1.00  0.00     0.009 A 
HETATM   16  C18 UNL     1      26.786   7.964  49.594  1.00  0.00    -0.033 A 
HETATM   17  C20 UNL     1      25.785   7.689  50.454  1.00  0.00     0.038 A 
BRANCH  16  18
HETATM   18  C19 UNL     1      27.192   9.428  49.777  1.00  0.00     0.203 C 
BRANCH  18  19
HETATM   19  O5  UNL     1      27.487   9.608  51.085  1.00  0.00    -0.396 OA
HETATM   20  H24 UNL     1      28.487   9.739  51.234  1.00  0.00     0.209 HD
ENDBRANCH  18  19
ENDBRANCH  16  18
ENDBRANCH  10  12
ENDBRANCH   7  10
BRANCH   6  21
HETATM   21  O3  UNL     1      24.884   1.303  53.780  1.00  0.00    -0.346 OA
BRANCH  21  22
HETATM   22  C10 UNL     1      26.299   1.202  53.773  1.00  0.00     0.201 C 
BRANCH  22  23
HETATM   23  C11 UNL     1      26.534   0.175  54.947  1.00  0.00     0.193 C 
BRANCH  23  24
HETATM   24  O4  UNL     1      27.600  -0.598  54.750  1.00  0.00    -0.394 OA
HETATM   25  C12 UNL     1      28.774   0.203  54.759  1.00  0.00     0.201 C 
ENDBRANCH  23  24
ENDBRANCH  22  23
ENDBRANCH  21  22
ENDBRANCH   6  21
BRANCH   1  26
HETATM   26  O2  UNL     1      23.408  -0.411  52.717  1.00  0.00    -0.346 OA
BRANCH  26  27
HETATM   27  C3  UNL     1      22.102  -0.856  53.126  1.00  0.00     0.201 C 
BRANCH  27  28
HETATM   28  C2  UNL     1      21.747  -0.375  54.463  1.00  0.00     0.193 C 
BRANCH  28  29
HETATM   29  O1  UNL     1      20.482   0.320  54.455  1.00  0.00    -0.394 OA
HETATM   30  C1  UNL     1      19.781  -0.222  53.331  1.00  0.00     0.201 C 
ENDBRANCH  28  29
ENDBRANCH  27  28
ENDBRANCH  26  27
ENDBRANCH   1  26
TORSDOF 12
ENDMDL
MODEL 2
REMARK VINA RESULT:      -6.9      3.111      8.238
REMARK  12 active torsions:
REMARK  status: ('A' for Active; 'I' for Inactive)
REMARK    1  A    between atoms: O1_2  and  C2_3 
REMARK    2  A    between atoms: C2_3  and  C3_4 
REMARK    3  A    between atoms: C3_4  and  O2_5 
REMARK    4  A    between atoms: O2_5  and  C4_6 
REMARK    5  A    between atoms: C9_11  and  O3_12 
REMARK    6  A    between atoms: O3_12  and  C10_13 
REMARK    7  A    between atoms: C10_13  and  C11_14 
REMARK    8  A    between atoms: C11_14  and  O4_15 
REMARK    9  A    between atoms: C13_17  and  N1_18 
REMARK   10  A    between atoms: N1_18  and  C14_19 
REMARK   11  A    between atoms: C18_23  and  C19_24 
REMARK   12  A    between atoms: C19_24  and  O5_25 
ROOT
HETATM    1  C4  UNL     1      25.162   1.120  52.249  1.00  0.00     0.104 A 
HETATM    2  C5  UNL     1      24.854  -0.038  53.146  1.00  0.00     0.071 A 
HETATM    3  C6  UNL     1      23.681  -0.443  53.774  1.00  0.00     0.063 A 
HETATM    4  C7  UNL     1      22.722   0.426  53.437  1.00  0.00    -0.002 A 
HETATM    5  C8  UNL     1      22.658   1.629  52.602  1.00  0.00     0.051 A 
HETATM    6  C9  UNL     1      23.918   1.768  52.146  1.00  0.00     0.102 A 
HETATM    7  C13 UNL     1      21.342   0.390  54.120  1.00  0.00     0.144 A 
HETATM    8  C21 UNL     1      21.801  -0.814  54.966  1.00  0.00     0.163 A 
HETATM    9  N2  UNL     1      23.105  -1.272  54.749  1.00  0.00    -0.279 NA
ENDROOT
BRANCH   7  10
HETATM   10  N1  UNL     1      20.296  -0.001  53.209  1.00  0.00    -0.379 N 
HETATM   11  H18 UNL     1      21.303  -0.092  52.508  1.00  0.00     0.160 HD
BRANCH  10  12
HETATM   12  C14 UNL     1      19.146  -0.307  52.465  1.00  0.00     0.029 A 
HETATM   13  C15 UNL     1      18.362  -1.203  53.346  1.00  0.00     0.029 A 
HETATM   14  C16 UNL     1      17.107  -1.377  52.725  1.00  0.00     0.003 A 
HETATM   15  C17 UNL     1      16.612  -0.917  51.622  1.00  0.00     0.009 A 
HETATM   16  C18 UNL     1      17.482  -0.116  50.954  1.00  0.00    -0.033 A 
HETATM   17  C20 UNL     1      18.744   0.299  51.191  1.00  0.00     0.038 A 
BRANCH  16  18
HETATM   18  C19 UNL     1      16.988   0.550  49.668  1.00  0.00     0.203 C 
BRANCH  18  19
HETATM   19  O5  UNL     1      16.648  -0.435  48.805  1.00  0.00    -0.396 OA
HETATM   20  H24 UNL     1      15.814  -0.936  49.112  1.00  0.00     0.209 HD
ENDBRANCH  18  19
ENDBRANCH  16  18
ENDBRANCH  10  12
ENDBRANCH   7  10
BRANCH   6  21
HETATM   21  O3  UNL     1      24.506   2.761  51.366  1.00  0.00    -0.346 OA
BRANCH  21  22
HETATM   22  C10 UNL     1      23.731   3.704  50.643  1.00  0.00     0.201 C 
BRANCH  22  23
HETATM   23  C11 UNL     1      24.520   3.760  49.278  1.00  0.00     0.193 C 
BRANCH  23  24
HETATM   24  O4  UNL     1      25.810   3.462  49.416  1.00  0.00    -0.394 OA
HETATM   25  C12 UNL     1      26.595   4.615  49.141  1.00  0.00     0.201 C 
ENDBRANCH  23  24
ENDBRANCH  22  23
ENDBRANCH  21  22
ENDBRANCH   6  21
BRANCH   1  26
HETATM   26  O2  UNL     1      26.457   1.266  51.820  1.00  0.00    -0.346 OA
BRANCH  26  27
HETATM   27  C3  UNL     1      27.452   0.897  52.792  1.00  0.00     0.201 C 
BRANCH  27  28
HETATM   28  C2  UNL     1      28.142   2.064  53.347  1.00  0.00     0.193 C 
BRANCH  28  29
HETATM   29  O1  UNL     1      28.705   1.776  54.645  1.00  0.00    -0.394 OA
HETATM   30  C1  UNL     1      28.584   0.356  54.782  1.00  0.00     0.201 C 
ENDBRANCH  28  29
ENDBRANCH  27  28
ENDBRANCH  26  27
ENDBRANCH   1  26
TORSDOF 12
ENDMDL
MODEL 3
REMARK VINA RESULT:      -6.8      3.480      5.997
REMARK  12 active torsions:
REMARK  status: ('A' for Active; 'I' for Inactive)
REMARK    1  A    between atoms: O1_2  and  C2_3 
REMARK    2  A    between atoms: C2_3  and  C3_4 
REMARK    3  A    between atoms: C3_4  and  O2_5 
REMARK    4  A    between atoms: O2_5  and  C4_6 
REMARK    5  A    between atoms: C9_11  and  O3_12 
REMARK    6  A    between atoms: O3_12  and  C10_13 
REMARK    7  A    between atoms: C10_13  and  C11_14 
REMARK    8  A    between atoms: C11_14  and  O4_15 
REMARK    9  A    between atoms: C13_17  and  N1_18 
REMARK   10  A    between atoms: N1_18  and  C14_19 
REMARK   11  A    between atoms: C18_23  and  C19_24 
REMARK   12  A    between atoms: C19_24  and  O5_25 
ROOT
HETATM    1  C4  UNL     1      21.479   0.692  51.346  1.00  0.00     0.104 A 
HETATM    2  C5  UNL     1      22.220   1.522  50.344  1.00  0.00     0.071 A 
HETATM    3  C6  UNL     1      23.418   2.224  50.419  1.00  0.00     0.063 A 
HETATM    4  C7  UNL     1      23.912   2.047  51.650  1.00  0.00    -0.002 A 
HETATM    5  C8  UNL     1      23.482   1.319  52.846  1.00  0.00     0.051 A 
HETATM    6  C9  UNL     1      22.314   0.758  52.476  1.00  0.00     0.102 A 
HETATM    7  C13 UNL     1      25.130   2.853  52.140  1.00  0.00     0.144 A 
HETATM    8  C21 UNL     1      25.206   3.555  50.770  1.00  0.00     0.163 A 
HETATM    9  N2  UNL     1      24.250   3.181  49.819  1.00  0.00    -0.279 NA
ENDROOT
BRANCH   7  10
HETATM   10  N1  UNL     1      26.286   2.016  52.345  1.00  0.00    -0.379 N 
HETATM   11  H18 UNL     1      26.390   2.323  51.158  1.00  0.00     0.160 HD
BRANCH  10  12
HETATM   12  C14 UNL     1      27.321   1.148  52.725  1.00  0.00     0.029 A 
HETATM   13  C15 UNL     1      28.214   1.980  53.564  1.00  0.00     0.029 A 
HETATM   14  C16 UNL     1      29.161   1.101  54.132  1.00  0.00     0.003 A 
HETATM   15  C17 UNL     1      29.333  -0.177  54.028  1.00  0.00     0.009 A 
HETATM   16  C18 UNL     1      28.417  -0.762  53.213  1.00  0.00    -0.033 A 
HETATM   17  C20 UNL     1      27.373  -0.300  52.495  1.00  0.00     0.038 A 
BRANCH  16  18
HETATM   18  C19 UNL     1      28.471  -2.284  53.066  1.00  0.00     0.203 C 
BRANCH  18  19
HETATM   19  O5  UNL     1      27.195  -2.729  52.983  1.00  0.00    -0.396 OA
HETATM   20  H24 UNL     1      27.080  -3.634  53.440  1.00  0.00     0.209 HD
ENDBRANCH  18  19
ENDBRANCH  16  18
ENDBRANCH  10  12
ENDBRANCH   7  10
BRANCH   6  21
HETATM   21  O3  UNL     1      21.388   0.006  53.195  1.00  0.00    -0.346 OA
BRANCH  21  22
HETATM   22  C10 UNL     1      21.464  -0.127  54.606  1.00  0.00     0.201 C 
BRANCH  22  23
HETATM   23  C11 UNL     1      21.997  -1.606  54.741  1.00  0.00     0.193 C 
BRANCH  23  24
HETATM   24  O4  UNL     1      22.802  -1.769  55.788  1.00  0.00    -0.394 OA
HETATM   25  C12 UNL     1      24.107  -1.309  55.461  1.00  0.00     0.201 C 
ENDBRANCH  23  24
ENDBRANCH  22  23
ENDBRANCH  21  22
ENDBRANCH   6  21
BRANCH   1  26
HETATM   26  O2  UNL     1      20.276   0.156  50.963  1.00  0.00    -0.346 OA
BRANCH  26  27
HETATM   27  C3  UNL     1      19.151   1.040  51.124  1.00  0.00     0.201 C 
BRANCH  27  28
HETATM   28  C2  UNL     1      18.608   1.485  49.839  1.00  0.00     0.193 C 
BRANCH  28  29
HETATM   29  O1  UNL     1      18.936   2.867  49.579  1.00  0.00    -0.394 OA
HETATM   30  C1  UNL     1      19.508   2.860  48.267  1.00  0.00     0.201 C 
ENDBRANCH  28  29
ENDBRANCH  27  28
ENDBRANCH  26  27
ENDBRANCH   1  26
TORSDOF 12
ENDMDL
MODEL 4
REMARK VINA RESULT:      -6.7      1.295      1.604
REMARK  12 active torsions:
REMARK  status: ('A' for Active; 'I' for Inactive)
REMARK    1  A    between atoms: O1_2  and  C2_3 
REMARK    2  A    between atoms: C2_3  and  C3_4 
REMARK    3  A    between atoms: C3_4  and  O2_5 
REMARK    4  A    between atoms: O2_5  and  C4_6 
REMARK    5  A    between atoms: C9_11  and  O3_12 
REMARK    6  A    between atoms: O3_12  and  C10_13 
REMARK    7  A    between atoms: C10_13  and  C11_14 
REMARK    8  A    between atoms: C11_14  and  O4_15 
REMARK    9  A    between atoms: C13_17  and  N1_18 
REMARK   10  A    between atoms: N1_18  and  C14_19 
REMARK   11  A    between atoms: C18_23  and  C19_24 
REMARK   12  A    between atoms: C19_24  and  O5_25 
ROOT
HETATM    1  C4  UNL     1      22.681   0.962  52.351  1.00  0.00     0.104 A 
HETATM    2  C5  UNL     1      21.815   1.894  51.562  1.00  0.00     0.071 A 
HETATM    3  C6  UNL     1      21.923   3.252  51.282  1.00  0.00     0.063 A 
HETATM    4  C7  UNL     1      23.042   3.697  51.865  1.00  0.00    -0.002 A 
HETATM    5  C8  UNL     1      24.101   3.091  52.677  1.00  0.00     0.051 A 
HETATM    6  C9  UNL     1      23.724   1.801  52.781  1.00  0.00     0.102 A 
HETATM    7  C13 UNL     1      23.362   5.202  51.926  1.00  0.00     0.144 A 
HETATM    8  C21 UNL     1      22.059   5.502  51.160  1.00  0.00     0.163 A 
HETATM    9  N2  UNL     1      21.276   4.400  50.798  1.00  0.00    -0.279 NA
ENDROOT
BRANCH   7  10
HETATM   10  N1  UNL     1      24.510   5.545  51.125  1.00  0.00    -0.379 N 
HETATM   11  H18 UNL     1      24.279   6.599  51.717  1.00  0.00     0.160 HD
BRANCH  10  12
HETATM   12  C14 UNL     1      25.591   5.699  50.243  1.00  0.00     0.029 A 
HETATM   13  C15 UNL     1      26.123   4.328  50.066  1.00  0.00     0.029 A 
HETATM   14  C16 UNL     1      27.083   4.402  49.035  1.00  0.00     0.003 A 
HETATM   15  C17 UNL     1      27.511   5.389  48.314  1.00  0.00     0.009 A 
HETATM   16  C18 UNL     1      26.906   6.564  48.627  1.00  0.00    -0.033 A 
HETATM   17  C20 UNL     1      25.961   6.921  49.521  1.00  0.00     0.038 A 
BRANCH  16  18
HETATM   18  C19 UNL     1      27.274   7.794  47.795  1.00  0.00     0.203 C 
BRANCH  18  19
HETATM   19  O5  UNL     1      28.624   7.882  47.775  1.00  0.00    -0.396 OA
HETATM   20  H24 UNL     1      29.048   7.380  48.554  1.00  0.00     0.209 HD
ENDBRANCH  18  19
ENDBRANCH  16  18
ENDBRANCH  10  12
ENDBRANCH   7  10
BRANCH   6  21
HETATM   21  O3  UNL     1      24.279   0.738  53.488  1.00  0.00    -0.346 OA
BRANCH  21  22
HETATM   22  C10 UNL     1      25.564   0.220  53.179  1.00  0.00     0.201 C 
BRANCH  22  23
HETATM   23  C11 UNL     1      26.373   0.626  54.470  1.00  0.00     0.193 C 
BRANCH  23  24
HETATM   24  O4  UNL     1      27.160  -0.352  54.914  1.00  0.00    -0.394 OA
HETATM   25  C12 UNL     1      28.518   0.062  54.842  1.00  0.00     0.201 C 
ENDBRANCH  23  24
ENDBRANCH  22  23
ENDBRANCH  21  22
ENDBRANCH   6  21
BRANCH   1  26
HETATM   26  O2  UNL     1      22.266  -0.340  52.474  1.00  0.00    -0.346 OA
BRANCH  26  27
HETATM   27  C3  UNL     1      21.073  -0.514  53.261  1.00  0.00     0.201 C 
BRANCH  27  28
HETATM   28  C2  UNL     1      21.360  -0.560  54.697  1.00  0.00     0.193 C 
BRANCH  28  29
HETATM   29  O1  UNL     1      21.911  -1.837  55.084  1.00  0.00    -0.394 OA
HETATM   30  C1  UNL     1      23.206  -1.527  55.608  1.00  0.00     0.201 C 
ENDBRANCH  28  29
ENDBRANCH  27  28
ENDBRANCH  26  27
ENDBRANCH   1  26
TORSDOF 12
ENDMDL
MODEL 5
REMARK VINA RESULT:      -6.4      4.426      7.341
REMARK  12 active torsions:
REMARK  status: ('A' for Active; 'I' for Inactive)
REMARK    1  A    between atoms: O1_2  and  C2_3 
REMARK    2  A    between atoms: C2_3  and  C3_4 
REMARK    3  A    between atoms: C3_4  and  O2_5 
REMARK    4  A    between atoms: O2_5  and  C4_6 
REMARK    5  A    between atoms: C9_11  and  O3_12 
REMARK    6  A    between atoms: O3_12  and  C10_13 
REMARK    7  A    between atoms: C10_13  and  C11_14 
REMARK    8  A    between atoms: C11_14  and  O4_15 
REMARK    9  A    between atoms: C13_17  and  N1_18 
REMARK   10  A    between atoms: N1_18  and  C14_19 
REMARK   11  A    between atoms: C18_23  and  C19_24 
REMARK   12  A    between atoms: C19_24  and  O5_25 
ROOT
HETATM    1  C4  UNL     1      20.620   2.490  51.663  1.00  0.00     0.104 A 
HETATM    2  C5  UNL     1      20.505   1.939  53.050  1.00  0.00     0.071 A 
HETATM    3  C6  UNL     1      21.152   0.888  53.691  1.00  0.00     0.063 A 
HETATM    4  C7  UNL     1      22.015   0.353  52.820  1.00  0.00    -0.002 A 
HETATM    5  C8  UNL     1      22.391   0.629  51.431  1.00  0.00     0.051 A 
HETATM    6  C9  UNL     1      21.609   1.672  51.089  1.00  0.00     0.102 A 
HETATM    7  C13 UNL     1      22.752  -0.961  53.136  1.00  0.00     0.144 A 
HETATM    8  C21 UNL     1      22.048  -1.016  54.506  1.00  0.00     0.163 A 
HETATM    9  N2  UNL     1      21.168   0.031  54.803  1.00  0.00    -0.279 NA
ENDROOT
BRANCH   7  10
HETATM   10  N1  UNL     1      24.169  -0.761  53.303  1.00  0.00    -0.379 N 
HETATM   11  H18 UNL     1      23.752  -0.664  54.457  1.00  0.00     0.160 HD
BRANCH  10  12
HETATM   12  C14 UNL     1      25.555  -0.544  53.259  1.00  0.00     0.029 A 
HETATM   13  C15 UNL     1      25.735   0.823  53.798  1.00  0.00     0.029 A 
HETATM   14  C16 UNL     1      27.124   1.010  53.959  1.00  0.00     0.003 A 
HETATM   15  C17 UNL     1      28.138   0.242  53.724  1.00  0.00     0.009 A 
HETATM   16  C18 UNL     1      27.770  -0.970  53.231  1.00  0.00    -0.033 A 
HETATM   17  C20 UNL     1      26.584  -1.539  52.935  1.00  0.00     0.038 A 
BRANCH  16  18
HETATM   18  C19 UNL     1      28.876  -1.997  52.980  1.00  0.00     0.203 C 
BRANCH  18  19
HETATM   19  O5  UNL     1      28.289  -3.214  52.896  1.00  0.00    -0.396 OA
HETATM   20  H24 UNL     1      27.731  -3.422  53.724  1.00  0.00     0.209 HD
ENDBRANCH  18  19
ENDBRANCH  16  18
ENDBRANCH  10  12
ENDBRANCH   7  10
BRANCH   6  21
HETATM   21  O3  UNL     1      21.450   2.341  49.878  1.00  0.00    -0.346 OA
BRANCH  21  22
HETATM   22  C10 UNL     1      21.053   1.666  48.694  1.00  0.00     0.201 C 
BRANCH  22  23
HETATM   23  C11 UNL     1      20.900   2.876  47.694  1.00  0.00     0.193 C 
BRANCH  23  24
HETATM   24  O4  UNL     1      21.658   3.919  48.026  1.00  0.00    -0.394 OA
HETATM   25  C12 UNL     1      21.903   4.714  46.873  1.00  0.00     0.201 C 
ENDBRANCH  23  24
ENDBRANCH  22  23
ENDBRANCH  21  22
ENDBRANCH   6  21
BRANCH   1  26
HETATM   26  O2  UNL     1      19.793   3.530  51.321  1.00  0.00    -0.346 OA
BRANCH  26  27
HETATM   27  C3  UNL     1      18.394   3.276  51.541  1.00  0.00     0.201 C 
BRANCH  27  28
HETATM   28  C2  UNL     1      17.813   2.438  50.491  1.00  0.00     0.193 C 
BRANCH  28  29
HETATM   29  O1  UNL     1      17.166   1.271  51.044  1.00  0.00    -0.394 OA
HETATM   30  C1  UNL     1      17.948   0.169  50.573  1.00  0.00     0.201 C 
ENDBRANCH  28  29
ENDBRANCH  27  28
ENDBRANCH  26  27
ENDBRANCH   1  26
TORSDOF 12
ENDMDL
MODEL 6
REMARK VINA RESULT:      -6.3      2.938      8.743
REMARK  12 active torsions:
REMARK  status: ('A' for Active; 'I' for Inactive)
REMARK    1  A    between atoms: O1_2  and  C2_3 
REMARK    2  A    between atoms: C2_3  and  C3_4 
REMARK    3  A    between atoms: C3_4  and  O2_5 
REMARK    4  A    between atoms: O2_5  and  C4_6 
REMARK    5  A    between atoms: C9_11  and  O3_12 
REMARK    6  A    between atoms: O3_12  and  C10_13 
REMARK    7  A    between atoms: C10_13  and  C11_14 
REMARK    8  A    between atoms: C11_14  and  O4_15 
REMARK    9  A    between atoms: C13_17  and  N1_18 
REMARK   10  A    between atoms: N1_18  and  C14_19 
REMARK   11  A    between atoms: C18_23  and  C19_24 
REMARK   12  A    between atoms: C19_24  and  O5_25 
ROOT
HETATM    1  C4  UNL     1      25.454   4.628  49.713  1.00  0.00     0.104 A 
HETATM    2  C5  UNL     1      26.357   3.468  49.995  1.00  0.00     0.071 A 
HETATM    3  C6  UNL     1      26.361   2.515  51.007  1.00  0.00     0.063 A 
HETATM    4  C7  UNL     1      25.322   2.774  51.809  1.00  0.00    -0.002 A 
HETATM    5  C8  UNL     1      24.258   3.781  51.836  1.00  0.00     0.051 A 
HETATM    6  C9  UNL     1      24.518   4.549  50.760  1.00  0.00     0.102 A 
HETATM    7  C13 UNL     1      25.147   2.032  53.147  1.00  0.00     0.144 A 
HETATM    8  C21 UNL     1      26.429   1.226  52.858  1.00  0.00     0.163 A 
HETATM    9  N2  UNL     1      27.085   1.501  51.653  1.00  0.00    -0.279 NA
ENDROOT
BRANCH   7  10
HETATM   10  N1  UNL     1      23.994   1.168  53.141  1.00  0.00    -0.379 N 
HETATM   11  H18 UNL     1      23.877   1.770  52.074  1.00  0.00     0.160 HD
BRANCH  10  12
HETATM   12  C14 UNL     1      22.914   0.293  53.337  1.00  0.00     0.029 A 
HETATM   13  C15 UNL     1      23.413  -0.698  54.318  1.00  0.00     0.029 A 
HETATM   14  C16 UNL     1      22.301  -1.479  54.698  1.00  0.00     0.003 A 
HETATM   15  C17 UNL     1      21.057  -1.451  54.343  1.00  0.00     0.009 A 
HETATM   16  C18 UNL     1      20.795  -0.476  53.435  1.00  0.00    -0.033 A 
HETATM   17  C20 UNL     1      21.549   0.463  52.827  1.00  0.00     0.038 A 
BRANCH  16  18
HETATM   18  C19 UNL     1      19.343  -0.292  52.990  1.00  0.00     0.203 C 
BRANCH  18  19
HETATM   19  O5  UNL     1      18.560  -0.955  53.873  1.00  0.00    -0.396 OA
HETATM   20  H24 UNL     1      19.101  -1.323  54.656  1.00  0.00     0.209 HD
ENDBRANCH  18  19
ENDBRANCH  16  18
ENDBRANCH  10  12
ENDBRANCH   7  10
BRANCH   6  21
HETATM   21  O3  UNL     1      23.906   5.709  50.292  1.00  0.00    -0.346 OA
BRANCH  21  22
HETATM   22  C10 UNL     1      23.781   6.870  51.099  1.00  0.00     0.201 C 
BRANCH  22  23
HETATM   23  C11 UNL     1      22.738   7.708  50.263  1.00  0.00     0.193 C 
BRANCH  23  24
HETATM   24  O4  UNL     1      21.510   7.657  50.774  1.00  0.00    -0.394 OA
HETATM   25  C12 UNL     1      20.587   7.297  49.754  1.00  0.00     0.201 C 
ENDBRANCH  23  24
ENDBRANCH  22  23
ENDBRANCH  21  22
ENDBRANCH   6  21
BRANCH   1  26
HETATM   26  O2  UNL     1      25.752   5.419  48.632  1.00  0.00    -0.346 OA
BRANCH  26  27
HETATM   27  C3  UNL     1      27.105   5.909  48.607  1.00  0.00     0.201 C 
BRANCH  27  28
HETATM   28  C2  UNL     1      27.173   7.327  48.250  1.00  0.00     0.193 C 
BRANCH  28  29
HETATM   29  O1  UNL     1      27.733   8.115  49.323  1.00  0.00    -0.394 OA
HETATM   30  C1  UNL     1      26.642   8.916  49.788  1.00  0.00     0.201 C 
ENDBRANCH  28  29
ENDBRANCH  27  28
ENDBRANCH  26  27
ENDBRANCH   1  26
TORSDOF 12
ENDMDL
MODEL 7
REMARK VINA RESULT:      -6.1      3.063      6.465
REMARK  12 active torsions:
REMARK  status: ('A' for Active; 'I' for Inactive)
REMARK    1  A    between atoms: O1_2  and  C2_3 
REMARK    2  A    between atoms: C2_3  and  C3_4 
REMARK    3  A    between atoms: C3_4  and  O2_5 
REMARK    4  A    between atoms: O2_5  and  C4_6 
REMARK    5  A    between atoms: C9_11  and  O3_12 
REMARK    6  A    between atoms: O3_12  and  C10_13 
REMARK    7  A    between atoms: C10_13  and  C11_14 
REMARK    8  A    between atoms: C11_14  and  O4_15 
REMARK    9  A    between atoms: C13_17  and  N1_18 
REMARK   10  A    between atoms: N1_18  and  C14_19 
REMARK   11  A    between atoms: C18_23  and  C19_24 
REMARK   12  A    between atoms: C19_24  and  O5_25 
ROOT
HETATM    1  C4  UNL     1      21.592   3.247  51.600  1.00  0.00     0.104 A 
HETATM    2  C5  UNL     1      21.200   2.418  52.783  1.00  0.00     0.071 A 
HETATM    3  C6  UNL     1      21.703   1.226  53.294  1.00  0.00     0.063 A 
HETATM    4  C7  UNL     1      22.723   0.852  52.513  1.00  0.00    -0.002 A 
HETATM    5  C8  UNL     1      23.372   1.400  51.319  1.00  0.00     0.051 A 
HETATM    6  C9  UNL     1      22.675   2.526  51.066  1.00  0.00     0.102 A 
HETATM    7  C13 UNL     1      23.380  -0.532  52.673  1.00  0.00     0.144 A 
HETATM    8  C21 UNL     1      22.414  -0.846  53.833  1.00  0.00     0.163 A 
HETATM    9  N2  UNL     1      21.495   0.152  54.173  1.00  0.00    -0.279 NA
ENDROOT
BRANCH   7  10
HETATM   10  N1  UNL     1      24.735  -0.436  53.155  1.00  0.00    -0.379 N 
HETATM   11  H18 UNL     1      24.078  -0.235  54.176  1.00  0.00     0.160 HD
BRANCH  10  12
HETATM   12  C14 UNL     1      26.109  -0.335  53.422  1.00  0.00     0.029 A 
HETATM   13  C15 UNL     1      26.673  -1.623  52.955  1.00  0.00     0.029 A 
HETATM   14  C16 UNL     1      28.076  -1.490  53.018  1.00  0.00     0.003 A 
HETATM   15  C17 UNL     1      28.842  -0.515  53.388  1.00  0.00     0.009 A 
HETATM   16  C18 UNL     1      28.140   0.578  53.784  1.00  0.00    -0.033 A 
HETATM   17  C20 UNL     1      26.824   0.863  53.875  1.00  0.00     0.038 A 
BRANCH  16  18
HETATM   18  C19 UNL     1      28.933   1.826  54.177  1.00  0.00     0.203 C 
BRANCH  18  19
HETATM   19  O5  UNL     1      28.095   2.885  54.090  1.00  0.00    -0.396 OA
HETATM   20  H24 UNL     1      27.131   2.622  54.294  1.00  0.00     0.209 HD
ENDBRANCH  18  19
ENDBRANCH  16  18
ENDBRANCH  10  12
ENDBRANCH   7  10
BRANCH   6  21
HETATM   21  O3  UNL     1      22.764   3.445  50.023  1.00  0.00    -0.346 OA
BRANCH  21  22
HETATM   22  C10 UNL     1      24.008   3.801  49.441  1.00  0.00     0.201 C 
BRANCH  22  23
HETATM   23  C11 UNL     1      24.334   5.135  50.216  1.00  0.00     0.193 C 
BRANCH  23  24
HETATM   24  O4  UNL     1      25.459   5.711  49.801  1.00  0.00    -0.394 OA
HETATM   25  C12 UNL     1      25.520   7.044  50.292  1.00  0.00     0.201 C 
ENDBRANCH  23  24
ENDBRANCH  22  23
ENDBRANCH  21  22
ENDBRANCH   6  21
BRANCH   1  26
HETATM   26  O2  UNL     1      20.852   4.372  51.338  1.00  0.00    -0.346 OA
BRANCH  26  27
HETATM   27  C3  UNL     1      19.479   4.115  50.992  1.00  0.00     0.201 C 
BRANCH  27  28
HETATM   28  C2  UNL     1      19.253   4.172  49.546  1.00  0.00     0.193 C 
BRANCH  28  29
HETATM   29  O1  UNL     1      19.020   2.857  48.997  1.00  0.00    -0.394 OA
HETATM   30  C1  UNL     1      18.340   2.148  50.037  1.00  0.00     0.201 C 
ENDBRANCH  28  29
ENDBRANCH  27  28
ENDBRANCH  26  27
ENDBRANCH   1  26
TORSDOF 12
ENDMDL
MODEL 8
REMARK VINA RESULT:      -6.1      5.796     10.677
REMARK  12 active torsions:
REMARK  status: ('A' for Active; 'I' for Inactive)
REMARK    1  A    between atoms: O1_2  and  C2_3 
REMARK    2  A    between atoms: C2_3  and  C3_4 
REMARK    3  A    between atoms: C3_4  and  O2_5 
REMARK    4  A    between atoms: O2_5  and  C4_6 
REMARK    5  A    between atoms: C9_11  and  O3_12 
REMARK    6  A    between atoms: O3_12  and  C10_13 
REMARK    7  A    between atoms: C10_13  and  C11_14 
REMARK    8  A    between atoms: C11_14  and  O4_15 
REMARK    9  A    between atoms: C13_17  and  N1_18 
REMARK   10  A    between atoms: N1_18  and  C14_19 
REMARK   11  A    between atoms: C18_23  and  C19_24 
REMARK   12  A    between atoms: C19_24  and  O5_25 
ROOT
HETATM    1  C4  UNL     1      32.912   7.298  47.451  1.00  0.00     0.104 A 
HETATM    2  C5  UNL     1      32.495   8.277  48.503  1.00  0.00     0.071 A 
HETATM    3  C6  UNL     1      31.248   8.758  48.887  1.00  0.00     0.063 A 
HETATM    4  C7  UNL     1      30.331   8.162  48.116  1.00  0.00    -0.002 A 
HETATM    5  C8  UNL     1      30.369   7.179  47.030  1.00  0.00     0.051 A 
HETATM    6  C9  UNL     1      31.683   6.915  46.884  1.00  0.00     0.102 A 
HETATM    7  C13 UNL     1      28.859   8.616  48.136  1.00  0.00     0.144 A 
HETATM    8  C21 UNL     1      29.210   9.673  49.202  1.00  0.00     0.163 A 
HETATM    9  N2  UNL     1      30.545   9.728  49.617  1.00  0.00    -0.279 NA
ENDROOT
BRANCH   7  10
HETATM   10  N1  UNL     1      27.990   7.609  48.689  1.00  0.00    -0.379 N 
HETATM   11  H18 UNL     1      28.939   7.595  49.472  1.00  0.00     0.160 HD
BRANCH  10  12
HETATM   12  C14 UNL     1      27.039   6.640  49.047  1.00  0.00     0.029 A 
HETATM   13  C15 UNL     1      27.609   5.363  48.558  1.00  0.00     0.029 A 
HETATM   14  C16 UNL     1      26.788   4.337  49.069  1.00  0.00     0.003 A 
HETATM   15  C17 UNL     1      25.730   4.359  49.814  1.00  0.00     0.009 A 
HETATM   16  C18 UNL     1      25.361   5.621  50.157  1.00  0.00    -0.033 A 
HETATM   17  C20 UNL     1      25.857   6.847  49.890  1.00  0.00     0.038 A 
BRANCH  16  18
HETATM   18  C19 UNL     1      24.164   5.778  51.098  1.00  0.00     0.203 C 
BRANCH  18  19
HETATM   19  O5  UNL     1      24.410   6.845  51.893  1.00  0.00    -0.396 OA
HETATM   20  H24 UNL     1      25.410   7.020  51.994  1.00  0.00     0.209 HD
ENDBRANCH  18  19
ENDBRANCH  16  18
ENDBRANCH  10  12
ENDBRANCH   7  10
BRANCH   6  21
HETATM   21  O3  UNL     1      32.361   6.117  45.967  1.00  0.00    -0.346 OA
BRANCH  21  22
HETATM   22  C10 UNL     1      32.500   6.491  44.605  1.00  0.00     0.201 C 
BRANCH  22  23
HETATM   23  C11 UNL     1      33.252   5.233  44.021  1.00  0.00     0.193 C 
BRANCH  23  24
HETATM   24  O4  UNL     1      33.722   5.438  42.793  1.00  0.00    -0.394 OA
HETATM   25  C12 UNL     1      32.650   5.783  41.926  1.00  0.00     0.201 C 
ENDBRANCH  23  24
ENDBRANCH  22  23
ENDBRANCH  21  22
ENDBRANCH   6  21
BRANCH   1  26
HETATM   26  O2  UNL     1      34.255   7.065  47.293  1.00  0.00    -0.346 OA
BRANCH  26  27
HETATM   27  C3  UNL     1      34.942   6.696  48.503  1.00  0.00     0.201 C 
BRANCH  27  28
HETATM   28  C2  UNL     1      35.018   5.243  48.673  1.00  0.00     0.193 C 
BRANCH  28  29
HETATM   29  O1  UNL     1      34.970   4.560  47.402  1.00  0.00    -0.394 OA
HETATM   30  C1  UNL     1      34.565   3.226  47.726  1.00  0.00     0.201 C 
ENDBRANCH  28  29
ENDBRANCH  27  28
ENDBRANCH  26  27
ENDBRANCH   1  26
TORSDOF 12
ENDMDL
MODEL 9
REMARK VINA RESULT:      -6.0      3.387      5.557
REMARK  12 active torsions:
REMARK  status: ('A' for Active; 'I' for Inactive)
REMARK    1  A    between atoms: O1_2  and  C2_3 
REMARK    2  A    between atoms: C2_3  and  C3_4 
REMARK    3  A    between atoms: C3_4  and  O2_5 
REMARK    4  A    between atoms: O2_5  and  C4_6 
REMARK    5  A    between atoms: C9_11  and  O3_12 
REMARK    6  A    between atoms: O3_12  and  C10_13 
REMARK    7  A    between atoms: C10_13  and  C11_14 
REMARK    8  A    between atoms: C11_14  and  O4_15 
REMARK    9  A    between atoms: C13_17  and  N1_18 
REMARK   10  A    between atoms: N1_18  and  C14_19 
REMARK   11  A    between atoms: C18_23  and  C19_24 
REMARK   12  A    between atoms: C19_24  and  O5_25 
ROOT
HETATM    1  C4  UNL     1      20.430   0.912  51.250  1.00  0.00     0.104 A 
HETATM    2  C5  UNL     1      21.231   1.355  50.066  1.00  0.00     0.071 A 
HETATM    3  C6  UNL     1      22.458   2.001  49.961  1.00  0.00     0.063 A 
HETATM    4  C7  UNL     1      22.916   2.203  51.202  1.00  0.00    -0.002 A 
HETATM    5  C8  UNL     1      22.425   1.904  52.550  1.00  0.00     0.051 A 
HETATM    6  C9  UNL     1      21.241   1.299  52.332  1.00  0.00     0.102 A 
HETATM    7  C13 UNL     1      24.158   3.075  51.458  1.00  0.00     0.144 A 
HETATM    8  C21 UNL     1      24.298   3.308  49.941  1.00  0.00     0.163 A 
HETATM    9  N2  UNL     1      23.347   2.689  49.121  1.00  0.00    -0.279 NA
ENDROOT
BRANCH   7  10
HETATM   10  N1  UNL     1      25.269   2.304  51.956  1.00  0.00    -0.379 N 
HETATM   11  H18 UNL     1      25.736   2.807  50.935  1.00  0.00     0.160 HD
BRANCH  10  12
HETATM   12  C14 UNL     1      26.211   1.462  52.568  1.00  0.00     0.029 A 
HETATM   13  C15 UNL     1      25.782   0.094  52.198  1.00  0.00     0.029 A 
HETATM   14  C16 UNL     1      26.809  -0.775  52.622  1.00  0.00     0.003 A 
HETATM   15  C17 UNL     1      27.936  -0.563  53.221  1.00  0.00     0.009 A 
HETATM   16  C18 UNL     1      28.150   0.754  53.478  1.00  0.00    -0.033 A 
HETATM   17  C20 UNL     1      27.444   1.879  53.245  1.00  0.00     0.038 A 
BRANCH  16  18
HETATM   18  C19 UNL     1      29.483   1.143  54.119  1.00  0.00     0.203 C 
BRANCH  18  19
HETATM   19  O5  UNL     1      29.249   2.193  54.940  1.00  0.00    -0.396 OA
HETATM   20  H24 UNL     1      28.648   2.890  54.501  1.00  0.00     0.209 HD
ENDBRANCH  18  19
ENDBRANCH  16  18
ENDBRANCH  10  12
ENDBRANCH   7  10
BRANCH   6  21
HETATM   21  O3  UNL     1      20.266   0.846  53.217  1.00  0.00    -0.346 OA
BRANCH  21  22
HETATM   22  C10 UNL     1      20.332  -0.440  53.813  1.00  0.00     0.201 C 
BRANCH  22  23
HETATM   23  C11 UNL     1      21.717  -0.355  54.562  1.00  0.00     0.193 C 
BRANCH  23  24
HETATM   24  O4  UNL     1      22.007  -1.465  55.237  1.00  0.00    -0.394 OA
HETATM   25  C12 UNL     1      23.379  -1.449  55.610  1.00  0.00     0.201 C 
ENDBRANCH  23  24
ENDBRANCH  22  23
ENDBRANCH  21  22
ENDBRANCH   6  21
BRANCH   1  26
HETATM   26  O2  UNL     1      19.211   0.328  51.012  1.00  0.00    -0.346 OA
BRANCH  26  27
HETATM   27  C3  UNL     1      18.134   1.259  50.802  1.00  0.00     0.201 C 
BRANCH  27  28
HETATM   28  C2  UNL     1      17.180   0.783  49.799  1.00  0.00     0.193 C 
BRANCH  28  29
HETATM   29  O1  UNL     1      16.876  -0.617  49.982  1.00  0.00    -0.394 OA
HETATM   30  C1  UNL     1      15.993  -0.937  48.903  1.00  0.00     0.201 C 
ENDBRANCH  28  29
ENDBRANCH  27  28
ENDBRANCH  26  27
ENDBRANCH   1  26
TORSDOF 12
ENDMDL
