MODEL 1
REMARK VINA RESULT:      -9.3      0.000      0.000
REMARK  5 active torsions:
REMARK  status: ('A' for Active; 'I' for Inactive)
REMARK    1  A    between atoms: C6_6  and  N1_7 
REMARK    2  A    between atoms: C9_11  and  N3_12 
REMARK    3  A    between atoms: N3_12  and  C10_13 
REMARK    4  A    between atoms: C10_13  and  C11_14 
REMARK    5  A    between atoms: O1_20  and  C17_21 
ROOT
HETATM    1  N1  UNL     1      24.951   0.536  53.071  1.00  0.00    -0.215 N 
HETATM    2  N2  UNL     1      24.208   1.118  52.130  1.00  0.00    -0.177 NA
HETATM    3  C7  UNL     1      22.920   0.789  52.328  1.00  0.00     0.158 A 
HETATM    4  C8  UNL     1      22.755  -0.042  53.435  1.00  0.00     0.077 A 
HETATM    5  C9  UNL     1      21.765  -0.718  54.167  1.00  0.00     0.140 A 
HETATM    6  N4  UNL     1      22.150  -1.434  55.226  1.00  0.00    -0.224 NA
HETATM    7  C18 UNL     1      23.428  -1.527  55.603  1.00  0.00     0.237 A 
HETATM    8  N5  UNL     1      24.370  -0.889  54.912  1.00  0.00    -0.221 NA
HETATM    9  C19 UNL     1      24.091  -0.148  53.841  1.00  0.00     0.168 A 
ENDROOT
BRANCH   5  10
HETATM   10  N3  UNL     1      20.558  -0.426  53.536  1.00  0.00    -0.370 N 
HETATM   11  H8  UNL     1      20.462  -1.437  53.171  1.00  0.00     0.161 HD
BRANCH  10  12
HETATM   12  C10 UNL     1      19.338  -0.133  52.898  1.00  0.00     0.159 C 
BRANCH  12  13
HETATM   13  C11 UNL     1      18.385  -1.215  53.029  1.00  0.00    -0.046 A 
HETATM   14  C12 UNL     1      17.240  -0.998  52.322  1.00  0.00    -0.007 A 
HETATM   15  C13 UNL     1      16.465  -2.065  52.514  1.00  0.00    -0.004 A 
HETATM   16  C14 UNL     1      16.132  -3.525  53.146  1.00  0.00     0.014 A 
HETATM   17  C17 UNL     1      15.171  -2.753  52.241  1.00  0.00     0.022 A 
HETATM   18  C15 UNL     1      17.184  -2.985  53.388  1.00  0.00     0.006 A 
HETATM   19  O1  UNL     1      15.822  -3.754  53.119  1.00  0.00     0.000 OA
HETATM   20  C16 UNL     1      18.406  -2.403  53.693  1.00  0.00    -0.006 A 
ENDBRANCH  12  13
ENDBRANCH  10  12
ENDBRANCH   5  10
BRANCH   1  21
HETATM   21  C6  UNL     1      26.363   0.617  53.240  1.00  0.00     0.061 A 
HETATM   22  C5  UNL     1      26.846   1.894  53.425  1.00  0.00     0.032 A 
HETATM   23  C4  UNL     1      28.216   2.109  53.601  1.00  0.00     0.003 A 
HETATM   24  C3  UNL     1      29.046   0.981  53.577  1.00  0.00     0.007 A 
HETATM   25  C2  UNL     1      28.521  -0.296  53.387  1.00  0.00    -0.060 A 
HETATM   26  C1  UNL     1      29.397  -1.498  53.360  1.00  0.00     0.048 C 
HETATM   27  C20 UNL     1      27.169  -0.503  53.215  1.00  0.00     0.038 A 
ENDBRANCH   1  21
TORSDOF 5
ENDMDL
MODEL 2
REMARK VINA RESULT:      -8.9      5.316      8.534
REMARK  5 active torsions:
REMARK  status: ('A' for Active; 'I' for Inactive)
REMARK    1  A    between atoms: C6_6  and  N1_7 
REMARK    2  A    between atoms: C9_11  and  N3_12 
REMARK    3  A    between atoms: N3_12  and  C10_13 
REMARK    4  A    between atoms: C10_13  and  C11_14 
REMARK    5  A    between atoms: O1_20  and  C17_21 
ROOT
HETATM    1  N1  UNL     1      26.358   4.457  49.653  1.00  0.00    -0.215 N 
HETATM    2  N2  UNL     1      26.889   3.238  49.739  1.00  0.00    -0.177 NA
HETATM    3  C7  UNL     1      26.185   2.518  50.630  1.00  0.00     0.158 A 
HETATM    4  C8  UNL     1      25.135   3.250  51.182  1.00  0.00     0.077 A 
HETATM    5  C9  UNL     1      24.079   3.139  52.101  1.00  0.00     0.140 A 
HETATM    6  N4  UNL     1      23.296   4.204  52.287  1.00  0.00    -0.224 NA
HETATM    7  C18 UNL     1      23.485   5.355  51.636  1.00  0.00     0.237 A 
HETATM    8  N5  UNL     1      24.485   5.465  50.764  1.00  0.00    -0.221 NA
HETATM    9  C19 UNL     1      25.322   4.462  50.507  1.00  0.00     0.168 A 
ENDROOT
BRANCH   5  10
HETATM   10  N3  UNL     1      24.145   1.840  52.603  1.00  0.00    -0.370 N 
HETATM   11  H8  UNL     1      23.515   2.093  53.442  1.00  0.00     0.161 HD
BRANCH  10  12
HETATM   12  C10 UNL     1      24.211   0.528  53.110  1.00  0.00     0.159 C 
BRANCH  12  13
HETATM   13  C11 UNL     1      25.573   0.043  53.176  1.00  0.00    -0.046 A 
HETATM   14  C12 UNL     1      26.308   0.667  54.140  1.00  0.00    -0.007 A 
HETATM   15  C13 UNL     1      27.524   0.121  54.105  1.00  0.00    -0.004 A 
HETATM   16  C14 UNL     1      28.638  -0.911  53.527  1.00  0.00     0.014 A 
HETATM   17  C17 UNL     1      28.908   0.084  54.656  1.00  0.00     0.022 A 
HETATM   18  C15 UNL     1      27.525  -0.895  53.059  1.00  0.00     0.006 A 
HETATM   19  O1  UNL     1      29.008  -0.971  53.619  1.00  0.00     0.000 OA
HETATM   20  C16 UNL     1      26.260  -0.911  52.491  1.00  0.00    -0.006 A 
ENDBRANCH  12  13
ENDBRANCH  10  12
ENDBRANCH   5  10
BRANCH   1  21
HETATM   21  C6  UNL     1      26.786   5.538  48.832  1.00  0.00     0.061 A 
HETATM   22  C5  UNL     1      28.128   5.524  48.521  1.00  0.00     0.032 A 
HETATM   23  C4  UNL     1      28.676   6.533  47.723  1.00  0.00     0.003 A 
HETATM   24  C3  UNL     1      27.804   7.533  47.271  1.00  0.00     0.007 A 
HETATM   25  C2  UNL     1      26.451   7.513  47.608  1.00  0.00    -0.060 A 
HETATM   26  C1  UNL     1      25.521   8.571  47.132  1.00  0.00     0.048 C 
HETATM   27  C20 UNL     1      25.917   6.517  48.394  1.00  0.00     0.038 A 
ENDBRANCH   1  21
TORSDOF 5
ENDMDL
MODEL 3
REMARK VINA RESULT:      -8.9      2.658      3.822
REMARK  5 active torsions:
REMARK  status: ('A' for Active; 'I' for Inactive)
REMARK    1  A    between atoms: C6_6  and  N1_7 
REMARK    2  A    between atoms: C9_11  and  N3_12 
REMARK    3  A    between atoms: N3_12  and  C10_13 
REMARK    4  A    between atoms: C10_13  and  C11_14 
REMARK    5  A    between atoms: O1_20  and  C17_21 
ROOT
HETATM    1  N1  UNL     1      25.197   0.449  53.078  1.00  0.00    -0.215 N 
HETATM    2  N2  UNL     1      24.487   1.019  52.105  1.00  0.00    -0.177 NA
HETATM    3  C7  UNL     1      23.188   0.717  52.279  1.00  0.00     0.158 A 
HETATM    4  C8  UNL     1      22.983  -0.084  53.402  1.00  0.00     0.077 A 
HETATM    5  C9  UNL     1      21.965  -0.725  54.126  1.00  0.00     0.140 A 
HETATM    6  N4  UNL     1      22.311  -1.420  55.212  1.00  0.00    -0.224 NA
HETATM    7  C18 UNL     1      23.579  -1.524  55.622  1.00  0.00     0.237 A 
HETATM    8  N5  UNL     1      24.547  -0.919  54.939  1.00  0.00    -0.221 NA
HETATM    9  C19 UNL     1      24.307  -0.202  53.843  1.00  0.00     0.168 A 
ENDROOT
BRANCH   5  10
HETATM   10  N3  UNL     1      20.778  -0.430  53.458  1.00  0.00    -0.370 N 
HETATM   11  H8  UNL     1      20.204  -0.506  54.369  1.00  0.00     0.161 HD
BRANCH  10  12
HETATM   12  C10 UNL     1      19.578  -0.132  52.784  1.00  0.00     0.159 C 
BRANCH  12  13
HETATM   13  C11 UNL     1      19.753   0.928  51.813  1.00  0.00    -0.046 A 
HETATM   14  C12 UNL     1      19.891   2.154  52.393  1.00  0.00    -0.007 A 
HETATM   15  C13 UNL     1      20.060   3.027  51.400  1.00  0.00    -0.004 A 
HETATM   16  C14 UNL     1      20.195   3.439  49.833  1.00  0.00     0.014 A 
HETATM   17  C17 UNL     1      20.265   4.444  50.984  1.00  0.00     0.022 A 
HETATM   18  C15 UNL     1      20.023   2.286  50.144  1.00  0.00     0.006 A 
HETATM   19  O1  UNL     1      20.246   3.780  49.659  1.00  0.00     0.000 OA
HETATM   20  C16 UNL     1      19.824   0.949  50.454  1.00  0.00    -0.006 A 
ENDBRANCH  12  13
ENDBRANCH  10  12
ENDBRANCH   5  10
BRANCH   1  21
HETATM   21  C6  UNL     1      26.605   0.511  53.279  1.00  0.00     0.061 A 
HETATM   22  C5  UNL     1      27.098   1.780  53.489  1.00  0.00     0.032 A 
HETATM   23  C4  UNL     1      28.467   1.977  53.698  1.00  0.00     0.003 A 
HETATM   24  C3  UNL     1      29.285   0.839  53.680  1.00  0.00     0.007 A 
HETATM   25  C2  UNL     1      28.748  -0.430  53.464  1.00  0.00    -0.060 A 
HETATM   26  C1  UNL     1      29.610  -1.641  53.444  1.00  0.00     0.048 C 
HETATM   27  C20 UNL     1      27.399  -0.618  53.260  1.00  0.00     0.038 A 
ENDBRANCH   1  21
TORSDOF 5
ENDMDL
MODEL 4
REMARK VINA RESULT:      -8.4      1.472      2.498
REMARK  5 active torsions:
REMARK  status: ('A' for Active; 'I' for Inactive)
REMARK    1  A    between atoms: C6_6  and  N1_7 
REMARK    2  A    between atoms: C9_11  and  N3_12 
REMARK    3  A    between atoms: N3_12  and  C10_13 
REMARK    4  A    between atoms: C10_13  and  C11_14 
REMARK    5  A    between atoms: O1_20  and  C17_21 
ROOT
HETATM    1  N1  UNL     1      25.293  -0.010  53.879  1.00  0.00    -0.215 N 
HETATM    2  N2  UNL     1      24.684  -0.770  54.789  1.00  0.00    -0.177 NA
HETATM    3  C7  UNL     1      23.369  -0.811  54.512  1.00  0.00     0.158 A 
HETATM    4  C8  UNL     1      23.048  -0.061  53.380  1.00  0.00     0.077 A 
HETATM    5  C9  UNL     1      21.957   0.313  52.580  1.00  0.00     0.140 A 
HETATM    6  N4  UNL     1      22.192   1.104  51.530  1.00  0.00    -0.224 NA
HETATM    7  C18 UNL     1      23.416   1.544  51.224  1.00  0.00     0.237 A 
HETATM    8  N5  UNL     1      24.454   1.193  51.981  1.00  0.00    -0.221 NA
HETATM    9  C19 UNL     1      24.325   0.408  53.049  1.00  0.00     0.168 A 
ENDROOT
BRANCH   5  10
HETATM   10  N3  UNL     1      20.840  -0.298  53.148  1.00  0.00    -0.370 N 
HETATM   11  H8  UNL     1      20.217   0.555  52.930  1.00  0.00     0.161 HD
BRANCH  10  12
HETATM   12  C10 UNL     1      19.712  -0.914  53.722  1.00  0.00     0.159 C 
BRANCH  12  13
HETATM   13  C11 UNL     1      18.551  -0.822  52.862  1.00  0.00    -0.046 A 
HETATM   14  C12 UNL     1      18.772  -0.052  51.759  1.00  0.00    -0.007 A 
HETATM   15  C13 UNL     1      17.642  -0.064  51.053  1.00  0.00    -0.004 A 
HETATM   16  C14 UNL     1      16.102  -0.508  50.781  1.00  0.00     0.014 A 
HETATM   17  C17 UNL     1      16.902   0.400  49.845  1.00  0.00     0.022 A 
HETATM   18  C15 UNL     1      16.678  -0.891  51.770  1.00  0.00     0.006 A 
HETATM   19  O1  UNL     1      15.856  -0.424  50.496  1.00  0.00     0.000 OA
HETATM   20  C16 UNL     1      17.300  -1.355  52.920  1.00  0.00    -0.006 A 
ENDBRANCH  12  13
ENDBRANCH  10  12
ENDBRANCH   5  10
BRANCH   1  21
HETATM   21  C6  UNL     1      26.680   0.302  53.792  1.00  0.00     0.061 A 
HETATM   22  C5  UNL     1      26.965   1.650  53.794  1.00  0.00     0.032 A 
HETATM   23  C4  UNL     1      28.290   2.088  53.710  1.00  0.00     0.003 A 
HETATM   24  C3  UNL     1      29.283   1.104  53.626  1.00  0.00     0.007 A 
HETATM   25  C2  UNL     1      28.955  -0.251  53.626  1.00  0.00    -0.060 A 
HETATM   26  C1  UNL     1      30.005  -1.301  53.537  1.00  0.00     0.048 C 
HETATM   27  C20 UNL     1      27.648  -0.678  53.710  1.00  0.00     0.038 A 
ENDBRANCH   1  21
TORSDOF 5
ENDMDL
MODEL 5
REMARK VINA RESULT:      -8.3      4.253      6.578
REMARK  5 active torsions:
REMARK  status: ('A' for Active; 'I' for Inactive)
REMARK    1  A    between atoms: C6_6  and  N1_7 
REMARK    2  A    between atoms: C9_11  and  N3_12 
REMARK    3  A    between atoms: N3_12  and  C10_13 
REMARK    4  A    between atoms: C10_13  and  C11_14 
REMARK    5  A    between atoms: O1_20  and  C17_21 
ROOT
HETATM    1  N1  UNL     1      24.494   3.748  50.358  1.00  0.00    -0.215 N 
HETATM    2  N2  UNL     1      24.425   3.584  51.678  1.00  0.00    -0.177 NA
HETATM    3  C7  UNL     1      23.475   2.674  51.955  1.00  0.00     0.158 A 
HETATM    4  C8  UNL     1      22.863   2.188  50.800  1.00  0.00     0.077 A 
HETATM    5  C9  UNL     1      21.871   1.290  50.374  1.00  0.00     0.140 A 
HETATM    6  N4  UNL     1      21.649   1.179  49.062  1.00  0.00    -0.224 NA
HETATM    7  C18 UNL     1      22.332   1.886  48.157  1.00  0.00     0.237 A 
HETATM    8  N5  UNL     1      23.273   2.738  48.556  1.00  0.00    -0.221 NA
HETATM    9  C19 UNL     1      23.571   2.922  49.841  1.00  0.00     0.168 A 
ENDROOT
BRANCH   5  10
HETATM   10  N3  UNL     1      21.353   0.716  51.533  1.00  0.00    -0.370 N 
HETATM   11  H8  UNL     1      20.339   0.921  51.226  1.00  0.00     0.161 HD
BRANCH  10  12
HETATM   12  C10 UNL     1      20.829   0.135  52.704  1.00  0.00     0.159 C 
BRANCH  12  13
HETATM   13  C11 UNL     1      21.875  -0.324  53.594  1.00  0.00    -0.046 A 
HETATM   14  C12 UNL     1      23.121  -0.180  53.059  1.00  0.00    -0.007 A 
HETATM   15  C13 UNL     1      23.982  -0.620  53.977  1.00  0.00    -0.004 A 
HETATM   16  C14 UNL     1      24.368  -1.250  55.425  1.00  0.00     0.014 A 
HETATM   17  C17 UNL     1      25.400  -0.881  54.357  1.00  0.00     0.022 A 
HETATM   18  C15 UNL     1      23.213  -1.055  55.136  1.00  0.00     0.006 A 
HETATM   19  O1  UNL     1      24.707  -1.344  55.584  1.00  0.00     0.000 OA
HETATM   20  C16 UNL     1      21.871  -0.849  54.849  1.00  0.00    -0.006 A 
ENDBRANCH  12  13
ENDBRANCH  10  12
ENDBRANCH   5  10
BRANCH   1  21
HETATM   21  C6  UNL     1      25.362   4.612  49.631  1.00  0.00     0.061 A 
HETATM   22  C5  UNL     1      26.620   4.100  49.403  1.00  0.00     0.032 A 
HETATM   23  C4  UNL     1      27.568   4.852  48.702  1.00  0.00     0.003 A 
HETATM   24  C3  UNL     1      27.175   6.121  48.259  1.00  0.00     0.007 A 
HETATM   25  C2  UNL     1      25.892   6.606  48.510  1.00  0.00    -0.060 A 
HETATM   26  C1  UNL     1      25.468   7.952  48.043  1.00  0.00     0.048 C 
HETATM   27  C20 UNL     1      24.961   5.861  49.200  1.00  0.00     0.038 A 
ENDBRANCH   1  21
TORSDOF 5
ENDMDL
MODEL 6
REMARK VINA RESULT:      -8.2      6.486     11.279
REMARK  5 active torsions:
REMARK  status: ('A' for Active; 'I' for Inactive)
REMARK    1  A    between atoms: C6_6  and  N1_7 
REMARK    2  A    between atoms: C9_11  and  N3_12 
REMARK    3  A    between atoms: N3_12  and  C10_13 
REMARK    4  A    between atoms: C10_13  and  C11_14 
REMARK    5  A    between atoms: O1_20  and  C17_21 
ROOT
HETATM    1  N1  UNL     1      25.284   3.006  50.692  1.00  0.00    -0.215 N 
HETATM    2  N2  UNL     1      26.293   2.817  49.842  1.00  0.00    -0.177 NA
HETATM    3  C7  UNL     1      26.618   3.996  49.283  1.00  0.00     0.158 A 
HETATM    4  C8  UNL     1      25.818   5.037  49.753  1.00  0.00     0.077 A 
HETATM    5  C9  UNL     1      25.617   6.420  49.613  1.00  0.00     0.140 A 
HETATM    6  N4  UNL     1      24.651   6.987  50.340  1.00  0.00    -0.224 NA
HETATM    7  C18 UNL     1      23.882   6.290  51.181  1.00  0.00     0.237 A 
HETATM    8  N5  UNL     1      24.070   4.979  51.316  1.00  0.00    -0.221 NA
HETATM    9  C19 UNL     1      25.005   4.318  50.637  1.00  0.00     0.168 A 
ENDROOT
BRANCH   5  10
HETATM   10  N3  UNL     1      26.559   6.851  48.682  1.00  0.00    -0.370 N 
HETATM   11  H8  UNL     1      26.327   6.036  48.014  1.00  0.00     0.161 HD
BRANCH  10  12
HETATM   12  C10 UNL     1      27.511   7.286  47.741  1.00  0.00     0.159 C 
BRANCH  12  13
HETATM   13  C11 UNL     1      28.852   6.874  48.099  1.00  0.00    -0.046 A 
HETATM   14  C12 UNL     1      29.621   7.909  48.541  1.00  0.00    -0.007 A 
HETATM   15  C13 UNL     1      30.811   7.395  48.850  1.00  0.00    -0.004 A 
HETATM   16  C14 UNL     1      31.875   6.174  48.992  1.00  0.00     0.014 A 
HETATM   17  C17 UNL     1      32.198   7.626  49.347  1.00  0.00     0.022 A 
HETATM   18  C15 UNL     1      30.761   5.963  48.580  1.00  0.00     0.006 A 
HETATM   19  O1  UNL     1      32.243   6.164  49.109  1.00  0.00     0.000 OA
HETATM   20  C16 UNL     1      29.491   5.672  48.101  1.00  0.00    -0.006 A 
ENDBRANCH  12  13
ENDBRANCH  10  12
ENDBRANCH   5  10
BRANCH   1  21
HETATM   21  C6  UNL     1      24.630   2.032  51.498  1.00  0.00     0.061 A 
HETATM   22  C5  UNL     1      25.387   1.552  52.544  1.00  0.00     0.032 A 
HETATM   23  C4  UNL     1      24.860   0.588  53.409  1.00  0.00     0.003 A 
HETATM   24  C3  UNL     1      23.554   0.151  53.156  1.00  0.00     0.007 A 
HETATM   25  C2  UNL     1      22.818   0.660  52.087  1.00  0.00    -0.060 A 
HETATM   26  C1  UNL     1      21.431   0.200  51.814  1.00  0.00     0.048 C 
HETATM   27  C20 UNL     1      23.341   1.611  51.238  1.00  0.00     0.038 A 
ENDBRANCH   1  21
TORSDOF 5
ENDMDL
MODEL 7
REMARK VINA RESULT:      -8.1      5.700     10.101
REMARK  5 active torsions:
REMARK  status: ('A' for Active; 'I' for Inactive)
REMARK    1  A    between atoms: C6_6  and  N1_7 
REMARK    2  A    between atoms: C9_11  and  N3_12 
REMARK    3  A    between atoms: N3_12  and  C10_13 
REMARK    4  A    between atoms: C10_13  and  C11_14 
REMARK    5  A    between atoms: O1_20  and  C17_21 
ROOT
HETATM    1  N1  UNL     1      22.908   2.515  52.126  1.00  0.00    -0.215 N 
HETATM    2  N2  UNL     1      23.674   3.501  52.591  1.00  0.00    -0.177 NA
HETATM    3  C7  UNL     1      24.069   4.268  51.559  1.00  0.00     0.158 A 
HETATM    4  C8  UNL     1      23.568   3.809  50.342  1.00  0.00     0.077 A 
HETATM    5  C9  UNL     1      23.575   4.099  48.968  1.00  0.00     0.140 A 
HETATM    6  N4  UNL     1      22.886   3.294  48.155  1.00  0.00    -0.224 NA
HETATM    7  C18 UNL     1      22.201   2.238  48.603  1.00  0.00     0.237 A 
HETATM    8  N5  UNL     1      22.192   1.959  49.905  1.00  0.00    -0.221 NA
HETATM    9  C19 UNL     1      22.847   2.698  50.798  1.00  0.00     0.168 A 
ENDROOT
BRANCH   5  10
HETATM   10  N3  UNL     1      24.361   5.240  48.823  1.00  0.00    -0.370 N 
HETATM   11  H8  UNL     1      24.856   5.064  49.766  1.00  0.00     0.161 HD
BRANCH  10  12
HETATM   12  C10 UNL     1      25.155   6.394  48.677  1.00  0.00     0.159 C 
BRANCH  12  13
HETATM   13  C11 UNL     1      26.554   6.067  48.500  1.00  0.00    -0.046 A 
HETATM   14  C12 UNL     1      27.279   7.108  48.003  1.00  0.00    -0.007 A 
HETATM   15  C13 UNL     1      28.539   6.683  47.904  1.00  0.00    -0.004 A 
HETATM   16  C14 UNL     1      29.715   5.571  48.059  1.00  0.00     0.014 A 
HETATM   17  C17 UNL     1      29.948   6.983  47.519  1.00  0.00     0.022 A 
HETATM   18  C15 UNL     1      28.580   5.302  48.370  1.00  0.00     0.006 A 
HETATM   19  O1  UNL     1      30.092   5.581  47.978  1.00  0.00     0.000 OA
HETATM   20  C16 UNL     1      27.291   4.947  48.741  1.00  0.00    -0.006 A 
ENDBRANCH  12  13
ENDBRANCH  10  12
ENDBRANCH   5  10
BRANCH   1  21
HETATM   21  C6  UNL     1      22.278   1.478  52.870  1.00  0.00     0.061 A 
HETATM   22  C5  UNL     1      20.902   1.472  52.792  1.00  0.00     0.032 A 
HETATM   23  C4  UNL     1      20.163   0.505  53.479  1.00  0.00     0.003 A 
HETATM   24  C3  UNL     1      20.883  -0.432  54.232  1.00  0.00     0.007 A 
HETATM   25  C2  UNL     1      22.275  -0.394  54.287  1.00  0.00    -0.060 A 
HETATM   26  C1  UNL     1      23.045  -1.385  55.084  1.00  0.00     0.048 C 
HETATM   27  C20 UNL     1      22.999   0.560  53.607  1.00  0.00     0.038 A 
ENDBRANCH   1  21
TORSDOF 5
ENDMDL
MODEL 8
REMARK VINA RESULT:      -8.1      4.429      8.183
REMARK  5 active torsions:
REMARK  status: ('A' for Active; 'I' for Inactive)
REMARK    1  A    between atoms: C6_6  and  N1_7 
REMARK    2  A    between atoms: C9_11  and  N3_12 
REMARK    3  A    between atoms: N3_12  and  C10_13 
REMARK    4  A    between atoms: C10_13  and  C11_14 
REMARK    5  A    between atoms: O1_20  and  C17_21 
ROOT
HETATM    1  N1  UNL     1      23.524   3.418  50.895  1.00  0.00    -0.215 N 
HETATM    2  N2  UNL     1      24.731   2.919  51.157  1.00  0.00    -0.177 NA
HETATM    3  C7  UNL     1      24.603   1.909  52.036  1.00  0.00     0.158 A 
HETATM    4  C8  UNL     1      23.274   1.695  52.398  1.00  0.00     0.077 A 
HETATM    5  C9  UNL     1      22.471   0.875  53.207  1.00  0.00     0.140 A 
HETATM    6  N4  UNL     1      21.153   1.088  53.202  1.00  0.00    -0.224 NA
HETATM    7  C18 UNL     1      20.584   2.045  52.462  1.00  0.00     0.237 A 
HETATM    8  N5  UNL     1      21.341   2.825  51.695  1.00  0.00    -0.221 NA
HETATM    9  C19 UNL     1      22.665   2.694  51.629  1.00  0.00     0.168 A 
ENDROOT
BRANCH   5  10
HETATM   10  N3  UNL     1      23.344  -0.009  53.839  1.00  0.00    -0.370 N 
HETATM   11  H8  UNL     1      23.909  -0.157  52.932  1.00  0.00     0.161 HD
BRANCH  10  12
HETATM   12  C10 UNL     1      24.226  -0.901  54.478  1.00  0.00     0.159 C 
BRANCH  12  13
HETATM   13  C11 UNL     1      25.597  -0.694  54.063  1.00  0.00    -0.046 A 
HETATM   14  C12 UNL     1      26.316   0.032  54.965  1.00  0.00    -0.007 A 
HETATM   15  C13 UNL     1      27.551   0.134  54.474  1.00  0.00    -0.004 A 
HETATM   16  C14 UNL     1      28.700  -0.144  53.358  1.00  0.00     0.014 A 
HETATM   17  C17 UNL     1      28.937   0.659  54.638  1.00  0.00     0.022 A 
HETATM   18  C15 UNL     1      27.583  -0.574  53.200  1.00  0.00     0.006 A 
HETATM   19  O1  UNL     1      29.070  -0.037  53.337  1.00  0.00     0.000 OA
HETATM   20  C16 UNL     1      26.314  -1.087  52.975  1.00  0.00    -0.006 A 
ENDBRANCH  12  13
ENDBRANCH  10  12
ENDBRANCH   5  10
BRANCH   1  21
HETATM   21  C6  UNL     1      23.197   4.493  50.020  1.00  0.00     0.061 A 
HETATM   22  C5  UNL     1      23.057   4.133  48.698  1.00  0.00     0.032 A 
HETATM   23  C4  UNL     1      22.738   5.096  47.736  1.00  0.00     0.003 A 
HETATM   24  C3  UNL     1      22.577   6.414  48.183  1.00  0.00     0.007 A 
HETATM   25  C2  UNL     1      22.728   6.741  49.530  1.00  0.00    -0.060 A 
HETATM   26  C1  UNL     1      22.558   8.137  50.011  1.00  0.00     0.048 C 
HETATM   27  C20 UNL     1      23.040   5.787  50.474  1.00  0.00     0.038 A 
ENDBRANCH   1  21
TORSDOF 5
ENDMDL
MODEL 9
REMARK VINA RESULT:      -8.1      3.281      9.202
REMARK  5 active torsions:
REMARK  status: ('A' for Active; 'I' for Inactive)
REMARK    1  A    between atoms: C6_6  and  N1_7 
REMARK    2  A    between atoms: C9_11  and  N3_12 
REMARK    3  A    between atoms: N3_12  and  C10_13 
REMARK    4  A    between atoms: C10_13  and  C11_14 
REMARK    5  A    between atoms: O1_20  and  C17_21 
ROOT
HETATM    1  N1  UNL     1      20.372   0.617  51.352  1.00  0.00    -0.215 N 
HETATM    2  N2  UNL     1      21.034   1.448  50.547  1.00  0.00    -0.177 NA
HETATM    3  C7  UNL     1      22.310   1.532  50.961  1.00  0.00     0.158 A 
HETATM    4  C8  UNL     1      22.549   0.741  52.085  1.00  0.00     0.077 A 
HETATM    5  C9  UNL     1      23.569   0.376  52.977  1.00  0.00     0.140 A 
HETATM    6  N4  UNL     1      23.267  -0.478  53.958  1.00  0.00    -0.224 NA
HETATM    7  C18 UNL     1      22.042  -0.987  54.114  1.00  0.00     0.237 A 
HETATM    8  N5  UNL     1      21.071  -0.643  53.270  1.00  0.00    -0.221 NA
HETATM    9  C19 UNL     1      21.269   0.201  52.260  1.00  0.00     0.168 A 
ENDROOT
BRANCH   5  10
HETATM   10  N3  UNL     1      24.708   1.060  52.555  1.00  0.00    -0.370 N 
HETATM   11  H8  UNL     1      24.478   0.878  51.517  1.00  0.00     0.161 HD
BRANCH  10  12
HETATM   12  C10 UNL     1      25.858   1.750  52.129  1.00  0.00     0.159 C 
BRANCH  12  13
HETATM   13  C11 UNL     1      27.070   1.153  52.648  1.00  0.00    -0.046 A 
HETATM   14  C12 UNL     1      27.087  -0.204  52.516  1.00  0.00    -0.007 A 
HETATM   15  C13 UNL     1      28.251  -0.621  53.013  1.00  0.00    -0.004 A 
HETATM   16  C14 UNL     1      29.702  -0.388  53.708  1.00  0.00     0.014 A 
HETATM   17  C17 UNL     1      29.156  -1.764  53.325  1.00  0.00     0.022 A 
HETATM   18  C15 UNL     1      28.985   0.553  53.473  1.00  0.00     0.006 A 
HETATM   19  O1  UNL     1      29.980  -0.635  53.816  1.00  0.00     0.000 OA
HETATM   20  C16 UNL     1      28.194   1.665  53.221  1.00  0.00    -0.006 A 
ENDBRANCH  12  13
ENDBRANCH  10  12
ENDBRANCH   5  10
BRANCH   1  21
HETATM   21  C6  UNL     1      19.002   0.238  51.277  1.00  0.00     0.061 A 
HETATM   22  C5  UNL     1      18.517  -0.385  52.406  1.00  0.00     0.032 A 
HETATM   23  C4  UNL     1      17.186  -0.809  52.460  1.00  0.00     0.003 A 
HETATM   24  C3  UNL     1      16.395  -0.571  51.328  1.00  0.00     0.007 A 
HETATM   25  C2  UNL     1      16.922   0.063  50.202  1.00  0.00    -0.060 A 
HETATM   26  C1  UNL     1      16.088   0.318  48.998  1.00  0.00     0.048 C 
HETATM   27  C20 UNL     1      18.234   0.480  50.155  1.00  0.00     0.038 A 
ENDBRANCH   1  21
TORSDOF 5
ENDMDL
