MODEL 1
REMARK VINA RESULT:      -7.7      0.000      0.000
REMARK  7 active torsions:
REMARK  status: ('A' for Active; 'I' for Inactive)
REMARK    1  A    between atoms: C1_2  and  C2_3 
REMARK    2  A    between atoms: C1_2  and  C8_11 
REMARK    3  A    between atoms: C3_4  and  N1_5 
REMARK    4  A    between atoms: C8_11  and  C9_12 
REMARK    5  A    between atoms: C11_14  and  O3_15 
REMARK    6  A    between atoms: O3_15  and  C12_16 
REMARK    7  A    between atoms: C12_16  and  C13_17 
ROOT
HETATM    1  C9  UNL     1      22.463   1.345  51.552  1.00  0.00     0.015 A 
HETATM    2  C10 UNL     1      23.239   2.215  50.898  1.00  0.00     0.061 A 
HETATM    3  C11 UNL     1      23.069   2.438  49.462  1.00  0.00     0.068 A 
HETATM    4  C19 UNL     1      22.156   1.796  48.773  1.00  0.00     0.029 A 
HETATM    5  C20 UNL     1      21.233   0.805  49.389  1.00  0.00     0.149 A 
HETATM    6  N2  UNL     1      21.483   0.662  50.793  1.00  0.00    -0.389 N 
HETATM    7  H24 UNL     1      20.860  -0.031  51.295  1.00  0.00     0.159 HD
ENDROOT
BRANCH   1   8
HETATM    8  C8  UNL     1      22.615   1.099  53.025  1.00  0.00     0.139 C 
BRANCH   8   9
HETATM    9  C1  UNL     1      23.164  -0.257  53.272  1.00  0.00     0.156 C 
HETATM   10  O1  UNL     1      22.471  -1.289  53.092  1.00  0.00    -0.293 OA
BRANCH   9  11
HETATM   11  C2  UNL     1      24.538  -0.349  53.732  1.00  0.00     0.067 C 
HETATM   12  C3  UNL     1      25.613  -0.152  52.989  1.00  0.00     0.089 C 
BRANCH  12  13
HETATM   13  N1  UNL     1      26.968  -0.234  53.409  1.00  0.00    -0.386 N 
HETATM   14  C4  UNL     1      27.794  -1.176  52.702  1.00  0.00     0.148 C 
HETATM   15  C5  UNL     1      29.051  -1.567  53.401  1.00  0.00     0.187 C 
HETATM   16  O2  UNL     1      29.595  -0.633  54.238  1.00  0.00    -0.388 OA
HETATM   17  C6  UNL     1      29.023   0.614  54.219  1.00  0.00     0.187 C 
HETATM   18  C7  UNL     1      27.520   0.556  54.470  1.00  0.00     0.148 C 
ENDBRANCH  12  13
ENDBRANCH   9  11
ENDBRANCH   8   9
ENDBRANCH   1   8
BRANCH   3  19
HETATM   19  O3  UNL     1      23.967   3.375  48.971  1.00  0.00    -0.347 OA
BRANCH  19  20
HETATM   20  C12 UNL     1      24.535   4.308  49.869  1.00  0.00     0.214 C 
BRANCH  20  21
HETATM   21  C13 UNL     1      25.638   5.077  49.247  1.00  0.00    -0.034 A 
HETATM   22  C14 UNL     1      25.569   6.362  48.770  1.00  0.00     0.009 A 
HETATM   23  C15 UNL     1      26.714   6.911  48.222  1.00  0.00     0.001 A 
HETATM   24  C16 UNL     1      27.903   6.218  48.142  1.00  0.00     0.000 A 
HETATM   25  C17 UNL     1      28.003   4.924  48.613  1.00  0.00     0.001 A 
HETATM   26  C18 UNL     1      26.855   4.392  49.156  1.00  0.00     0.009 A 
ENDBRANCH  20  21
ENDBRANCH  19  20
ENDBRANCH   3  19
TORSDOF 7
ENDMDL
MODEL 2
REMARK VINA RESULT:      -7.7      2.202      5.665
REMARK  7 active torsions:
REMARK  status: ('A' for Active; 'I' for Inactive)
REMARK    1  A    between atoms: C1_2  and  C2_3 
REMARK    2  A    between atoms: C1_2  and  C8_11 
REMARK    3  A    between atoms: C3_4  and  N1_5 
REMARK    4  A    between atoms: C8_11  and  C9_12 
REMARK    5  A    between atoms: C11_14  and  O3_15 
REMARK    6  A    between atoms: O3_15  and  C12_16 
REMARK    7  A    between atoms: C12_16  and  C13_17 
ROOT
HETATM    1  C9  UNL     1      26.706  -0.152  53.545  1.00  0.00     0.015 A 
HETATM    2  C10 UNL     1      26.687   0.808  52.614  1.00  0.00     0.061 A 
HETATM    3  C11 UNL     1      27.684   1.879  52.621  1.00  0.00     0.068 A 
HETATM    4  C19 UNL     1      28.624   1.933  53.536  1.00  0.00     0.029 A 
HETATM    5  C20 UNL     1      28.748   0.924  54.622  1.00  0.00     0.149 A 
HETATM    6  N2  UNL     1      27.727  -0.077  54.522  1.00  0.00    -0.389 N 
HETATM    7  H24 UNL     1      27.757  -0.828  55.268  1.00  0.00     0.159 HD
ENDROOT
BRANCH   1   8
HETATM    8  C8  UNL     1      25.697  -1.262  53.560  1.00  0.00     0.139 C 
BRANCH   8   9
HETATM    9  C1  UNL     1      24.732  -1.074  54.671  1.00  0.00     0.156 C 
HETATM   10  O1  UNL     1      25.105  -1.071  55.870  1.00  0.00    -0.293 OA
BRANCH   9  11
HETATM   11  C2  UNL     1      23.335  -0.893  54.320  1.00  0.00     0.067 C 
HETATM   12  C3  UNL     1      22.885  -0.225  53.273  1.00  0.00     0.089 C 
BRANCH  12  13
HETATM   13  N1  UNL     1      21.526  -0.031  52.903  1.00  0.00    -0.386 N 
HETATM   14  C4  UNL     1      21.276   0.187  51.503  1.00  0.00     0.148 C 
HETATM   15  C5  UNL     1      19.958   0.805  51.183  1.00  0.00     0.187 C 
HETATM   16  O2  UNL     1      18.938   0.542  52.055  1.00  0.00    -0.388 OA
HETATM   17  C6  UNL     1      19.191  -0.387  53.032  1.00  0.00     0.187 C 
HETATM   18  C7  UNL     1      20.439  -0.043  53.837  1.00  0.00     0.148 C 
ENDBRANCH  12  13
ENDBRANCH   9  11
ENDBRANCH   8   9
ENDBRANCH   1   8
BRANCH   3  19
HETATM   19  O3  UNL     1      27.495   2.773  51.578  1.00  0.00    -0.347 OA
BRANCH  19  20
HETATM   20  C12 UNL     1      26.319   2.669  50.798  1.00  0.00     0.214 C 
BRANCH  20  21
HETATM   21  C13 UNL     1      26.066   3.898  50.008  1.00  0.00    -0.034 A 
HETATM   22  C14 UNL     1      24.868   4.553  49.881  1.00  0.00     0.009 A 
HETATM   23  C15 UNL     1      24.833   5.691  49.095  1.00  0.00     0.001 A 
HETATM   24  C16 UNL     1      25.948   6.178  48.448  1.00  0.00     0.000 A 
HETATM   25  C17 UNL     1      27.167   5.540  48.557  1.00  0.00     0.001 A 
HETATM   26  C18 UNL     1      27.186   4.409  49.342  1.00  0.00     0.009 A 
ENDBRANCH  20  21
ENDBRANCH  19  20
ENDBRANCH   3  19
TORSDOF 7
ENDMDL
MODEL 3
REMARK VINA RESULT:      -7.7      2.459      5.890
REMARK  7 active torsions:
REMARK  status: ('A' for Active; 'I' for Inactive)
REMARK    1  A    between atoms: C1_2  and  C2_3 
REMARK    2  A    between atoms: C1_2  and  C8_11 
REMARK    3  A    between atoms: C3_4  and  N1_5 
REMARK    4  A    between atoms: C8_11  and  C9_12 
REMARK    5  A    between atoms: C11_14  and  O3_15 
REMARK    6  A    between atoms: O3_15  and  C12_16 
REMARK    7  A    between atoms: C12_16  and  C13_17 
ROOT
HETATM    1  C9  UNL     1      24.076   3.871  50.306  1.00  0.00     0.015 A 
HETATM    2  C10 UNL     1      22.950   3.158  50.415  1.00  0.00     0.061 A 
HETATM    3  C11 UNL     1      21.985   3.438  51.478  1.00  0.00     0.068 A 
HETATM    4  C19 UNL     1      22.191   4.393  52.355  1.00  0.00     0.029 A 
HETATM    5  C20 UNL     1      23.405   5.253  52.337  1.00  0.00     0.149 A 
HETATM    6  N2  UNL     1      24.281   4.897  51.259  1.00  0.00    -0.389 N 
HETATM    7  H24 UNL     1      25.167   5.471  51.189  1.00  0.00     0.159 HD
ENDROOT
BRANCH   1   8
HETATM    8  C8  UNL     1      25.081   3.605  49.224  1.00  0.00     0.139 C 
BRANCH   8   9
HETATM    9  C1  UNL     1      26.422   3.360  49.808  1.00  0.00     0.156 C 
HETATM   10  O1  UNL     1      27.429   4.013  49.436  1.00  0.00    -0.293 OA
BRANCH   9  11
HETATM   11  C2  UNL     1      26.531   2.334  50.828  1.00  0.00     0.067 C 
HETATM   12  C3  UNL     1      27.152   2.464  51.988  1.00  0.00     0.089 C 
BRANCH  12  13
HETATM   13  N1  UNL     1      27.276   1.480  53.006  1.00  0.00    -0.386 N 
HETATM   14  C4  UNL     1      26.153   0.595  53.171  1.00  0.00     0.148 C 
HETATM   15  C5  UNL     1      26.099  -0.124  54.476  1.00  0.00     0.187 C 
HETATM   16  O2  UNL     1      27.300  -0.379  55.077  1.00  0.00    -0.388 OA
HETATM   17  C6  UNL     1      28.425  -0.096  54.344  1.00  0.00     0.187 C 
HETATM   18  C7  UNL     1      28.432   1.343  53.842  1.00  0.00     0.148 C 
ENDBRANCH  12  13
ENDBRANCH   9  11
ENDBRANCH   8   9
ENDBRANCH   1   8
BRANCH   3  19
HETATM   19  O3  UNL     1      20.887   2.593  51.422  1.00  0.00    -0.347 OA
BRANCH  19  20
HETATM   20  C12 UNL     1      20.373   2.065  52.629  1.00  0.00     0.214 C 
BRANCH  20  21
HETATM   21  C13 UNL     1      21.117   0.861  53.071  1.00  0.00    -0.034 A 
HETATM   22  C14 UNL     1      22.013   0.138  52.325  1.00  0.00     0.009 A 
HETATM   23  C15 UNL     1      22.610  -0.960  52.918  1.00  0.00     0.001 A 
HETATM   24  C16 UNL     1      22.335  -1.343  54.213  1.00  0.00     0.000 A 
HETATM   25  C17 UNL     1      21.439  -0.635  54.987  1.00  0.00     0.001 A 
HETATM   26  C18 UNL     1      20.853   0.456  54.383  1.00  0.00     0.009 A 
ENDBRANCH  20  21
ENDBRANCH  19  20
ENDBRANCH   3  19
TORSDOF 7
ENDMDL
MODEL 4
REMARK VINA RESULT:      -7.7      2.338      6.548
REMARK  7 active torsions:
REMARK  status: ('A' for Active; 'I' for Inactive)
REMARK    1  A    between atoms: C1_2  and  C2_3 
REMARK    2  A    between atoms: C1_2  and  C8_11 
REMARK    3  A    between atoms: C3_4  and  N1_5 
REMARK    4  A    between atoms: C8_11  and  C9_12 
REMARK    5  A    between atoms: C11_14  and  O3_15 
REMARK    6  A    between atoms: O3_15  and  C12_16 
REMARK    7  A    between atoms: C12_16  and  C13_17 
ROOT
HETATM    1  C9  UNL     1      21.853   0.716  52.563  1.00  0.00     0.015 A 
HETATM    2  C10 UNL     1      23.144   0.391  52.694  1.00  0.00     0.061 A 
HETATM    3  C11 UNL     1      23.584  -0.514  53.755  1.00  0.00     0.068 A 
HETATM    4  C19 UNL     1      22.734  -1.035  54.609  1.00  0.00     0.029 A 
HETATM    5  C20 UNL     1      21.275  -0.748  54.565  1.00  0.00     0.149 A 
HETATM    6  N2  UNL     1      20.950   0.145  53.492  1.00  0.00    -0.389 N 
HETATM    7  H24 UNL     1      19.925   0.392  53.404  1.00  0.00     0.159 HD
ENDROOT
BRANCH   1   8
HETATM    8  C8  UNL     1      21.374   1.641  51.483  1.00  0.00     0.139 C 
BRANCH   8   9
HETATM    9  C1  UNL     1      21.051   2.975  52.045  1.00  0.00     0.156 C 
HETATM   10  O1  UNL     1      20.058   3.149  52.794  1.00  0.00    -0.293 OA
BRANCH   9  11
HETATM   11  C2  UNL     1      21.928   4.078  51.697  1.00  0.00     0.067 C 
HETATM   12  C3  UNL     1      23.079   3.973  51.056  1.00  0.00     0.089 C 
BRANCH  12  13
HETATM   13  N1  UNL     1      23.959   5.032  50.700  1.00  0.00    -0.386 N 
HETATM   14  C4  UNL     1      24.776   4.811  49.537  1.00  0.00     0.148 C 
HETATM   15  C5  UNL     1      25.967   5.701  49.421  1.00  0.00     0.187 C 
HETATM   16  O2  UNL     1      25.855   6.940  49.987  1.00  0.00    -0.388 OA
HETATM   17  C6  UNL     1      24.613   7.292  50.452  1.00  0.00     0.187 C 
HETATM   18  C7  UNL     1      24.057   6.262  51.429  1.00  0.00     0.148 C 
ENDBRANCH  12  13
ENDBRANCH   9  11
ENDBRANCH   8   9
ENDBRANCH   1   8
BRANCH   3  19
HETATM   19  O3  UNL     1      24.955  -0.726  53.723  1.00  0.00    -0.347 OA
BRANCH  19  20
HETATM   20  C12 UNL     1      25.764   0.172  52.989  1.00  0.00     0.214 C 
BRANCH  20  21
HETATM   21  C13 UNL     1      27.209  -0.099  53.180  1.00  0.00    -0.034 A 
HETATM   22  C14 UNL     1      28.179   0.823  53.482  1.00  0.00     0.009 A 
HETATM   23  C15 UNL     1      29.479   0.372  53.622  1.00  0.00     0.001 A 
HETATM   24  C16 UNL     1      29.823  -0.954  53.470  1.00  0.00     0.000 A 
HETATM   25  C17 UNL     1      28.870  -1.904  53.166  1.00  0.00     0.001 A 
HETATM   26  C18 UNL     1      27.580  -1.440  53.029  1.00  0.00     0.009 A 
ENDBRANCH  20  21
ENDBRANCH  19  20
ENDBRANCH   3  19
TORSDOF 7
ENDMDL
MODEL 5
REMARK VINA RESULT:      -7.6      3.780      5.901
REMARK  7 active torsions:
REMARK  status: ('A' for Active; 'I' for Inactive)
REMARK    1  A    between atoms: C1_2  and  C2_3 
REMARK    2  A    between atoms: C1_2  and  C8_11 
REMARK    3  A    between atoms: C3_4  and  N1_5 
REMARK    4  A    between atoms: C8_11  and  C9_12 
REMARK    5  A    between atoms: C11_14  and  O3_15 
REMARK    6  A    between atoms: O3_15  and  C12_16 
REMARK    7  A    between atoms: C12_16  and  C13_17 
ROOT
HETATM    1  C9  UNL     1      26.531   4.994  48.980  1.00  0.00     0.015 A 
HETATM    2  C10 UNL     1      27.759   4.630  48.596  1.00  0.00     0.061 A 
HETATM    3  C11 UNL     1      28.791   5.633  48.336  1.00  0.00     0.068 A 
HETATM    4  C19 UNL     1      28.548   6.916  48.468  1.00  0.00     0.029 A 
HETATM    5  C20 UNL     1      27.222   7.444  48.888  1.00  0.00     0.149 A 
HETATM    6  N2  UNL     1      26.287   6.382  49.117  1.00  0.00    -0.389 N 
HETATM    7  H24 UNL     1      25.320   6.688  49.419  1.00  0.00     0.159 HD
ENDROOT
BRANCH   1   8
HETATM    8  C8  UNL     1      25.454   3.986  49.255  1.00  0.00     0.139 C 
BRANCH   8   9
HETATM    9  C1  UNL     1      25.136   3.947  50.703  1.00  0.00     0.156 C 
HETATM   10  O1  UNL     1      24.539   4.896  51.270  1.00  0.00    -0.293 OA
BRANCH   9  11
HETATM   11  C2  UNL     1      25.541   2.768  51.447  1.00  0.00     0.067 C 
HETATM   12  C3  UNL     1      26.787   2.404  51.693  1.00  0.00     0.089 C 
BRANCH  12  13
HETATM   13  N1  UNL     1      27.216   1.258  52.416  1.00  0.00    -0.386 N 
HETATM   14  C4  UNL     1      26.632   0.005  52.021  1.00  0.00     0.148 C 
HETATM   15  C5  UNL     1      26.742  -1.091  53.025  1.00  0.00     0.187 C 
HETATM   16  O2  UNL     1      27.825  -1.043  53.859  1.00  0.00    -0.388 OA
HETATM   17  C6  UNL     1      28.774  -0.093  53.576  1.00  0.00     0.187 C 
HETATM   18  C7  UNL     1      28.172   1.305  53.483  1.00  0.00     0.148 C 
ENDBRANCH  12  13
ENDBRANCH   9  11
ENDBRANCH   8   9
ENDBRANCH   1   8
BRANCH   3  19
HETATM   19  O3  UNL     1      29.992   5.057  47.951  1.00  0.00    -0.347 OA
BRANCH  19  20
HETATM   20  C12 UNL     1      31.201   5.646  48.391  1.00  0.00     0.214 C 
BRANCH  20  21
HETATM   21  C13 UNL     1      32.376   4.795  48.087  1.00  0.00    -0.034 A 
HETATM   22  C14 UNL     1      32.353   3.542  47.528  1.00  0.00     0.009 A 
HETATM   23  C15 UNL     1      33.563   2.905  47.319  1.00  0.00     0.001 A 
HETATM   24  C16 UNL     1      34.771   3.482  47.650  1.00  0.00     0.000 A 
HETATM   25  C17 UNL     1      34.825   4.741  48.213  1.00  0.00     0.001 A 
HETATM   26  C18 UNL     1      33.613   5.362  48.415  1.00  0.00     0.009 A 
ENDBRANCH  20  21
ENDBRANCH  19  20
ENDBRANCH   3  19
TORSDOF 7
ENDMDL
MODEL 6
REMARK VINA RESULT:      -7.6      2.040      5.670
REMARK  7 active torsions:
REMARK  status: ('A' for Active; 'I' for Inactive)
REMARK    1  A    between atoms: C1_2  and  C2_3 
REMARK    2  A    between atoms: C1_2  and  C8_11 
REMARK    3  A    between atoms: C3_4  and  N1_5 
REMARK    4  A    between atoms: C8_11  and  C9_12 
REMARK    5  A    between atoms: C11_14  and  O3_15 
REMARK    6  A    between atoms: O3_15  and  C12_16 
REMARK    7  A    between atoms: C12_16  and  C13_17 
ROOT
HETATM    1  C9  UNL     1      23.550   3.351  49.622  1.00  0.00     0.015 A 
HETATM    2  C10 UNL     1      23.050   2.257  50.207  1.00  0.00     0.061 A 
HETATM    3  C11 UNL     1      22.032   1.449  49.536  1.00  0.00     0.068 A 
HETATM    4  C19 UNL     1      21.579   1.767  48.346  1.00  0.00     0.029 A 
HETATM    5  C20 UNL     1      22.058   2.959  47.596  1.00  0.00     0.149 A 
HETATM    6  N2  UNL     1      23.051   3.679  48.339  1.00  0.00    -0.389 N 
HETATM    7  H24 UNL     1      23.435   4.542  47.862  1.00  0.00     0.159 HD
ENDROOT
BRANCH   1   8
HETATM    8  C8  UNL     1      24.596   4.197  50.288  1.00  0.00     0.139 C 
BRANCH   8   9
HETATM    9  C1  UNL     1      25.952   3.791  49.846  1.00  0.00     0.156 C 
HETATM   10  O1  UNL     1      26.559   4.410  48.937  1.00  0.00    -0.293 OA
BRANCH   9  11
HETATM   11  C2  UNL     1      26.556   2.647  50.504  1.00  0.00     0.067 C 
HETATM   12  C3  UNL     1      26.429   2.340  51.784  1.00  0.00     0.089 C 
BRANCH  12  13
HETATM   13  N1  UNL     1      27.006   1.229  52.457  1.00  0.00    -0.386 N 
HETATM   14  C4  UNL     1      26.639  -0.071  51.962  1.00  0.00     0.148 C 
HETATM   15  C5  UNL     1      26.882  -1.200  52.905  1.00  0.00     0.187 C 
HETATM   16  O2  UNL     1      27.914  -1.040  53.788  1.00  0.00    -0.388 OA
HETATM   17  C6  UNL     1      28.713   0.060  53.605  1.00  0.00     0.187 C 
HETATM   18  C7  UNL     1      27.904   1.352  53.568  1.00  0.00     0.148 C 
ENDBRANCH  12  13
ENDBRANCH   9  11
ENDBRANCH   8   9
ENDBRANCH   1   8
BRANCH   3  19
HETATM   19  O3  UNL     1      21.643   0.360  50.302  1.00  0.00    -0.347 OA
BRANCH  19  20
HETATM   20  C12 UNL     1      20.810   0.582  51.424  1.00  0.00     0.214 C 
BRANCH  20  21
HETATM   21  C13 UNL     1      21.340  -0.068  52.646  1.00  0.00    -0.034 A 
HETATM   22  C14 UNL     1      20.609  -0.737  53.596  1.00  0.00     0.009 A 
HETATM   23  C15 UNL     1      21.289  -1.280  54.671  1.00  0.00     0.001 A 
HETATM   24  C16 UNL     1      22.656  -1.171  54.815  1.00  0.00     0.000 A 
HETATM   25  C17 UNL     1      23.417  -0.504  53.876  1.00  0.00     0.001 A 
HETATM   26  C18 UNL     1      22.726   0.031  52.811  1.00  0.00     0.009 A 
ENDBRANCH  20  21
ENDBRANCH  19  20
ENDBRANCH   3  19
TORSDOF 7
ENDMDL
MODEL 7
REMARK VINA RESULT:      -7.6      2.478      3.776
REMARK  7 active torsions:
REMARK  status: ('A' for Active; 'I' for Inactive)
REMARK    1  A    between atoms: C1_2  and  C2_3 
REMARK    2  A    between atoms: C1_2  and  C8_11 
REMARK    3  A    between atoms: C3_4  and  N1_5 
REMARK    4  A    between atoms: C8_11  and  C9_12 
REMARK    5  A    between atoms: C11_14  and  O3_15 
REMARK    6  A    between atoms: O3_15  and  C12_16 
REMARK    7  A    between atoms: C12_16  and  C13_17 
ROOT
HETATM    1  C9  UNL     1      20.218  -0.044  53.674  1.00  0.00     0.015 A 
HETATM    2  C10 UNL     1      20.419   0.670  52.562  1.00  0.00     0.061 A 
HETATM    3  C11 UNL     1      19.489   0.580  51.436  1.00  0.00     0.068 A 
HETATM    4  C19 UNL     1      18.434  -0.200  51.480  1.00  0.00     0.029 A 
HETATM    5  C20 UNL     1      18.105  -1.041  52.662  1.00  0.00     0.149 A 
HETATM    6  N2  UNL     1      19.076  -0.878  53.705  1.00  0.00    -0.389 N 
HETATM    7  H24 UNL     1      18.902  -1.451  54.577  1.00  0.00     0.159 HD
ENDROOT
BRANCH   1   8
HETATM    8  C8  UNL     1      21.156   0.032  54.844  1.00  0.00     0.139 C 
BRANCH   8   9
HETATM    9  C1  UNL     1      22.108  -1.106  54.822  1.00  0.00     0.156 C 
HETATM   10  O1  UNL     1      21.721  -2.288  54.995  1.00  0.00    -0.293 OA
BRANCH   9  11
HETATM   11  C2  UNL     1      23.509  -0.802  54.595  1.00  0.00     0.067 C 
HETATM   12  C3  UNL     1      23.994  -0.137  53.561  1.00  0.00     0.089 C 
BRANCH  12  13
HETATM   13  N1  UNL     1      25.357   0.176  53.309  1.00  0.00    -0.386 N 
HETATM   14  C4  UNL     1      26.193  -0.920  52.898  1.00  0.00     0.148 C 
HETATM   15  C5  UNL     1      27.658  -0.694  53.053  1.00  0.00     0.187 C 
HETATM   16  O2  UNL     1      28.085   0.602  52.955  1.00  0.00    -0.388 OA
HETATM   17  C6  UNL     1      27.150   1.526  52.563  1.00  0.00     0.187 C 
HETATM   18  C7  UNL     1      25.908   1.492  53.446  1.00  0.00     0.148 C 
ENDBRANCH  12  13
ENDBRANCH   9  11
ENDBRANCH   8   9
ENDBRANCH   1   8
BRANCH   3  19
HETATM   19  O3  UNL     1      19.869   1.394  50.380  1.00  0.00    -0.347 OA
BRANCH  19  20
HETATM   20  C12 UNL     1      20.921   0.966  49.536  1.00  0.00     0.214 C 
BRANCH  20  21
HETATM   21  C13 UNL     1      22.085   1.881  49.592  1.00  0.00    -0.034 A 
HETATM   22  C14 UNL     1      23.065   1.896  50.552  1.00  0.00     0.009 A 
HETATM   23  C15 UNL     1      24.077   2.831  50.429  1.00  0.00     0.001 A 
HETATM   24  C16 UNL     1      24.129   3.734  49.389  1.00  0.00     0.000 A 
HETATM   25  C17 UNL     1      23.157   3.743  48.409  1.00  0.00     0.001 A 
HETATM   26  C18 UNL     1      22.157   2.806  48.544  1.00  0.00     0.009 A 
ENDBRANCH  20  21
ENDBRANCH  19  20
ENDBRANCH   3  19
TORSDOF 7
ENDMDL
MODEL 8
REMARK VINA RESULT:      -7.5      3.237      7.721
REMARK  7 active torsions:
REMARK  status: ('A' for Active; 'I' for Inactive)
REMARK    1  A    between atoms: C1_2  and  C2_3 
REMARK    2  A    between atoms: C1_2  and  C8_11 
REMARK    3  A    between atoms: C3_4  and  N1_5 
REMARK    4  A    between atoms: C8_11  and  C9_12 
REMARK    5  A    between atoms: C11_14  and  O3_15 
REMARK    6  A    between atoms: O3_15  and  C12_16 
REMARK    7  A    between atoms: C12_16  and  C13_17 
ROOT
HETATM    1  C9  UNL     1      25.732   3.088  50.925  1.00  0.00     0.015 A 
HETATM    2  C10 UNL     1      25.689   1.810  51.317  1.00  0.00     0.061 A 
HETATM    3  C11 UNL     1      24.802   1.389  52.402  1.00  0.00     0.068 A 
HETATM    4  C19 UNL     1      24.025   2.245  53.023  1.00  0.00     0.029 A 
HETATM    5  C20 UNL     1      23.986   3.691  52.677  1.00  0.00     0.149 A 
HETATM    6  N2  UNL     1      24.887   3.997  51.605  1.00  0.00    -0.389 N 
HETATM    7  H24 UNL     1      24.909   5.012  51.309  1.00  0.00     0.159 HD
ENDROOT
BRANCH   1   8
HETATM    8  C8  UNL     1      26.631   3.546  49.814  1.00  0.00     0.139 C 
BRANCH   8   9
HETATM    9  C1  UNL     1      26.053   4.730  49.131  1.00  0.00     0.156 C 
HETATM   10  O1  UNL     1      24.820   4.824  48.913  1.00  0.00    -0.293 OA
BRANCH   9  11
HETATM   11  C2  UNL     1      26.968   5.780  48.722  1.00  0.00     0.067 C 
HETATM   12  C3  UNL     1      28.212   5.600  48.314  1.00  0.00     0.089 C 
BRANCH  12  13
HETATM   13  N1  UNL     1      29.132   6.605  47.908  1.00  0.00    -0.386 N 
HETATM   14  C4  UNL     1      30.374   6.655  48.631  1.00  0.00     0.148 C 
HETATM   15  C5  UNL     1      31.128   7.935  48.507  1.00  0.00     0.187 C 
HETATM   16  O2  UNL     1      30.953   8.631  47.343  1.00  0.00    -0.388 OA
HETATM   17  C6  UNL     1      30.240   8.003  46.354  1.00  0.00     0.187 C 
HETATM   18  C7  UNL     1      28.876   7.533  46.846  1.00  0.00     0.148 C 
ENDBRANCH  12  13
ENDBRANCH   9  11
ENDBRANCH   8   9
ENDBRANCH   1   8
BRANCH   3  19
HETATM   19  O3  UNL     1      24.903   0.029  52.658  1.00  0.00    -0.347 OA
BRANCH  19  20
HETATM   20  C12 UNL     1      25.440  -0.391  53.897  1.00  0.00     0.214 C 
BRANCH  20  21
HETATM   21  C13 UNL     1      26.921  -0.340  53.906  1.00  0.00    -0.034 A 
HETATM   22  C14 UNL     1      27.702   0.564  54.583  1.00  0.00     0.009 A 
HETATM   23  C15 UNL     1      29.074   0.447  54.466  1.00  0.00     0.001 A 
HETATM   24  C16 UNL     1      29.673  -0.534  53.705  1.00  0.00     0.000 A 
HETATM   25  C17 UNL     1      28.914  -1.457  53.014  1.00  0.00     0.001 A 
HETATM   26  C18 UNL     1      27.548  -1.327  53.139  1.00  0.00     0.009 A 
ENDBRANCH  20  21
ENDBRANCH  19  20
ENDBRANCH   3  19
TORSDOF 7
ENDMDL
MODEL 9
REMARK VINA RESULT:      -7.5      2.040      6.602
REMARK  7 active torsions:
REMARK  status: ('A' for Active; 'I' for Inactive)
REMARK    1  A    between atoms: C1_2  and  C2_3 
REMARK    2  A    between atoms: C1_2  and  C8_11 
REMARK    3  A    between atoms: C3_4  and  N1_5 
REMARK    4  A    between atoms: C8_11  and  C9_12 
REMARK    5  A    between atoms: C11_14  and  O3_15 
REMARK    6  A    between atoms: O3_15  and  C12_16 
REMARK    7  A    between atoms: C12_16  and  C13_17 
ROOT
HETATM    1  C9  UNL     1      22.973   1.695  52.685  1.00  0.00     0.015 A 
HETATM    2  C10 UNL     1      24.065   0.994  53.005  1.00  0.00     0.061 A 
HETATM    3  C11 UNL     1      23.956  -0.279  53.718  1.00  0.00     0.068 A 
HETATM    4  C19 UNL     1      22.791  -0.771  54.067  1.00  0.00     0.029 A 
HETATM    5  C20 UNL     1      21.506  -0.082  53.768  1.00  0.00     0.149 A 
HETATM    6  N2  UNL     1      21.725   1.150  53.069  1.00  0.00    -0.389 N 
HETATM    7  H24 UNL     1      20.850   1.693  52.825  1.00  0.00     0.159 HD
ENDROOT
BRANCH   1   8
HETATM    8  C8  UNL     1      23.057   3.002  51.952  1.00  0.00     0.139 C 
BRANCH   8   9
HETATM    9  C1  UNL     1      23.094   2.775  50.487  1.00  0.00     0.156 C 
HETATM   10  O1  UNL     1      22.395   1.885  49.943  1.00  0.00    -0.293 OA
BRANCH   9  11
HETATM   11  C2  UNL     1      23.973   3.621  49.700  1.00  0.00     0.067 C 
HETATM   12  C3  UNL     1      25.103   4.160  50.124  1.00  0.00     0.089 C 
BRANCH  12  13
HETATM   13  N1  UNL     1      25.985   4.991  49.380  1.00  0.00    -0.386 N 
HETATM   14  C4  UNL     1      25.591   6.368  49.242  1.00  0.00     0.148 C 
HETATM   15  C5  UNL     1      26.261   7.111  48.137  1.00  0.00     0.187 C 
HETATM   16  O2  UNL     1      27.520   6.694  47.802  1.00  0.00    -0.388 OA
HETATM   17  C6  UNL     1      28.092   5.753  48.620  1.00  0.00     0.187 C 
HETATM   18  C7  UNL     1      27.204   4.526  48.786  1.00  0.00     0.148 C 
ENDBRANCH  12  13
ENDBRANCH   9  11
ENDBRANCH   8   9
ENDBRANCH   1   8
BRANCH   3  19
HETATM   19  O3  UNL     1      25.197  -0.851  53.956  1.00  0.00    -0.347 OA
BRANCH  19  20
HETATM   20  C12 UNL     1      26.063  -1.075  52.860  1.00  0.00     0.214 C 
BRANCH  20  21
HETATM   21  C13 UNL     1      27.439  -0.595  53.132  1.00  0.00    -0.034 A 
HETATM   22  C14 UNL     1      27.830   0.710  53.293  1.00  0.00     0.009 A 
HETATM   23  C15 UNL     1      29.168   0.958  53.543  1.00  0.00     0.001 A 
HETATM   24  C16 UNL     1      30.104  -0.050  53.634  1.00  0.00     0.000 A 
HETATM   25  C17 UNL     1      29.740  -1.372  53.476  1.00  0.00     0.001 A 
HETATM   26  C18 UNL     1      28.405  -1.603  53.228  1.00  0.00     0.009 A 
ENDBRANCH  20  21
ENDBRANCH  19  20
ENDBRANCH   3  19
TORSDOF 7
ENDMDL
