MODEL 1
REMARK VINA RESULT:      -8.4      0.000      0.000
REMARK  5 active torsions:
REMARK  status: ('A' for Active; 'I' for Inactive)
REMARK    1  A    between atoms: N1_2  and  C2_3 
REMARK    2  A    between atoms: C7_8  and  C8_9 
REMARK    3  A    between atoms: C8_9  and  C9_10 
REMARK    4  A    between atoms: C16_18  and  N2_19 
REMARK    5  A    between atoms: N2_19  and  S1_20 
ROOT
HETATM    1  C9  UNL     1      24.849  -0.001  53.921  1.00  0.00     0.003 C 
HETATM    2  C10 UNL     1      23.583  -0.297  53.612  1.00  0.00     0.001 C 
HETATM    3  C11 UNL     1      23.030   0.187  52.279  1.00  0.00     0.061 C 
HETATM    4  C12 UNL     1      21.921   1.116  52.501  1.00  0.00     0.052 C 
HETATM    5  C13 UNL     1      21.045   1.635  51.483  1.00  0.00    -0.014 C 
HETATM    6 BR1  UNL     1      20.957   2.860  50.043  1.00  0.00    -0.056 Br
HETATM    7  C14 UNL     1      19.879   0.943  51.708  1.00  0.00    -0.001 C 
HETATM    8  C15 UNL     1      19.104  -0.092  52.474  1.00  0.00     0.068 C 
HETATM    9  C16 UNL     1      19.423  -1.000  53.452  1.00  0.00     0.003 C 
HETATM   10  C17 UNL     1      20.749  -1.499  53.855  1.00  0.00     0.073 C 
HETATM   11  C18 UNL     1      21.472  -0.945  55.007  1.00  0.00     0.125 C 
HETATM   12  N3  UNL     1      22.951  -1.068  54.688  1.00  0.00    -0.393 N 
HETATM   13  H22 UNL     1      23.557  -1.717  55.228  1.00  0.00     0.159 HD
ENDROOT
BRANCH   1  14
HETATM   14  C8  UNL     1      25.984   0.717  53.313  1.00  0.00     0.069 C 
BRANCH  14  15
HETATM   15  C7  UNL     1      27.170  -0.200  53.313  1.00  0.00    -0.034 A 
HETATM   16  C2  UNL     1      28.370   0.240  53.885  1.00  0.00     0.007 A 
HETATM   17  C3  UNL     1      29.491  -0.563  53.912  1.00  0.00     0.023 A 
HETATM   18  C4  UNL     1      29.473  -1.831  53.378  1.00  0.00     0.002 A 
HETATM   19  C5  UNL     1      28.280  -2.274  52.806  1.00  0.00     0.001 A 
HETATM   20  C6  UNL     1      27.140  -1.468  52.774  1.00  0.00     0.009 A 
BRANCH  16  21
HETATM   21  N1  UNL     1      28.464   1.545  54.460  1.00  0.00    -0.309 NA
HETATM   22  C1  UNL     1      28.902   2.481  53.679  1.00  0.00     0.260 C 
ENDBRANCH  16  21
ENDBRANCH  14  15
ENDBRANCH   1  14
BRANCH   9  23
HETATM   23  N2  UNL     1      18.261  -1.703  53.831  1.00  0.00    -0.339 N 
HETATM   24  H16 UNL     1      17.732  -1.240  54.616  1.00  0.00     0.173 HD
BRANCH  23  25
HETATM   25  S1  UNL     1      17.250  -3.135  53.520  1.00  0.00    -0.069 SA
HETATM   26  H17 UNL     1      16.037  -3.061  54.208  1.00  0.00     0.126 HD
ENDBRANCH  23  25
ENDBRANCH   9  23
TORSDOF 5
ENDMDL
MODEL 2
REMARK VINA RESULT:      -8.3      5.157      6.825
REMARK  5 active torsions:
REMARK  status: ('A' for Active; 'I' for Inactive)
REMARK    1  A    between atoms: N1_2  and  C2_3 
REMARK    2  A    between atoms: C7_8  and  C8_9 
REMARK    3  A    between atoms: C8_9  and  C9_10 
REMARK    4  A    between atoms: C16_18  and  N2_19 
REMARK    5  A    between atoms: N2_19  and  S1_20 
ROOT
HETATM    1  C9  UNL     1      25.903   3.454  49.792  1.00  0.00     0.003 C 
HETATM    2  C10 UNL     1      25.421   2.760  50.827  1.00  0.00     0.001 C 
HETATM    3  C11 UNL     1      26.405   2.206  51.849  1.00  0.00     0.061 C 
HETATM    4  C12 UNL     1      26.344   0.744  51.865  1.00  0.00     0.052 C 
HETATM    5  C13 UNL     1      26.996  -0.112  52.821  1.00  0.00    -0.014 C 
HETATM    6 BR1  UNL     1      28.683  -0.803  53.330  1.00  0.00    -0.056 Br
HETATM    7  C14 UNL     1      25.951  -0.538  53.605  1.00  0.00    -0.001 C 
HETATM    8  C15 UNL     1      24.489  -0.520  53.953  1.00  0.00     0.068 C 
HETATM    9  C16 UNL     1      23.406   0.190  53.502  1.00  0.00     0.003 C 
HETATM   10  C17 UNL     1      23.376   1.444  52.730  1.00  0.00     0.073 C 
HETATM   11  C18 UNL     1      23.203   1.457  51.271  1.00  0.00     0.125 C 
HETATM   12  N3  UNL     1      23.959   2.668  50.756  1.00  0.00    -0.393 N 
HETATM   13  H22 UNL     1      23.451   3.475  50.344  1.00  0.00     0.159 HD
ENDROOT
BRANCH   1  14
HETATM   14  C8  UNL     1      27.217   3.891  49.284  1.00  0.00     0.069 C 
BRANCH  14  15
HETATM   15  C7  UNL     1      27.064   5.273  48.723  1.00  0.00    -0.034 A 
HETATM   16  C2  UNL     1      28.190   5.926  48.206  1.00  0.00     0.007 A 
HETATM   17  C3  UNL     1      28.105   7.197  47.677  1.00  0.00     0.023 A 
HETATM   18  C4  UNL     1      26.908   7.874  47.636  1.00  0.00     0.002 A 
HETATM   19  C5  UNL     1      25.783   7.228  48.151  1.00  0.00     0.001 A 
HETATM   20  C6  UNL     1      25.860   5.942  48.688  1.00  0.00     0.009 A 
BRANCH  16  21
HETATM   21  N1  UNL     1      29.467   5.284  48.214  1.00  0.00    -0.309 NA
HETATM   22  C1  UNL     1      30.467   6.012  48.597  1.00  0.00     0.260 C 
ENDBRANCH  16  21
ENDBRANCH  14  15
ENDBRANCH   1  14
BRANCH   9  23
HETATM   23  N2  UNL     1      22.248  -0.247  54.179  1.00  0.00    -0.339 N 
HETATM   24  H16 UNL     1      21.996   0.357  55.005  1.00  0.00     0.173 HD
BRANCH  23  25
HETATM   25  S1  UNL     1      20.953  -1.468  54.225  1.00  0.00    -0.069 SA
HETATM   26  H17 UNL     1      21.061  -2.281  55.357  1.00  0.00     0.126 HD
ENDBRANCH  23  25
ENDBRANCH   9  23
TORSDOF 5
ENDMDL
MODEL 3
REMARK VINA RESULT:      -7.7      3.255      3.935
REMARK  5 active torsions:
REMARK  status: ('A' for Active; 'I' for Inactive)
REMARK    1  A    between atoms: N1_2  and  C2_3 
REMARK    2  A    between atoms: C7_8  and  C8_9 
REMARK    3  A    between atoms: C8_9  and  C9_10 
REMARK    4  A    between atoms: C16_18  and  N2_19 
REMARK    5  A    between atoms: N2_19  and  S1_20 
ROOT
HETATM    1  C9  UNL     1      25.076   2.546  52.312  1.00  0.00     0.003 C 
HETATM    2  C10 UNL     1      23.843   2.460  51.805  1.00  0.00     0.001 C 
HETATM    3  C11 UNL     1      22.738   1.885  52.681  1.00  0.00     0.061 C 
HETATM    4  C12 UNL     1      22.209   0.657  52.083  1.00  0.00     0.052 C 
HETATM    5  C13 UNL     1      21.044  -0.060  52.532  1.00  0.00    -0.014 C 
HETATM    6 BR1  UNL     1      20.403  -1.198  53.902  1.00  0.00    -0.056 Br
HETATM    7  C14 UNL     1      20.114   0.241  51.567  1.00  0.00    -0.001 C 
HETATM    8  C15 UNL     1      19.729   0.965  50.307  1.00  0.00     0.068 C 
HETATM    9  C16 UNL     1      20.350   1.887  49.504  1.00  0.00     0.003 C 
HETATM   10  C17 UNL     1      21.509   2.745  49.802  1.00  0.00     0.073 C 
HETATM   11  C18 UNL     1      22.870   2.389  49.382  1.00  0.00     0.125 C 
HETATM   12  N3  UNL     1      23.810   2.963  50.427  1.00  0.00    -0.393 N 
HETATM   13  H22 UNL     1      24.455   3.742  50.190  1.00  0.00     0.159 HD
ENDROOT
BRANCH   1  14
HETATM   14  C8  UNL     1      25.764   2.225  53.576  1.00  0.00     0.069 C 
BRANCH  14  15
HETATM   15  C7  UNL     1      26.534   0.954  53.379  1.00  0.00    -0.034 A 
HETATM   16  C2  UNL     1      27.916   0.953  53.607  1.00  0.00     0.007 A 
HETATM   17  C3  UNL     1      28.672  -0.188  53.442  1.00  0.00     0.023 A 
HETATM   18  C4  UNL     1      28.096  -1.373  53.046  1.00  0.00     0.002 A 
HETATM   19  C5  UNL     1      26.720  -1.378  52.816  1.00  0.00     0.001 A 
HETATM   20  C6  UNL     1      25.947  -0.227  52.981  1.00  0.00     0.009 A 
BRANCH  16  21
HETATM   21  N1  UNL     1      28.582   2.148  54.021  1.00  0.00    -0.309 NA
HETATM   22  C1  UNL     1      29.675   1.985  54.697  1.00  0.00     0.260 C 
ENDBRANCH  16  21
ENDBRANCH  14  15
ENDBRANCH   1  14
BRANCH   9  23
HETATM   23  N2  UNL     1      19.510   2.194  48.412  1.00  0.00    -0.339 N 
HETATM   24  H16 UNL     1      18.635   1.608  48.383  1.00  0.00     0.173 HD
BRANCH  23  25
HETATM   25  S1  UNL     1      19.298   3.220  46.973  1.00  0.00    -0.069 SA
HETATM   26  H17 UNL     1      18.465   4.309  47.242  1.00  0.00     0.126 HD
ENDBRANCH  23  25
ENDBRANCH   9  23
TORSDOF 5
ENDMDL
MODEL 4
REMARK VINA RESULT:      -7.7      3.724      7.229
REMARK  5 active torsions:
REMARK  status: ('A' for Active; 'I' for Inactive)
REMARK    1  A    between atoms: N1_2  and  C2_3 
REMARK    2  A    between atoms: C7_8  and  C8_9 
REMARK    3  A    between atoms: C8_9  and  C9_10 
REMARK    4  A    between atoms: C16_18  and  N2_19 
REMARK    5  A    between atoms: N2_19  and  S1_20 
ROOT
HETATM    1  C9  UNL     1      21.579   0.862  52.967  1.00  0.00     0.003 C 
HETATM    2  C10 UNL     1      22.901   0.906  53.159  1.00  0.00     0.001 C 
HETATM    3  C11 UNL     1      23.663   2.132  52.672  1.00  0.00     0.061 C 
HETATM    4  C12 UNL     1      24.629   1.747  51.641  1.00  0.00     0.052 C 
HETATM    5  C13 UNL     1      25.642   2.602  51.081  1.00  0.00    -0.014 C 
HETATM    6 BR1  UNL     1      25.910   4.057  49.900  1.00  0.00    -0.056 Br
HETATM    7  C14 UNL     1      26.793   2.123  51.658  1.00  0.00    -0.001 C 
HETATM    8  C15 UNL     1      27.485   1.173  52.595  1.00  0.00     0.068 C 
HETATM    9  C16 UNL     1      27.055   0.231  53.495  1.00  0.00     0.003 C 
HETATM   10  C17 UNL     1      25.721   0.065  54.097  1.00  0.00     0.073 C 
HETATM   11  C18 UNL     1      24.744  -0.897  53.571  1.00  0.00     0.125 C 
HETATM   12  N3  UNL     1      23.370  -0.307  53.836  1.00  0.00    -0.393 N 
HETATM   13  H22 UNL     1      22.725  -0.752  54.518  1.00  0.00     0.159 HD
ENDROOT
BRANCH   1  14
HETATM   14  C8  UNL     1      20.531   1.711  52.373  1.00  0.00     0.069 C 
BRANCH  14  15
HETATM   15  C7  UNL     1      20.864   1.919  50.926  1.00  0.00    -0.034 A 
HETATM   16  C2  UNL     1      20.964   3.225  50.431  1.00  0.00     0.007 A 
HETATM   17  C3  UNL     1      21.269   3.473  49.110  1.00  0.00     0.023 A 
HETATM   18  C4  UNL     1      21.488   2.444  48.223  1.00  0.00     0.002 A 
HETATM   19  C5  UNL     1      21.388   1.140  48.711  1.00  0.00     0.001 A 
HETATM   20  C6  UNL     1      21.080   0.880  50.047  1.00  0.00     0.009 A 
BRANCH  16  21
HETATM   21  N1  UNL     1      20.751   4.345  51.294  1.00  0.00    -0.309 NA
HETATM   22  C1  UNL     1      21.643   5.283  51.240  1.00  0.00     0.260 C 
ENDBRANCH  16  21
ENDBRANCH  14  15
ENDBRANCH   1  14
BRANCH   9  23
HETATM   23  N2  UNL     1      28.173  -0.399  54.079  1.00  0.00    -0.339 N 
HETATM   24  H16 UNL     1      28.055  -0.586  55.110  1.00  0.00     0.173 HD
BRANCH  23  25
HETATM   25  S1  UNL     1      29.804  -1.052  53.785  1.00  0.00    -0.069 SA
HETATM   26  H17 UNL     1      30.743  -0.029  53.636  1.00  0.00     0.126 HD
ENDBRANCH  23  25
ENDBRANCH   9  23
TORSDOF 5
ENDMDL
MODEL 5
REMARK VINA RESULT:      -7.5      3.406      8.142
REMARK  5 active torsions:
REMARK  status: ('A' for Active; 'I' for Inactive)
REMARK    1  A    between atoms: N1_2  and  C2_3 
REMARK    2  A    between atoms: C7_8  and  C8_9 
REMARK    3  A    between atoms: C8_9  and  C9_10 
REMARK    4  A    between atoms: C16_18  and  N2_19 
REMARK    5  A    between atoms: N2_19  and  S1_20 
ROOT
HETATM    1  C9  UNL     1      21.649   0.259  52.805  1.00  0.00     0.003 C 
HETATM    2  C10 UNL     1      22.937   0.559  52.993  1.00  0.00     0.001 C 
HETATM    3  C11 UNL     1      23.445   1.910  52.507  1.00  0.00     0.061 C 
HETATM    4  C12 UNL     1      24.463   1.722  51.472  1.00  0.00     0.052 C 
HETATM    5  C13 UNL     1      25.289   2.758  50.910  1.00  0.00    -0.014 C 
HETATM    6 BR1  UNL     1      25.266   4.240  49.733  1.00  0.00    -0.056 Br
HETATM    7  C14 UNL     1      26.513   2.511  51.483  1.00  0.00    -0.001 C 
HETATM    8  C15 UNL     1      27.380   1.711  52.415  1.00  0.00     0.068 C 
HETATM    9  C16 UNL     1      27.144   0.702  53.313  1.00  0.00     0.003 C 
HETATM   10  C17 UNL     1      25.870   0.279  53.919  1.00  0.00     0.073 C 
HETATM   11  C18 UNL     1      25.096  -0.854  53.394  1.00  0.00     0.125 C 
HETATM   12  N3  UNL     1      23.635  -0.542  53.665  1.00  0.00    -0.393 N 
HETATM   13  H22 UNL     1      23.091  -1.105  54.348  1.00  0.00     0.159 HD
ENDROOT
BRANCH   1  14
HETATM   14  C8  UNL     1      20.453   0.890  52.216  1.00  0.00     0.069 C 
BRANCH  14  15
HETATM   15  C7  UNL     1      19.285  -0.022  52.443  1.00  0.00    -0.034 A 
HETATM   16  C2  UNL     1      18.151   0.109  51.632  1.00  0.00     0.007 A 
HETATM   17  C3  UNL     1      17.050  -0.704  51.796  1.00  0.00     0.023 A 
HETATM   18  C4  UNL     1      17.022  -1.680  52.767  1.00  0.00     0.002 A 
HETATM   19  C5  UNL     1      18.149  -1.814  53.579  1.00  0.00     0.001 A 
HETATM   20  C6  UNL     1      19.268  -0.995  53.419  1.00  0.00     0.009 A 
BRANCH  16  21
HETATM   21  N1  UNL     1      18.108   1.099  50.602  1.00  0.00    -0.309 NA
HETATM   22  C1  UNL     1      17.164   0.968  49.725  1.00  0.00     0.260 C 
ENDBRANCH  16  21
ENDBRANCH  14  15
ENDBRANCH   1  14
BRANCH   9  23
HETATM   23  N2  UNL     1      28.366   0.299  53.892  1.00  0.00    -0.339 N 
HETATM   24  H16 UNL     1      28.557   0.756  54.822  1.00  0.00     0.173 HD
BRANCH  23  25
HETATM   25  S1  UNL     1      29.811  -0.722  53.696  1.00  0.00    -0.069 SA
HETATM   26  H17 UNL     1      29.540  -2.055  54.015  1.00  0.00     0.126 HD
ENDBRANCH  23  25
ENDBRANCH   9  23
TORSDOF 5
ENDMDL
MODEL 6
REMARK VINA RESULT:      -7.5      4.071      7.483
REMARK  5 active torsions:
REMARK  status: ('A' for Active; 'I' for Inactive)
REMARK    1  A    between atoms: N1_2  and  C2_3 
REMARK    2  A    between atoms: C7_8  and  C8_9 
REMARK    3  A    between atoms: C8_9  and  C9_10 
REMARK    4  A    between atoms: C16_18  and  N2_19 
REMARK    5  A    between atoms: N2_19  and  S1_20 
ROOT
HETATM    1  C9  UNL     1      24.589   4.151  50.824  1.00  0.00     0.003 C 
HETATM    2  C10 UNL     1      25.009   2.964  51.272  1.00  0.00     0.001 C 
HETATM    3  C11 UNL     1      23.970   1.886  51.550  1.00  0.00     0.061 C 
HETATM    4  C12 UNL     1      23.980   1.531  52.970  1.00  0.00     0.052 C 
HETATM    5  C13 UNL     1      23.265   0.433  53.566  1.00  0.00    -0.014 C 
HETATM    6 BR1  UNL     1      21.538  -0.148  54.077  1.00  0.00    -0.056 Br
HETATM    7  C14 UNL     1      24.265  -0.472  53.826  1.00  0.00    -0.001 C 
HETATM    8  C15 UNL     1      25.714  -0.869  53.765  1.00  0.00     0.068 C 
HETATM    9  C16 UNL     1      26.837  -0.314  53.205  1.00  0.00     0.003 C 
HETATM   10  C17 UNL     1      26.938   0.723  52.165  1.00  0.00     0.073 C 
HETATM   11  C18 UNL     1      27.164   2.137  52.494  1.00  0.00     0.125 C 
HETATM   12  N3  UNL     1      26.469   2.948  51.415  1.00  0.00    -0.393 N 
HETATM   13  H22 UNL     1      27.019   3.513  50.739  1.00  0.00     0.159 HD
ENDROOT
BRANCH   1  14
HETATM   14  C8  UNL     1      23.310   4.802  50.484  1.00  0.00     0.069 C 
BRANCH  14  15
HETATM   15  C7  UNL     1      22.515   3.853  49.638  1.00  0.00    -0.034 A 
HETATM   16  C2  UNL     1      21.239   3.467  50.064  1.00  0.00     0.007 A 
HETATM   17  C3  UNL     1      20.465   2.598  49.324  1.00  0.00     0.023 A 
HETATM   18  C4  UNL     1      20.918   2.076  48.134  1.00  0.00     0.002 A 
HETATM   19  C5  UNL     1      22.190   2.457  47.705  1.00  0.00     0.001 A 
HETATM   20  C6  UNL     1      22.980   3.336  48.447  1.00  0.00     0.009 A 
BRANCH  16  21
HETATM   21  N1  UNL     1      20.701   3.969  51.289  1.00  0.00    -0.309 NA
HETATM   22  C1  UNL     1      20.419   3.085  52.192  1.00  0.00     0.260 C 
ENDBRANCH  16  21
ENDBRANCH  14  15
ENDBRANCH   1  14
BRANCH   9  23
HETATM   23  N2  UNL     1      27.953  -1.123  53.503  1.00  0.00    -0.339 N 
HETATM   24  H16 UNL     1      27.692  -2.089  53.833  1.00  0.00     0.173 HD
BRANCH  23  25
HETATM   25  S1  UNL     1      29.731  -1.199  53.559  1.00  0.00    -0.069 SA
HETATM   26  H17 UNL     1      30.204  -1.106  54.870  1.00  0.00     0.126 HD
ENDBRANCH  23  25
ENDBRANCH   9  23
TORSDOF 5
ENDMDL
MODEL 7
REMARK VINA RESULT:      -7.4      5.270      6.528
REMARK  5 active torsions:
REMARK  status: ('A' for Active; 'I' for Inactive)
REMARK    1  A    between atoms: N1_2  and  C2_3 
REMARK    2  A    between atoms: C7_8  and  C8_9 
REMARK    3  A    between atoms: C8_9  and  C9_10 
REMARK    4  A    between atoms: C16_18  and  N2_19 
REMARK    5  A    between atoms: N2_19  and  S1_20 
ROOT
HETATM    1  C9  UNL     1      25.530   4.851  50.118  1.00  0.00     0.003 C 
HETATM    2  C10 UNL     1      24.946   3.718  50.520  1.00  0.00     0.001 C 
HETATM    3  C11 UNL     1      23.921   3.066  49.602  1.00  0.00     0.061 C 
HETATM    4  C12 UNL     1      22.610   3.036  50.253  1.00  0.00     0.052 C 
HETATM    5  C13 UNL     1      21.447   2.341  49.765  1.00  0.00    -0.014 C 
HETATM    6 BR1  UNL     1      20.091   2.400  48.446  1.00  0.00    -0.056 Br
HETATM    7  C14 UNL     1      21.361   1.265  50.616  1.00  0.00    -0.001 C 
HETATM    8  C15 UNL     1      21.901   0.468  51.770  1.00  0.00     0.068 C 
HETATM    9  C16 UNL     1      23.031   0.546  52.543  1.00  0.00     0.003 C 
HETATM   10  C17 UNL     1      24.289   1.264  52.276  1.00  0.00     0.073 C 
HETATM   11  C18 UNL     1      24.564   2.591  52.844  1.00  0.00     0.125 C 
HETATM   12  N3  UNL     1      25.442   3.317  51.841  1.00  0.00    -0.393 N 
HETATM   13  H22 UNL     1      26.430   3.543  52.067  1.00  0.00     0.159 HD
ENDROOT
BRANCH   1  14
HETATM   14  C8  UNL     1      25.483   5.752  48.951  1.00  0.00     0.069 C 
BRANCH  14  15
HETATM   15  C7  UNL     1      26.891   6.014  48.508  1.00  0.00    -0.034 A 
HETATM   16  C2  UNL     1      27.218   7.271  47.986  1.00  0.00     0.007 A 
HETATM   17  C3  UNL     1      28.497   7.565  47.565  1.00  0.00     0.023 A 
HETATM   18  C4  UNL     1      29.506   6.632  47.642  1.00  0.00     0.002 A 
HETATM   19  C5  UNL     1      29.186   5.377  48.161  1.00  0.00     0.001 A 
HETATM   20  C6  UNL     1      27.893   5.071  48.590  1.00  0.00     0.009 A 
BRANCH  16  21
HETATM   21  N1  UNL     1      26.222   8.290  47.876  1.00  0.00    -0.309 NA
HETATM   22  C1  UNL     1      26.458   9.388  48.523  1.00  0.00     0.260 C 
ENDBRANCH  16  21
ENDBRANCH  14  15
ENDBRANCH   1  14
BRANCH   9  23
HETATM   23  N2  UNL     1      22.993  -0.465  53.526  1.00  0.00    -0.339 N 
HETATM   24  H16 UNL     1      23.940  -0.879  53.734  1.00  0.00     0.173 HD
BRANCH  23  25
HETATM   25  S1  UNL     1      21.950  -1.392  54.632  1.00  0.00    -0.069 SA
HETATM   26  H17 UNL     1      22.162  -1.022  55.962  1.00  0.00     0.126 HD
ENDBRANCH  23  25
ENDBRANCH   9  23
TORSDOF 5
ENDMDL
MODEL 8
REMARK VINA RESULT:      -7.4      4.993      7.830
REMARK  5 active torsions:
REMARK  status: ('A' for Active; 'I' for Inactive)
REMARK    1  A    between atoms: N1_2  and  C2_3 
REMARK    2  A    between atoms: C7_8  and  C8_9 
REMARK    3  A    between atoms: C8_9  and  C9_10 
REMARK    4  A    between atoms: C16_18  and  N2_19 
REMARK    5  A    between atoms: N2_19  and  S1_20 
ROOT
HETATM    1  C9  UNL     1      24.242   4.045  50.634  1.00  0.00     0.003 C 
HETATM    2  C10 UNL     1      24.727   2.884  51.085  1.00  0.00     0.001 C 
HETATM    3  C11 UNL     1      23.743   1.782  51.455  1.00  0.00     0.061 C 
HETATM    4  C12 UNL     1      23.852   1.468  52.880  1.00  0.00     0.052 C 
HETATM    5  C13 UNL     1      23.211   0.365  53.547  1.00  0.00    -0.014 C 
HETATM    6 BR1  UNL     1      21.539  -0.255  54.181  1.00  0.00    -0.056 Br
HETATM    7  C14 UNL     1      24.255  -0.502  53.766  1.00  0.00    -0.001 C 
HETATM    8  C15 UNL     1      25.709  -0.856  53.624  1.00  0.00     0.068 C 
HETATM    9  C16 UNL     1      26.776  -0.282  52.981  1.00  0.00     0.003 C 
HETATM   10  C17 UNL     1      26.779   0.729  51.911  1.00  0.00     0.073 C 
HETATM   11  C18 UNL     1      26.978   2.157  52.189  1.00  0.00     0.125 C 
HETATM   12  N3  UNL     1      26.192   2.917  51.135  1.00  0.00    -0.393 N 
HETATM   13  H22 UNL     1      26.681   3.480  50.412  1.00  0.00     0.159 HD
ENDROOT
BRANCH   1  14
HETATM   14  C8  UNL     1      22.924   4.646  50.358  1.00  0.00     0.069 C 
BRANCH  14  15
HETATM   15  C7  UNL     1      22.600   4.419  48.912  1.00  0.00    -0.034 A 
HETATM   16  C2  UNL     1      22.642   5.502  48.026  1.00  0.00     0.007 A 
HETATM   17  C3  UNL     1      22.354   5.348  46.686  1.00  0.00     0.023 A 
HETATM   18  C4  UNL     1      22.016   4.120  46.166  1.00  0.00     0.002 A 
HETATM   19  C5  UNL     1      21.973   3.037  47.045  1.00  0.00     0.001 A 
HETATM   20  C6  UNL     1      22.262   3.183  48.402  1.00  0.00     0.009 A 
BRANCH  16  21
HETATM   21  N1  UNL     1      22.986   6.808  48.494  1.00  0.00    -0.309 NA
HETATM   22  C1  UNL     1      24.085   7.309  48.027  1.00  0.00     0.260 C 
ENDBRANCH  16  21
ENDBRANCH  14  15
ENDBRANCH   1  14
BRANCH   9  23
HETATM   23  N2  UNL     1      27.934  -1.048  53.229  1.00  0.00    -0.339 N 
HETATM   24  H16 UNL     1      27.774  -2.086  53.141  1.00  0.00     0.173 HD
BRANCH  23  25
HETATM   25  S1  UNL     1      29.663  -0.991  53.654  1.00  0.00    -0.069 SA
HETATM   26  H17 UNL     1      29.999  -2.007  54.552  1.00  0.00     0.126 HD
ENDBRANCH  23  25
ENDBRANCH   9  23
TORSDOF 5
ENDMDL
MODEL 9
REMARK VINA RESULT:      -7.2      5.477      8.129
REMARK  5 active torsions:
REMARK  status: ('A' for Active; 'I' for Inactive)
REMARK    1  A    between atoms: N1_2  and  C2_3 
REMARK    2  A    between atoms: C7_8  and  C8_9 
REMARK    3  A    between atoms: C8_9  and  C9_10 
REMARK    4  A    between atoms: C16_18  and  N2_19 
REMARK    5  A    between atoms: N2_19  and  S1_20 
ROOT
HETATM    1  C9  UNL     1      24.470   3.833  50.147  1.00  0.00     0.003 C 
HETATM    2  C10 UNL     1      24.884   2.723  50.765  1.00  0.00     0.001 C 
HETATM    3  C11 UNL     1      23.842   1.694  51.182  1.00  0.00     0.061 C 
HETATM    4  C12 UNL     1      23.835   1.547  52.639  1.00  0.00     0.052 C 
HETATM    5  C13 UNL     1      23.112   0.544  53.376  1.00  0.00    -0.014 C 
HETATM    6 BR1  UNL     1      21.379   0.040  53.946  1.00  0.00    -0.056 Br
HETATM    7  C14 UNL     1      24.109  -0.314  53.775  1.00  0.00    -0.001 C 
HETATM    8  C15 UNL     1      25.558  -0.713  53.788  1.00  0.00     0.068 C 
HETATM    9  C16 UNL     1      26.688  -0.242  53.168  1.00  0.00     0.003 C 
HETATM   10  C17 UNL     1      26.801   0.636  51.991  1.00  0.00     0.073 C 
HETATM   11  C18 UNL     1      27.024   2.082  52.118  1.00  0.00     0.125 C 
HETATM   12  N3  UNL     1      26.342   2.730  50.926  1.00  0.00    -0.393 N 
HETATM   13  H22 UNL     1      26.901   3.193  50.183  1.00  0.00     0.159 HD
ENDROOT
BRANCH   1  14
HETATM   14  C8  UNL     1      23.196   4.427  49.702  1.00  0.00     0.069 C 
BRANCH  14  15
HETATM   15  C7  UNL     1      23.380   5.912  49.610  1.00  0.00    -0.034 A 
HETATM   16  C2  UNL     1      23.166   6.550  48.383  1.00  0.00     0.007 A 
HETATM   17  C3  UNL     1      23.321   7.913  48.243  1.00  0.00     0.023 A 
HETATM   18  C4  UNL     1      23.692   8.702  49.308  1.00  0.00     0.002 A 
HETATM   19  C5  UNL     1      23.907   8.071  50.534  1.00  0.00     0.001 A 
HETATM   20  C6  UNL     1      23.753   6.692  50.685  1.00  0.00     0.009 A 
BRANCH  16  21
HETATM   21  N1  UNL     1      22.778   5.796  47.233  1.00  0.00    -0.309 NA
HETATM   22  C1  UNL     1      22.492   6.482  46.172  1.00  0.00     0.260 C 
ENDBRANCH  16  21
ENDBRANCH  14  15
ENDBRANCH   1  14
BRANCH   9  23
HETATM   23  N2  UNL     1      27.800  -0.999  53.592  1.00  0.00    -0.339 N 
HETATM   24  H16 UNL     1      27.535  -1.863  54.135  1.00  0.00     0.173 HD
BRANCH  23  25
HETATM   25  S1  UNL     1      29.577  -1.113  53.593  1.00  0.00    -0.069 SA
HETATM   26  H17 UNL     1      30.070  -1.373  54.874  1.00  0.00     0.126 HD
ENDBRANCH  23  25
ENDBRANCH   9  23
TORSDOF 5
ENDMDL
