MODEL 1
REMARK VINA RESULT:      -7.5      0.000      0.000
REMARK  8 active torsions:
REMARK  status: ('A' for Active; 'I' for Inactive)
REMARK    1  A    between atoms: N1_2  and  C1_3 
REMARK    2  A    between atoms: C1_3  and  C2_4 
REMARK    3  A    between atoms: C2_4  and  N2_5 
REMARK    4  A    between atoms: N2_5  and  C3_6 
REMARK    5  A    between atoms: C3_6  and  C4_7 
REMARK    6  A    between atoms: C8_11  and  N3_12 
REMARK    7  A    between atoms: N3_12  and  C9_13 
REMARK    8  A    between atoms: C10_15  and  C11_16 
ROOT
HETATM    1  C4  UNL     1      23.258   1.247  52.254  1.00  0.00    -0.028 A 
HETATM    2  C5  UNL     1      23.158   1.939  51.044  1.00  0.00     0.009 A 
HETATM    3  C6  UNL     1      24.141   2.885  50.742  1.00  0.00     0.003 A 
HETATM    4  C7  UNL     1      25.155   3.081  51.656  1.00  0.00     0.029 A 
HETATM    5  C8  UNL     1      25.272   2.411  52.854  1.00  0.00     0.030 A 
HETATM    6  C16 UNL     1      24.283   1.479  53.128  1.00  0.00     0.038 A 
ENDROOT
BRANCH   5   7
HETATM    7  N3  UNL     1      26.330   2.639  53.772  1.00  0.00    -0.362 N 
HETATM    8  H11 UNL     1      26.101   2.922  54.744  1.00  0.00     0.162 HD
BRANCH   7   9
HETATM    9  C9  UNL     1      27.701   2.457  53.280  1.00  0.00     0.259 A 
HETATM   10  N4  UNL     1      28.752   2.435  54.209  1.00  0.00    -0.257 NA
HETATM   11  C10 UNL     1      28.469   1.269  53.719  1.00  0.00     0.087 A 
BRANCH  11  12
HETATM   12  C11 UNL     1      28.582  -0.193  53.520  1.00  0.00     0.010 A 
HETATM   13  C12 UNL     1      29.774  -0.918  53.580  1.00  0.00     0.016 A 
HETATM   14  C13 UNL     1      29.694  -2.295  53.363  1.00  0.00     0.020 A 
HETATM   15  C14 UNL     1      28.453  -2.875  53.100  1.00  0.00     0.116 A 
HETATM   16  N5  UNL     1      27.339  -2.124  53.053  1.00  0.00    -0.272 NA
HETATM   17  C15 UNL     1      27.372  -0.795  53.256  1.00  0.00     0.129 A 
ENDBRANCH  11  12
ENDBRANCH   7   9
ENDBRANCH   5   7
BRANCH   1  18
HETATM   18  C3  UNL     1      22.138   0.286  52.413  1.00  0.00     0.308 C 
BRANCH  18  19
HETATM   19  N2  UNL     1      21.083   0.836  53.243  1.00  0.00     0.089 N 
HETATM   20  H5  UNL     1      20.219   0.834  52.658  1.00  0.00     0.316 HD
BRANCH  19  21
HETATM   21  C2  UNL     1      20.800  -0.011  54.382  1.00  0.00     0.294 C 
BRANCH  21  22
HETATM   22  C1  UNL     1      21.077  -1.469  54.142  1.00  0.00     0.212 C 
BRANCH  22  23
HETATM   23  N1  UNL     1      21.948  -2.017  55.160  1.00  0.00    -0.139 NA
HETATM   24  O1  UNL     1      22.909  -1.345  55.457  1.00  0.00    -0.067 OA
ENDBRANCH  22  23
ENDBRANCH  21  22
ENDBRANCH  19  21
ENDBRANCH  18  19
ENDBRANCH   1  18
TORSDOF 8
ENDMDL
MODEL 2
REMARK VINA RESULT:      -7.3      3.622      6.655
REMARK  8 active torsions:
REMARK  status: ('A' for Active; 'I' for Inactive)
REMARK    1  A    between atoms: N1_2  and  C1_3 
REMARK    2  A    between atoms: C1_3  and  C2_4 
REMARK    3  A    between atoms: C2_4  and  N2_5 
REMARK    4  A    between atoms: N2_5  and  C3_6 
REMARK    5  A    between atoms: C3_6  and  C4_7 
REMARK    6  A    between atoms: C8_11  and  N3_12 
REMARK    7  A    between atoms: N3_12  and  C9_13 
REMARK    8  A    between atoms: C10_15  and  C11_16 
ROOT
HETATM    1  C4  UNL     1      25.256   0.505  53.480  1.00  0.00    -0.028 A 
HETATM    2  C5  UNL     1      23.990  -0.084  53.448  1.00  0.00     0.009 A 
HETATM    3  C6  UNL     1      22.971   0.577  52.757  1.00  0.00     0.003 A 
HETATM    4  C7  UNL     1      23.275   1.775  52.145  1.00  0.00     0.029 A 
HETATM    5  C8  UNL     1      24.515   2.374  52.165  1.00  0.00     0.030 A 
HETATM    6  C16 UNL     1      25.507   1.696  52.857  1.00  0.00     0.038 A 
ENDROOT
BRANCH   5   7
HETATM    7  N3  UNL     1      24.792   3.610  51.524  1.00  0.00    -0.362 N 
HETATM    8  H11 UNL     1      25.035   4.435  52.105  1.00  0.00     0.162 HD
BRANCH   7   9
HETATM    9  C9  UNL     1      24.718   3.640  50.058  1.00  0.00     0.259 A 
HETATM   10  N4  UNL     1      23.979   4.663  49.443  1.00  0.00    -0.257 NA
HETATM   11  C10 UNL     1      25.262   4.815  49.336  1.00  0.00     0.087 A 
BRANCH  11  12
HETATM   12  C11 UNL     1      26.531   5.456  48.930  1.00  0.00     0.010 A 
HETATM   13  C12 UNL     1      27.713   4.773  48.633  1.00  0.00     0.016 A 
HETATM   14  C13 UNL     1      28.819   5.542  48.269  1.00  0.00     0.020 A 
HETATM   15  C14 UNL     1      28.700   6.932  48.219  1.00  0.00     0.116 A 
HETATM   16  N5  UNL     1      27.536   7.533  48.518  1.00  0.00    -0.272 NA
HETATM   17  C15 UNL     1      26.447   6.829  48.873  1.00  0.00     0.129 A 
ENDBRANCH  11  12
ENDBRANCH   7   9
ENDBRANCH   5   7
BRANCH   1  18
HETATM   18  C3  UNL     1      26.213  -0.327  54.251  1.00  0.00     0.308 C 
BRANCH  18  19
HETATM   19  N2  UNL     1      27.196  -0.945  53.382  1.00  0.00     0.089 N 
HETATM   20  H5  UNL     1      27.019  -0.567  52.425  1.00  0.00     0.316 HD
BRANCH  19  21
HETATM   21  C2  UNL     1      28.544  -0.548  53.729  1.00  0.00     0.294 C 
BRANCH  21  22
HETATM   22  C1  UNL     1      28.621   0.386  54.904  1.00  0.00     0.212 C 
BRANCH  22  23
HETATM   23  N1  UNL     1      29.287   1.623  54.554  1.00  0.00    -0.139 NA
HETATM   24  O1  UNL     1      28.569   2.572  54.337  1.00  0.00    -0.067 OA
ENDBRANCH  22  23
ENDBRANCH  21  22
ENDBRANCH  19  21
ENDBRANCH  18  19
ENDBRANCH   1  18
TORSDOF 8
ENDMDL
MODEL 3
REMARK VINA RESULT:      -7.1      2.984      6.539
REMARK  8 active torsions:
REMARK  status: ('A' for Active; 'I' for Inactive)
REMARK    1  A    between atoms: N1_2  and  C1_3 
REMARK    2  A    between atoms: C1_3  and  C2_4 
REMARK    3  A    between atoms: C2_4  and  N2_5 
REMARK    4  A    between atoms: N2_5  and  C3_6 
REMARK    5  A    between atoms: C3_6  and  C4_7 
REMARK    6  A    between atoms: C8_11  and  N3_12 
REMARK    7  A    between atoms: N3_12  and  C9_13 
REMARK    8  A    between atoms: C10_15  and  C11_16 
ROOT
HETATM    1  C4  UNL     1      25.087  -0.019  53.282  1.00  0.00    -0.028 A 
HETATM    2  C5  UNL     1      24.210  -0.795  54.044  1.00  0.00     0.009 A 
HETATM    3  C6  UNL     1      22.861  -0.431  54.071  1.00  0.00     0.003 A 
HETATM    4  C7  UNL     1      22.473   0.675  53.343  1.00  0.00     0.029 A 
HETATM    5  C8  UNL     1      23.321   1.453  52.587  1.00  0.00     0.030 A 
HETATM    6  C16 UNL     1      24.653   1.069  52.578  1.00  0.00     0.038 A 
ENDROOT
BRANCH   5   7
HETATM    7  N3  UNL     1      22.887   2.586  51.850  1.00  0.00    -0.362 N 
HETATM    8  H11 UNL     1      22.530   3.415  52.363  1.00  0.00     0.162 HD
BRANCH   7   9
HETATM    9  C9  UNL     1      22.973   2.511  50.386  1.00  0.00     0.259 A 
HETATM   10  N4  UNL     1      22.295   3.473  49.622  1.00  0.00    -0.257 NA
HETATM   11  C10 UNL     1      23.580   3.641  49.644  1.00  0.00     0.087 A 
BRANCH  11  12
HETATM   12  C11 UNL     1      24.879   4.274  49.332  1.00  0.00     0.010 A 
HETATM   13  C12 UNL     1      25.044   5.593  48.903  1.00  0.00     0.016 A 
HETATM   14  C13 UNL     1      26.348   6.024  48.652  1.00  0.00     0.020 A 
HETATM   15  C14 UNL     1      27.409   5.137  48.836  1.00  0.00     0.116 A 
HETATM   16  N5  UNL     1      27.188   3.877  49.251  1.00  0.00    -0.272 NA
HETATM   17  C15 UNL     1      25.948   3.423  49.504  1.00  0.00     0.129 A 
ENDBRANCH  11  12
ENDBRANCH   7   9
ENDBRANCH   5   7
BRANCH   1  18
HETATM   18  C3  UNL     1      26.473  -0.545  53.364  1.00  0.00     0.308 C 
BRANCH  18  19
HETATM   19  N2  UNL     1      26.987  -0.473  54.719  1.00  0.00     0.089 N 
HETATM   20  H5  UNL     1      27.143  -1.458  55.025  1.00  0.00     0.316 HD
BRANCH  19  21
HETATM   21  C2  UNL     1      28.280   0.174  54.768  1.00  0.00     0.294 C 
BRANCH  21  22
HETATM   22  C1  UNL     1      28.518   1.149  53.649  1.00  0.00     0.212 C 
BRANCH  22  23
HETATM   23  N1  UNL     1      28.945   2.439  54.151  1.00  0.00    -0.139 NA
HETATM   24  O1  UNL     1      29.676   2.419  55.115  1.00  0.00    -0.067 OA
ENDBRANCH  22  23
ENDBRANCH  21  22
ENDBRANCH  19  21
ENDBRANCH  18  19
ENDBRANCH   1  18
TORSDOF 8
ENDMDL
MODEL 4
REMARK VINA RESULT:      -7.0      2.556      6.855
REMARK  8 active torsions:
REMARK  status: ('A' for Active; 'I' for Inactive)
REMARK    1  A    between atoms: N1_2  and  C1_3 
REMARK    2  A    between atoms: C1_3  and  C2_4 
REMARK    3  A    between atoms: C2_4  and  N2_5 
REMARK    4  A    between atoms: N2_5  and  C3_6 
REMARK    5  A    between atoms: C3_6  and  C4_7 
REMARK    6  A    between atoms: C8_11  and  N3_12 
REMARK    7  A    between atoms: N3_12  and  C9_13 
REMARK    8  A    between atoms: C10_15  and  C11_16 
ROOT
HETATM    1  C4  UNL     1      24.600  -0.346  53.851  1.00  0.00    -0.028 A 
HETATM    2  C5  UNL     1      24.361  -1.046  55.037  1.00  0.00     0.009 A 
HETATM    3  C6  UNL     1      23.036  -1.305  55.395  1.00  0.00     0.003 A 
HETATM    4  C7  UNL     1      22.038  -0.856  54.556  1.00  0.00     0.029 A 
HETATM    5  C8  UNL     1      22.250  -0.165  53.384  1.00  0.00     0.030 A 
HETATM    6  C16 UNL     1      23.574   0.079  53.053  1.00  0.00     0.038 A 
ENDROOT
BRANCH   5   7
HETATM    7  N3  UNL     1      21.197   0.284  52.544  1.00  0.00    -0.362 N 
HETATM    8  H11 UNL     1      20.284   0.531  52.969  1.00  0.00     0.162 HD
BRANCH   7   9
HETATM    9  C9  UNL     1      21.474   0.370  51.104  1.00  0.00     0.259 A 
HETATM   10  N4  UNL     1      20.596   1.103  50.293  1.00  0.00    -0.257 NA
HETATM   11  C10 UNL     1      21.728   1.700  50.501  1.00  0.00     0.087 A 
BRANCH  11  12
HETATM   12  C11 UNL     1      22.749   2.765  50.401  1.00  0.00     0.010 A 
HETATM   13  C12 UNL     1      23.590   2.966  49.305  1.00  0.00     0.016 A 
HETATM   14  C13 UNL     1      24.499   4.023  49.384  1.00  0.00     0.020 A 
HETATM   15  C14 UNL     1      24.527   4.817  50.531  1.00  0.00     0.116 A 
HETATM   16  N5  UNL     1      23.692   4.574  51.556  1.00  0.00    -0.272 NA
HETATM   17  C15 UNL     1      22.802   3.567  51.520  1.00  0.00     0.129 A 
ENDBRANCH  11  12
ENDBRANCH   7   9
ENDBRANCH   5   7
BRANCH   1  18
HETATM   18  C3  UNL     1      26.055  -0.159  53.624  1.00  0.00     0.308 C 
BRANCH  18  19
HETATM   19  N2  UNL     1      26.805  -0.302  54.858  1.00  0.00     0.089 N 
HETATM   20  H5  UNL     1      26.805  -1.320  55.084  1.00  0.00     0.316 HD
BRANCH  19  21
HETATM   21  C2  UNL     1      28.192   0.073  54.689  1.00  0.00     0.294 C 
BRANCH  21  22
HETATM   22  C1  UNL     1      28.413   1.139  53.652  1.00  0.00     0.212 C 
BRANCH  22  23
HETATM   23  N1  UNL     1      28.744   2.411  54.261  1.00  0.00    -0.139 NA
HETATM   24  O1  UNL     1      29.673   2.404  55.035  1.00  0.00    -0.067 OA
ENDBRANCH  22  23
ENDBRANCH  21  22
ENDBRANCH  19  21
ENDBRANCH  18  19
ENDBRANCH   1  18
TORSDOF 8
ENDMDL
MODEL 5
REMARK VINA RESULT:      -7.0      4.943      7.491
REMARK  8 active torsions:
REMARK  status: ('A' for Active; 'I' for Inactive)
REMARK    1  A    between atoms: N1_2  and  C1_3 
REMARK    2  A    between atoms: C1_3  and  C2_4 
REMARK    3  A    between atoms: C2_4  and  N2_5 
REMARK    4  A    between atoms: N2_5  and  C3_6 
REMARK    5  A    between atoms: C3_6  and  C4_7 
REMARK    6  A    between atoms: C8_11  and  N3_12 
REMARK    7  A    between atoms: N3_12  and  C9_13 
REMARK    8  A    between atoms: C10_15  and  C11_16 
ROOT
HETATM    1  C4  UNL     1      27.515   5.915  48.415  1.00  0.00    -0.028 A 
HETATM    2  C5  UNL     1      26.353   6.682  48.303  1.00  0.00     0.009 A 
HETATM    3  C6  UNL     1      25.150   6.125  48.745  1.00  0.00     0.003 A 
HETATM    4  C7  UNL     1      25.180   4.849  49.267  1.00  0.00     0.029 A 
HETATM    5  C8  UNL     1      26.313   4.076  49.386  1.00  0.00     0.030 A 
HETATM    6  C16 UNL     1      27.493   4.653  48.940  1.00  0.00     0.038 A 
ENDROOT
BRANCH   5   7
HETATM    7  N3  UNL     1      26.307   2.764  49.929  1.00  0.00    -0.362 N 
HETATM    8  H11 UNL     1      26.607   1.970  49.331  1.00  0.00     0.162 HD
BRANCH   7   9
HETATM    9  C9  UNL     1      25.871   2.614  51.323  1.00  0.00     0.259 A 
HETATM   10  N4  UNL     1      25.005   1.558  51.646  1.00  0.00    -0.257 NA
HETATM   11  C10 UNL     1      26.222   1.374  52.054  1.00  0.00     0.087 A 
BRANCH  11  12
HETATM   12  C11 UNL     1      27.352   0.677  52.705  1.00  0.00     0.010 A 
HETATM   13  C12 UNL     1      28.484   1.305  53.229  1.00  0.00     0.016 A 
HETATM   14  C13 UNL     1      29.457   0.489  53.807  1.00  0.00     0.020 A 
HETATM   15  C14 UNL     1      29.261  -0.892  53.837  1.00  0.00     0.116 A 
HETATM   16  N5  UNL     1      28.150  -1.441  53.316  1.00  0.00    -0.272 NA
HETATM   17  C15 UNL     1      27.189  -0.690  52.750  1.00  0.00     0.129 A 
ENDBRANCH  11  12
ENDBRANCH   7   9
ENDBRANCH   5   7
BRANCH   1  18
HETATM   18  C3  UNL     1      28.695   6.656  47.902  1.00  0.00     0.308 C 
BRANCH  18  19
HETATM   19  N2  UNL     1      29.548   7.107  48.986  1.00  0.00     0.089 N 
HETATM   20  H5  UNL     1      29.762   6.263  49.560  1.00  0.00     0.316 HD
BRANCH  19  21
HETATM   21  C2  UNL     1      30.819   7.597  48.499  1.00  0.00     0.294 C 
BRANCH  21  22
HETATM   22  C1  UNL     1      31.961   6.642  48.707  1.00  0.00     0.212 C 
BRANCH  22  23
HETATM   23  N1  UNL     1      31.490   5.323  49.072  1.00  0.00    -0.139 NA
HETATM   24  O1  UNL     1      32.005   4.395  48.493  1.00  0.00    -0.067 OA
ENDBRANCH  22  23
ENDBRANCH  21  22
ENDBRANCH  19  21
ENDBRANCH  18  19
ENDBRANCH   1  18
TORSDOF 8
ENDMDL
MODEL 6
REMARK VINA RESULT:      -6.7      4.029      5.923
REMARK  8 active torsions:
REMARK  status: ('A' for Active; 'I' for Inactive)
REMARK    1  A    between atoms: N1_2  and  C1_3 
REMARK    2  A    between atoms: C1_3  and  C2_4 
REMARK    3  A    between atoms: C2_4  and  N2_5 
REMARK    4  A    between atoms: N2_5  and  C3_6 
REMARK    5  A    between atoms: C3_6  and  C4_7 
REMARK    6  A    between atoms: C8_11  and  N3_12 
REMARK    7  A    between atoms: N3_12  and  C9_13 
REMARK    8  A    between atoms: C10_15  and  C11_16 
ROOT
HETATM    1  C4  UNL     1      24.095   1.453  52.277  1.00  0.00    -0.028 A 
HETATM    2  C5  UNL     1      24.759   0.310  52.732  1.00  0.00     0.009 A 
HETATM    3  C6  UNL     1      26.138   0.223  52.528  1.00  0.00     0.003 A 
HETATM    4  C7  UNL     1      26.767   1.272  51.891  1.00  0.00     0.029 A 
HETATM    5  C8  UNL     1      26.134   2.406  51.435  1.00  0.00     0.030 A 
HETATM    6  C16 UNL     1      24.765   2.466  51.650  1.00  0.00     0.038 A 
ENDROOT
BRANCH   5   7
HETATM    7  N3  UNL     1      26.813   3.468  50.781  1.00  0.00    -0.362 N 
HETATM    8  H11 UNL     1      27.647   3.886  51.234  1.00  0.00     0.162 HD
BRANCH   7   9
HETATM    9  C9  UNL     1      26.281   3.911  49.486  1.00  0.00     0.259 A 
HETATM   10  N4  UNL     1      25.489   5.068  49.445  1.00  0.00    -0.257 NA
HETATM   11  C10 UNL     1      26.680   5.240  48.965  1.00  0.00     0.087 A 
BRANCH  11  12
HETATM   12  C11 UNL     1      27.812   5.965  48.348  1.00  0.00     0.010 A 
HETATM   13  C12 UNL     1      29.125   5.493  48.284  1.00  0.00     0.016 A 
HETATM   14  C13 UNL     1      30.068   6.315  47.665  1.00  0.00     0.020 A 
HETATM   15  C14 UNL     1      29.668   7.547  47.147  1.00  0.00     0.116 A 
HETATM   16  N5  UNL     1      28.388   7.948  47.239  1.00  0.00    -0.272 NA
HETATM   17  C15 UNL     1      27.449   7.187  47.827  1.00  0.00     0.129 A 
ENDBRANCH  11  12
ENDBRANCH   7   9
ENDBRANCH   5   7
BRANCH   1  18
HETATM   18  C3  UNL     1      22.643   1.381  52.575  1.00  0.00     0.308 C 
BRANCH  18  19
HETATM   19  N2  UNL     1      22.184   0.006  52.640  1.00  0.00     0.089 N 
HETATM   20  H5  UNL     1      22.859  -0.499  53.254  1.00  0.00     0.316 HD
BRANCH  19  21
HETATM   21  C2  UNL     1      20.894  -0.098  53.287  1.00  0.00     0.294 C 
BRANCH  21  22
HETATM   22  C1  UNL     1      20.967  -0.160  54.787  1.00  0.00     0.212 C 
BRANCH  22  23
HETATM   23  N1  UNL     1      22.086  -0.965  55.230  1.00  0.00    -0.139 NA
HETATM   24  O1  UNL     1      21.969  -2.161  55.093  1.00  0.00    -0.067 OA
ENDBRANCH  22  23
ENDBRANCH  21  22
ENDBRANCH  19  21
ENDBRANCH  18  19
ENDBRANCH   1  18
TORSDOF 8
ENDMDL
MODEL 7
REMARK VINA RESULT:      -6.6      2.898      6.938
REMARK  8 active torsions:
REMARK  status: ('A' for Active; 'I' for Inactive)
REMARK    1  A    between atoms: N1_2  and  C1_3 
REMARK    2  A    between atoms: C1_3  and  C2_4 
REMARK    3  A    between atoms: C2_4  and  N2_5 
REMARK    4  A    between atoms: N2_5  and  C3_6 
REMARK    5  A    between atoms: C3_6  and  C4_7 
REMARK    6  A    between atoms: C8_11  and  N3_12 
REMARK    7  A    between atoms: N3_12  and  C9_13 
REMARK    8  A    between atoms: C10_15  and  C11_16 
ROOT
HETATM    1  C4  UNL     1      24.235   0.733  53.130  1.00  0.00    -0.028 A 
HETATM    2  C5  UNL     1      23.853  -0.402  53.849  1.00  0.00     0.009 A 
HETATM    3  C6  UNL     1      22.615  -0.982  53.559  1.00  0.00     0.003 A 
HETATM    4  C7  UNL     1      21.841  -0.400  52.577  1.00  0.00     0.029 A 
HETATM    5  C8  UNL     1      22.197   0.719  51.857  1.00  0.00     0.030 A 
HETATM    6  C16 UNL     1      23.431   1.273  52.165  1.00  0.00     0.038 A 
ENDROOT
BRANCH   5   7
HETATM    7  N3  UNL     1      21.375   1.292  50.852  1.00  0.00    -0.362 N 
HETATM    8  H11 UNL     1      20.444   1.668  51.117  1.00  0.00     0.162 HD
BRANCH   7   9
HETATM    9  C9  UNL     1      21.903   1.317  49.482  1.00  0.00     0.259 A 
HETATM   10  N4  UNL     1      21.225   2.073  48.514  1.00  0.00    -0.257 NA
HETATM   11  C10 UNL     1      22.338   2.611  48.905  1.00  0.00     0.087 A 
BRANCH  11  12
HETATM   12  C11 UNL     1      23.423   3.614  48.962  1.00  0.00     0.010 A 
HETATM   13  C12 UNL     1      24.689   3.393  49.510  1.00  0.00     0.016 A 
HETATM   14  C13 UNL     1      25.591   4.457  49.481  1.00  0.00     0.020 A 
HETATM   15  C14 UNL     1      25.198   5.672  48.918  1.00  0.00     0.116 A 
HETATM   16  N5  UNL     1      23.965   5.826  48.407  1.00  0.00    -0.272 NA
HETATM   17  C15 UNL     1      23.066   4.826  48.414  1.00  0.00     0.129 A 
ENDBRANCH  11  12
ENDBRANCH   7   9
ENDBRANCH   5   7
BRANCH   1  18
HETATM   18  C3  UNL     1      25.571   1.215  53.563  1.00  0.00     0.308 C 
BRANCH  18  19
HETATM   19  N2  UNL     1      26.526   0.127  53.639  1.00  0.00     0.089 N 
HETATM   20  H5  UNL     1      26.185  -0.609  52.983  1.00  0.00     0.316 HD
BRANCH  19  21
HETATM   21  C2  UNL     1      27.831   0.524  53.157  1.00  0.00     0.294 C 
BRANCH  21  22
HETATM   22  C1  UNL     1      28.046   2.011  53.133  1.00  0.00     0.212 C 
BRANCH  22  23
HETATM   23  N1  UNL     1      28.810   2.455  54.280  1.00  0.00    -0.139 NA
HETATM   24  O1  UNL     1      29.064   1.612  55.109  1.00  0.00    -0.067 OA
ENDBRANCH  22  23
ENDBRANCH  21  22
ENDBRANCH  19  21
ENDBRANCH  18  19
ENDBRANCH   1  18
TORSDOF 8
ENDMDL
MODEL 8
REMARK VINA RESULT:      -6.6      2.871      7.442
REMARK  8 active torsions:
REMARK  status: ('A' for Active; 'I' for Inactive)
REMARK    1  A    between atoms: N1_2  and  C1_3 
REMARK    2  A    between atoms: C1_3  and  C2_4 
REMARK    3  A    between atoms: C2_4  and  N2_5 
REMARK    4  A    between atoms: N2_5  and  C3_6 
REMARK    5  A    between atoms: C3_6  and  C4_7 
REMARK    6  A    between atoms: C8_11  and  N3_12 
REMARK    7  A    between atoms: N3_12  and  C9_13 
REMARK    8  A    between atoms: C10_15  and  C11_16 
ROOT
HETATM    1  C4  UNL     1      25.892   1.340  51.948  1.00  0.00    -0.028 A 
HETATM    2  C5  UNL     1      26.804   0.303  52.160  1.00  0.00     0.009 A 
HETATM    3  C6  UNL     1      26.384  -0.806  52.898  1.00  0.00     0.003 A 
HETATM    4  C7  UNL     1      25.090  -0.814  53.376  1.00  0.00     0.029 A 
HETATM    5  C8  UNL     1      24.175   0.196  53.180  1.00  0.00     0.030 A 
HETATM    6  C16 UNL     1      24.619   1.284  52.444  1.00  0.00     0.038 A 
ENDROOT
BRANCH   5   7
HETATM    7  N3  UNL     1      22.850   0.154  53.687  1.00  0.00    -0.362 N 
HETATM    8  H11 UNL     1      22.401   1.038  53.995  1.00  0.00     0.162 HD
BRANCH   7   9
HETATM    9  C9  UNL     1      22.190  -1.156  53.743  1.00  0.00     0.259 A 
HETATM   10  N4  UNL     1      21.527  -1.525  54.923  1.00  0.00    -0.257 NA
HETATM   11  C10 UNL     1      20.724  -1.213  53.954  1.00  0.00     0.087 A 
BRANCH  11  12
HETATM   12  C11 UNL     1      19.433  -0.988  53.270  1.00  0.00     0.010 A 
HETATM   13  C12 UNL     1      19.201  -0.013  52.298  1.00  0.00     0.016 A 
HETATM   14  C13 UNL     1      17.915   0.058  51.759  1.00  0.00     0.020 A 
HETATM   15  C14 UNL     1      16.936  -0.830  52.207  1.00  0.00     0.116 A 
HETATM   16  N5  UNL     1      17.218  -1.748  53.148  1.00  0.00    -0.272 NA
HETATM   17  C15 UNL     1      18.444  -1.850  53.691  1.00  0.00     0.129 A 
ENDBRANCH  11  12
ENDBRANCH   7   9
ENDBRANCH   5   7
BRANCH   1  18
HETATM   18  C3  UNL     1      26.500   2.432  51.148  1.00  0.00     0.308 C 
BRANCH  18  19
HETATM   19  N2  UNL     1      25.692   3.636  51.197  1.00  0.00     0.089 N 
HETATM   20  H5  UNL     1      26.341   4.413  51.449  1.00  0.00     0.316 HD
BRANCH  19  21
HETATM   21  C2  UNL     1      25.149   3.970  49.898  1.00  0.00     0.294 C 
BRANCH  21  22
HETATM   22  C1  UNL     1      23.833   4.694  49.955  1.00  0.00     0.212 C 
BRANCH  22  23
HETATM   23  N1  UNL     1      23.002   4.200  51.033  1.00  0.00    -0.139 NA
HETATM   24  O1  UNL     1      23.065   4.809  52.075  1.00  0.00    -0.067 OA
ENDBRANCH  22  23
ENDBRANCH  21  22
ENDBRANCH  19  21
ENDBRANCH  18  19
ENDBRANCH   1  18
TORSDOF 8
ENDMDL
MODEL 9
REMARK VINA RESULT:      -6.6      2.725      6.900
REMARK  8 active torsions:
REMARK  status: ('A' for Active; 'I' for Inactive)
REMARK    1  A    between atoms: N1_2  and  C1_3 
REMARK    2  A    between atoms: C1_3  and  C2_4 
REMARK    3  A    between atoms: C2_4  and  N2_5 
REMARK    4  A    between atoms: N2_5  and  C3_6 
REMARK    5  A    between atoms: C3_6  and  C4_7 
REMARK    6  A    between atoms: C8_11  and  N3_12 
REMARK    7  A    between atoms: N3_12  and  C9_13 
REMARK    8  A    between atoms: C10_15  and  C11_16 
ROOT
HETATM    1  C4  UNL     1      24.660   1.709  52.647  1.00  0.00    -0.028 A 
HETATM    2  C5  UNL     1      24.539   2.890  53.384  1.00  0.00     0.009 A 
HETATM    3  C6  UNL     1      23.837   3.955  52.813  1.00  0.00     0.003 A 
HETATM    4  C7  UNL     1      23.303   3.779  51.554  1.00  0.00     0.029 A 
HETATM    5  C8  UNL     1      23.411   2.625  50.810  1.00  0.00     0.030 A 
HETATM    6  C16 UNL     1      24.113   1.585  51.400  1.00  0.00     0.038 A 
ENDROOT
BRANCH   5   7
HETATM    7  N3  UNL     1      22.849   2.479  49.515  1.00  0.00    -0.362 N 
HETATM    8  H11 UNL     1      23.482   2.401  48.696  1.00  0.00     0.162 HD
BRANCH   7   9
HETATM    9  C9  UNL     1      21.384   2.445  49.416  1.00  0.00     0.259 A 
HETATM   10  N4  UNL     1      20.786   1.452  48.627  1.00  0.00    -0.257 NA
HETATM   11  C10 UNL     1      20.660   1.247  49.900  1.00  0.00     0.087 A 
BRANCH  11  12
HETATM   12  C11 UNL     1      20.237   0.553  51.136  1.00  0.00     0.010 A 
HETATM   13  C12 UNL     1      21.094   0.160  52.166  1.00  0.00     0.016 A 
HETATM   14  C13 UNL     1      20.521  -0.489  53.261  1.00  0.00     0.020 A 
HETATM   15  C14 UNL     1      19.144  -0.713  53.279  1.00  0.00     0.116 A 
HETATM   16  N5  UNL     1      18.369  -0.312  52.257  1.00  0.00    -0.272 NA
HETATM   17  C15 UNL     1      18.881   0.316  51.184  1.00  0.00     0.129 A 
ENDBRANCH  11  12
ENDBRANCH   7   9
ENDBRANCH   5   7
BRANCH   1  18
HETATM   18  C3  UNL     1      25.431   0.687  53.399  1.00  0.00     0.308 C 
BRANCH  18  19
HETATM   19  N2  UNL     1      26.396   1.302  54.290  1.00  0.00     0.089 N 
HETATM   20  H5  UNL     1      25.844   1.769  55.041  1.00  0.00     0.316 HD
BRANCH  19  21
HETATM   21  C2  UNL     1      27.222   0.315  54.950  1.00  0.00     0.294 C 
BRANCH  21  22
HETATM   22  C1  UNL     1      28.690   0.452  54.656  1.00  0.00     0.212 C 
BRANCH  22  23
HETATM   23  N1  UNL     1      29.172   1.780  54.970  1.00  0.00    -0.139 NA
HETATM   24  O1  UNL     1      28.900   2.648  54.173  1.00  0.00    -0.067 OA
ENDBRANCH  22  23
ENDBRANCH  21  22
ENDBRANCH  19  21
ENDBRANCH  18  19
ENDBRANCH   1  18
TORSDOF 8
ENDMDL
