MODEL 1
REMARK VINA RESULT:      -8.4      0.000      0.000
REMARK  6 active torsions:
REMARK  status: ('A' for Active; 'I' for Inactive)
REMARK    1  A    between atoms: C9_9  and  C10_10 
REMARK    2  A    between atoms: C15_15  and  O1_16 
REMARK    3  A    between atoms: N2_18  and  C16_19 
REMARK    4  A    between atoms: C16_19  and  O2_20 
REMARK    5  A    between atoms: O2_20  and  C17_21 
REMARK    6  A    between atoms: N3_22  and  C18_23 
ROOT
HETATM    1  C1  UNL     1      21.108   1.041  49.844  1.00  0.00     0.048 C 
HETATM    2  C2  UNL     1      22.199   1.858  50.481  1.00  0.00    -0.063 A 
HETATM    3  C3  UNL     1      23.374   1.658  51.065  1.00  0.00     0.016 A 
HETATM    4  C4  UNL     1      23.972   2.949  51.493  1.00  0.00     0.089 A 
HETATM    5  C5  UNL     1      22.946   3.917  51.059  1.00  0.00     0.010 A 
HETATM    6  C6  UNL     1      21.920   3.288  50.474  1.00  0.00     0.005 A 
HETATM    7  C7  UNL     1      24.124   2.893  52.992  1.00  0.00     0.047 C 
HETATM    8  C8  UNL     1      24.979   1.674  53.297  1.00  0.00     0.065 C 
HETATM    9  C9  UNL     1      26.233   1.684  52.498  1.00  0.00     0.067 C 
HETATM   10  N1  UNL     1      26.324   2.405  51.413  1.00  0.00    -0.178 NA
HETATM   11  N2  UNL     1      25.272   3.198  50.939  1.00  0.00    -0.264 N 
ENDROOT
BRANCH   9  12
HETATM   12  C10 UNL     1      27.365   0.867  52.955  1.00  0.00     0.023 A 
HETATM   13  C11 UNL     1      27.429  -0.487  52.698  1.00  0.00     0.016 A 
HETATM   14  C12 UNL     1      28.487  -1.287  53.117  1.00  0.00     0.001 A 
HETATM   15  C13 UNL     1      29.531  -0.695  53.830  1.00  0.00     0.003 A 
HETATM   16  C14 UNL     1      29.450   0.660  54.078  1.00  0.00     0.037 A 
HETATM   17  C15 UNL     1      28.394   1.460  53.660  1.00  0.00     0.077 A 
BRANCH  17  18
HETATM   18  O1  UNL     1      28.375   2.821  53.943  1.00  0.00    -0.360 OA
HETATM   19  H15 UNL     1      29.164   3.364  54.259  1.00  0.00     0.217 HD
ENDBRANCH  17  18
ENDBRANCH   9  12
BRANCH  11  20
HETATM   20  C16 UNL     1      25.590   4.200  49.930  1.00  0.00     0.322 C 
BRANCH  20  21
HETATM   21  O2  UNL     1      26.806   3.914  49.253  1.00  0.00    -0.324 OA
BRANCH  21  22
HETATM   22  C17 UNL     1      27.442   5.026  48.686  1.00  0.00     0.256 C 
HETATM   23  N3  UNL     1      28.713   4.942  48.505  1.00  0.00    -0.210 NA
BRANCH  23  24
HETATM   24  C18 UNL     1      29.534   5.935  47.955  1.00  0.00     0.378 C 
HETATM   25  O3  UNL     1      30.164   7.028  48.052  1.00  0.00    -0.281 OA
ENDBRANCH  23  24
ENDBRANCH  21  22
ENDBRANCH  20  21
ENDBRANCH  11  20
TORSDOF 6
ENDMDL
MODEL 2
REMARK VINA RESULT:      -8.3      1.412      1.520
REMARK  6 active torsions:
REMARK  status: ('A' for Active; 'I' for Inactive)
REMARK    1  A    between atoms: C9_9  and  C10_10 
REMARK    2  A    between atoms: C15_15  and  O1_16 
REMARK    3  A    between atoms: N2_18  and  C16_19 
REMARK    4  A    between atoms: C16_19  and  O2_20 
REMARK    5  A    between atoms: O2_20  and  C17_21 
REMARK    6  A    between atoms: N3_22  and  C18_23 
ROOT
HETATM    1  C1  UNL     1      22.003   2.333  47.748  1.00  0.00     0.048 C 
HETATM    2  C2  UNL     1      22.983   2.988  48.686  1.00  0.00    -0.063 A 
HETATM    3  C3  UNL     1      23.931   2.625  49.540  1.00  0.00     0.016 A 
HETATM    4  C4  UNL     1      24.550   3.818  50.173  1.00  0.00     0.089 A 
HETATM    5  C5  UNL     1      23.799   4.920  49.540  1.00  0.00     0.010 A 
HETATM    6  C6  UNL     1      22.893   4.442  48.680  1.00  0.00     0.005 A 
HETATM    7  C7  UNL     1      24.297   3.716  51.656  1.00  0.00     0.047 C 
HETATM    8  C8  UNL     1      24.886   2.390  52.107  1.00  0.00     0.065 C 
HETATM    9  C9  UNL     1      26.297   2.250  51.658  1.00  0.00     0.067 C 
HETATM   10  N1  UNL     1      26.755   2.971  50.671  1.00  0.00    -0.178 NA
HETATM   11  N2  UNL     1      25.970   3.904  49.984  1.00  0.00    -0.264 N 
ENDROOT
BRANCH   9  12
HETATM   12  C10 UNL     1      27.162   1.282  52.347  1.00  0.00     0.023 A 
HETATM   13  C11 UNL     1      26.879  -0.068  52.347  1.00  0.00     0.016 A 
HETATM   14  C12 UNL     1      27.678  -1.008  52.990  1.00  0.00     0.001 A 
HETATM   15  C13 UNL     1      28.816  -0.566  53.667  1.00  0.00     0.003 A 
HETATM   16  C14 UNL     1      29.084   0.787  53.656  1.00  0.00     0.037 A 
HETATM   17  C15 UNL     1      28.287   1.727  53.014  1.00  0.00     0.077 A 
BRANCH  17  18
HETATM   18  O1  UNL     1      28.614   3.077  53.042  1.00  0.00    -0.360 OA
HETATM   19  H15 UNL     1      29.366   3.509  52.526  1.00  0.00     0.217 HD
ENDBRANCH  17  18
ENDBRANCH   9  12
BRANCH  11  20
HETATM   20  C16 UNL     1      26.660   4.873  49.144  1.00  0.00     0.322 C 
BRANCH  20  21
HETATM   21  O2  UNL     1      27.949   4.422  48.751  1.00  0.00    -0.324 OA
BRANCH  21  22
HETATM   22  C17 UNL     1      28.820   5.430  48.318  1.00  0.00     0.256 C 
HETATM   23  N3  UNL     1      30.049   5.337  48.689  1.00  0.00    -0.210 NA
BRANCH  23  24
HETATM   24  C18 UNL     1      31.076   6.234  48.367  1.00  0.00     0.378 C 
HETATM   25  O3  UNL     1      32.061   6.954  48.701  1.00  0.00    -0.281 OA
ENDBRANCH  23  24
ENDBRANCH  21  22
ENDBRANCH  20  21
ENDBRANCH  11  20
TORSDOF 6
ENDMDL
MODEL 3
REMARK VINA RESULT:      -8.0      1.568      2.002
REMARK  6 active torsions:
REMARK  status: ('A' for Active; 'I' for Inactive)
REMARK    1  A    between atoms: C9_9  and  C10_10 
REMARK    2  A    between atoms: C15_15  and  O1_16 
REMARK    3  A    between atoms: N2_18  and  C16_19 
REMARK    4  A    between atoms: C16_19  and  O2_20 
REMARK    5  A    between atoms: O2_20  and  C17_21 
REMARK    6  A    between atoms: N3_22  and  C18_23 
ROOT
HETATM    1  C1  UNL     1      21.341   1.121  48.948  1.00  0.00     0.048 C 
HETATM    2  C2  UNL     1      21.906   1.498  50.292  1.00  0.00    -0.063 A 
HETATM    3  C3  UNL     1      23.012   1.289  50.995  1.00  0.00     0.016 A 
HETATM    4  C4  UNL     1      22.933   1.975  52.311  1.00  0.00     0.089 A 
HETATM    5  C5  UNL     1      21.601   2.607  52.242  1.00  0.00     0.010 A 
HETATM    6  C6  UNL     1      21.006   2.332  51.076  1.00  0.00     0.005 A 
HETATM    7  C7  UNL     1      23.019   0.909  53.373  1.00  0.00     0.047 C 
HETATM    8  C8  UNL     1      24.319   0.160  53.133  1.00  0.00     0.065 C 
HETATM    9  C9  UNL     1      25.468   1.099  53.033  1.00  0.00     0.067 C 
HETATM   10  N1  UNL     1      25.274   2.360  52.759  1.00  0.00    -0.178 NA
HETATM   11  N2  UNL     1      24.002   2.903  52.545  1.00  0.00    -0.264 N 
ENDROOT
BRANCH   9  12
HETATM   12  C10 UNL     1      26.824   0.576  53.248  1.00  0.00     0.023 A 
HETATM   13  C11 UNL     1      27.159  -0.722  52.921  1.00  0.00     0.016 A 
HETATM   14  C12 UNL     1      28.434  -1.245  53.112  1.00  0.00     0.001 A 
HETATM   15  C13 UNL     1      29.419  -0.422  53.662  1.00  0.00     0.003 A 
HETATM   16  C14 UNL     1      29.066   0.873  53.984  1.00  0.00     0.037 A 
HETATM   17  C15 UNL     1      27.793   1.396  53.792  1.00  0.00     0.077 A 
BRANCH  17  18
HETATM   18  O1  UNL     1      27.505   2.711  54.138  1.00  0.00    -0.360 OA
HETATM   19  H15 UNL     1      26.599   3.150  54.069  1.00  0.00     0.217 HD
ENDBRANCH  17  18
ENDBRANCH   9  12
BRANCH  11  20
HETATM   20  C16 UNL     1      23.877   4.354  52.581  1.00  0.00     0.322 C 
BRANCH  20  21
HETATM   21  O2  UNL     1      23.887   4.926  51.281  1.00  0.00    -0.324 OA
BRANCH  21  22
HETATM   22  C17 UNL     1      24.838   4.385  50.405  1.00  0.00     0.256 C 
HETATM   23  N3  UNL     1      25.693   5.201  49.896  1.00  0.00    -0.210 NA
BRANCH  23  24
HETATM   24  C18 UNL     1      26.721   4.866  49.005  1.00  0.00     0.378 C 
HETATM   25  O3  UNL     1      27.933   4.598  48.765  1.00  0.00    -0.281 OA
ENDBRANCH  23  24
ENDBRANCH  21  22
ENDBRANCH  20  21
ENDBRANCH  11  20
TORSDOF 6
ENDMDL
MODEL 4
REMARK VINA RESULT:      -7.9      1.775      2.259
REMARK  6 active torsions:
REMARK  status: ('A' for Active; 'I' for Inactive)
REMARK    1  A    between atoms: C9_9  and  C10_10 
REMARK    2  A    between atoms: C15_15  and  O1_16 
REMARK    3  A    between atoms: N2_18  and  C16_19 
REMARK    4  A    between atoms: C16_19  and  O2_20 
REMARK    5  A    between atoms: O2_20  and  C17_21 
REMARK    6  A    between atoms: N3_22  and  C18_23 
ROOT
HETATM    1  C1  UNL     1      20.908   0.603  50.889  1.00  0.00     0.048 C 
HETATM    2  C2  UNL     1      22.099   1.482  51.164  1.00  0.00    -0.063 A 
HETATM    3  C3  UNL     1      23.354   1.350  51.573  1.00  0.00     0.016 A 
HETATM    4  C4  UNL     1      24.027   2.673  51.634  1.00  0.00     0.089 A 
HETATM    5  C5  UNL     1      22.949   3.580  51.193  1.00  0.00     0.010 A 
HETATM    6  C6  UNL     1      21.834   2.893  50.921  1.00  0.00     0.005 A 
HETATM    7  C7  UNL     1      24.431   2.901  53.068  1.00  0.00     0.047 C 
HETATM    8  C8  UNL     1      25.315   1.730  53.461  1.00  0.00     0.065 C 
HETATM    9  C9  UNL     1      26.415   1.534  52.480  1.00  0.00     0.067 C 
HETATM   10  N1  UNL     1      26.326   2.027  51.275  1.00  0.00    -0.178 NA
HETATM   11  N2  UNL     1      25.215   2.756  50.834  1.00  0.00    -0.264 N 
ENDROOT
BRANCH   9  12
HETATM   12  C10 UNL     1      27.602   0.774  52.895  1.00  0.00     0.023 A 
HETATM   13  C11 UNL     1      27.596  -0.605  52.945  1.00  0.00     0.016 A 
HETATM   14  C12 UNL     1      28.703  -1.352  53.334  1.00  0.00     0.001 A 
HETATM   15  C13 UNL     1      29.873  -0.678  53.691  1.00  0.00     0.003 A 
HETATM   16  C14 UNL     1      29.861   0.701  53.635  1.00  0.00     0.037 A 
HETATM   17  C15 UNL     1      28.755   1.448  53.246  1.00  0.00     0.077 A 
BRANCH  17  18
HETATM   18  O1  UNL     1      28.810   2.836  53.211  1.00  0.00    -0.360 OA
HETATM   19  H15 UNL     1      28.094   3.459  53.552  1.00  0.00     0.217 HD
ENDBRANCH  17  18
ENDBRANCH   9  12
BRANCH  11  20
HETATM   20  C16 UNL     1      25.365   3.531  49.609  1.00  0.00     0.322 C 
BRANCH  20  21
HETATM   21  O2  UNL     1      26.204   4.664  49.789  1.00  0.00    -0.324 OA
BRANCH  21  22
HETATM   22  C17 UNL     1      25.574   5.901  49.602  1.00  0.00     0.256 C 
HETATM   23  N3  UNL     1      24.966   6.405  50.619  1.00  0.00    -0.210 NA
BRANCH  23  24
HETATM   24  C18 UNL     1      24.278   7.625  50.644  1.00  0.00     0.378 C 
HETATM   25  O3  UNL     1      23.420   8.421  50.164  1.00  0.00    -0.281 OA
ENDBRANCH  23  24
ENDBRANCH  21  22
ENDBRANCH  20  21
ENDBRANCH  11  20
TORSDOF 6
ENDMDL
MODEL 5
REMARK VINA RESULT:      -7.7      3.587      6.875
REMARK  6 active torsions:
REMARK  status: ('A' for Active; 'I' for Inactive)
REMARK    1  A    between atoms: C9_9  and  C10_10 
REMARK    2  A    between atoms: C15_15  and  O1_16 
REMARK    3  A    between atoms: N2_18  and  C16_19 
REMARK    4  A    between atoms: C16_19  and  O2_20 
REMARK    5  A    between atoms: O2_20  and  C17_21 
REMARK    6  A    between atoms: N3_22  and  C18_23 
ROOT
HETATM    1  C1  UNL     1      26.556   2.863  49.572  1.00  0.00     0.048 C 
HETATM    2  C2  UNL     1      25.870   2.448  50.846  1.00  0.00    -0.063 A 
HETATM    3  C3  UNL     1      24.686   1.988  51.228  1.00  0.00     0.016 A 
HETATM    4  C4  UNL     1      24.658   1.771  52.698  1.00  0.00     0.089 A 
HETATM    5  C5  UNL     1      26.020   2.183  53.090  1.00  0.00     0.010 A 
HETATM    6  C6  UNL     1      26.722   2.575  52.021  1.00  0.00     0.005 A 
HETATM    7  C7  UNL     1      23.591   2.673  53.261  1.00  0.00     0.047 C 
HETATM    8  C8  UNL     1      22.297   2.313  52.550  1.00  0.00     0.065 C 
HETATM    9  C9  UNL     1      22.038   0.850  52.615  1.00  0.00     0.067 C 
HETATM   10  N1  UNL     1      23.009   0.014  52.863  1.00  0.00    -0.178 NA
HETATM   11  N2  UNL     1      24.329   0.427  53.079  1.00  0.00    -0.264 N 
ENDROOT
BRANCH   9  12
HETATM   12  C10 UNL     1      20.669   0.367  52.394  1.00  0.00     0.023 A 
HETATM   13  C11 UNL     1      19.996   0.616  51.215  1.00  0.00     0.016 A 
HETATM   14  C12 UNL     1      18.699   0.172  50.977  1.00  0.00     0.001 A 
HETATM   15  C13 UNL     1      18.048  -0.556  51.974  1.00  0.00     0.003 A 
HETATM   16  C14 UNL     1      18.735  -0.795  53.147  1.00  0.00     0.037 A 
HETATM   17  C15 UNL     1      20.031  -0.353  53.386  1.00  0.00     0.077 A 
BRANCH  17  18
HETATM   18  O1  UNL     1      20.667  -0.629  54.590  1.00  0.00    -0.360 OA
HETATM   19  H15 UNL     1      21.638  -0.451  54.794  1.00  0.00     0.217 HD
ENDBRANCH  17  18
ENDBRANCH   9  12
BRANCH  11  20
HETATM   20  C16 UNL     1      25.246  -0.540  53.669  1.00  0.00     0.322 C 
BRANCH  20  21
HETATM   21  O2  UNL     1      25.897  -1.332  52.686  1.00  0.00    -0.324 OA
BRANCH  21  22
HETATM   22  C17 UNL     1      27.286  -1.437  52.838  1.00  0.00     0.256 C 
HETATM   23  N3  UNL     1      27.829  -0.710  53.751  1.00  0.00    -0.210 NA
BRANCH  23  24
HETATM   24  C18 UNL     1      29.194  -0.666  54.064  1.00  0.00     0.378 C 
HETATM   25  O3  UNL     1      30.386  -1.042  53.868  1.00  0.00    -0.281 OA
ENDBRANCH  23  24
ENDBRANCH  21  22
ENDBRANCH  20  21
ENDBRANCH  11  20
TORSDOF 6
ENDMDL
MODEL 6
REMARK VINA RESULT:      -7.5      3.217      5.467
REMARK  6 active torsions:
REMARK  status: ('A' for Active; 'I' for Inactive)
REMARK    1  A    between atoms: C9_9  and  C10_10 
REMARK    2  A    between atoms: C15_15  and  O1_16 
REMARK    3  A    between atoms: N2_18  and  C16_19 
REMARK    4  A    between atoms: C16_19  and  O2_20 
REMARK    5  A    between atoms: O2_20  and  C17_21 
REMARK    6  A    between atoms: N3_22  and  C18_23 
ROOT
HETATM    1  C1  UNL     1      23.699   7.486  50.774  1.00  0.00     0.048 C 
HETATM    2  C2  UNL     1      23.853   6.009  50.529  1.00  0.00    -0.063 A 
HETATM    3  C3  UNL     1      24.580   4.999  50.989  1.00  0.00     0.016 A 
HETATM    4  C4  UNL     1      24.225   3.737  50.290  1.00  0.00     0.089 A 
HETATM    5  C5  UNL     1      23.178   4.193  49.357  1.00  0.00     0.010 A 
HETATM    6  C6  UNL     1      22.961   5.506  49.493  1.00  0.00     0.005 A 
HETATM    7  C7  UNL     1      25.467   3.255  49.584  1.00  0.00     0.047 C 
HETATM    8  C8  UNL     1      26.540   3.102  50.649  1.00  0.00     0.065 C 
HETATM    9  C9  UNL     1      26.055   2.276  51.786  1.00  0.00     0.067 C 
HETATM   10  N1  UNL     1      24.776   2.111  51.989  1.00  0.00    -0.178 NA
HETATM   11  N2  UNL     1      23.797   2.688  51.171  1.00  0.00    -0.264 N 
ENDROOT
BRANCH   9  12
HETATM   12  C10 UNL     1      27.044   1.650  52.674  1.00  0.00     0.023 A 
HETATM   13  C11 UNL     1      28.111   2.361  53.182  1.00  0.00     0.016 A 
HETATM   14  C12 UNL     1      29.064   1.797  54.024  1.00  0.00     0.001 A 
HETATM   15  C13 UNL     1      28.935   0.451  54.371  1.00  0.00     0.003 A 
HETATM   16  C14 UNL     1      27.862  -0.245  53.854  1.00  0.00     0.037 A 
HETATM   17  C15 UNL     1      26.910   0.318  53.013  1.00  0.00     0.077 A 
BRANCH  17  18
HETATM   18  O1  UNL     1      25.852  -0.441  52.527  1.00  0.00    -0.360 OA
HETATM   19  H15 UNL     1      25.025  -0.693  53.046  1.00  0.00     0.217 HD
ENDBRANCH  17  18
ENDBRANCH   9  12
BRANCH  11  20
HETATM   20  C16 UNL     1      22.439   2.173  51.285  1.00  0.00     0.322 C 
BRANCH  20  21
HETATM   21  O2  UNL     1      22.396   0.754  51.226  1.00  0.00    -0.324 OA
BRANCH  21  22
HETATM   22  C17 UNL     1      21.889   0.130  52.373  1.00  0.00     0.256 C 
HETATM   23  N3  UNL     1      22.741  -0.435  53.155  1.00  0.00    -0.210 NA
BRANCH  23  24
HETATM   24  C18 UNL     1      22.444  -1.109  54.347  1.00  0.00     0.378 C 
HETATM   25  O3  UNL     1      21.639  -1.745  55.086  1.00  0.00    -0.281 OA
ENDBRANCH  23  24
ENDBRANCH  21  22
ENDBRANCH  20  21
ENDBRANCH  11  20
TORSDOF 6
ENDMDL
MODEL 7
REMARK VINA RESULT:      -7.1      3.763      6.174
REMARK  6 active torsions:
REMARK  status: ('A' for Active; 'I' for Inactive)
REMARK    1  A    between atoms: C9_9  and  C10_10 
REMARK    2  A    between atoms: C15_15  and  O1_16 
REMARK    3  A    between atoms: N2_18  and  C16_19 
REMARK    4  A    between atoms: C16_19  and  O2_20 
REMARK    5  A    between atoms: O2_20  and  C17_21 
REMARK    6  A    between atoms: N3_22  and  C18_23 
ROOT
HETATM    1  C1  UNL     1      22.799   5.550  52.704  1.00  0.00     0.048 C 
HETATM    2  C2  UNL     1      22.940   4.062  52.525  1.00  0.00    -0.063 A 
HETATM    3  C3  UNL     1      23.879   3.133  52.653  1.00  0.00     0.016 A 
HETATM    4  C4  UNL     1      23.341   1.793  52.305  1.00  0.00     0.089 A 
HETATM    5  C5  UNL     1      21.942   2.109  51.958  1.00  0.00     0.010 A 
HETATM    6  C6  UNL     1      21.708   3.421  52.085  1.00  0.00     0.005 A 
HETATM    7  C7  UNL     1      24.134   1.287  51.127  1.00  0.00     0.047 C 
HETATM    8  C8  UNL     1      25.593   1.286  51.554  1.00  0.00     0.065 C 
HETATM    9  C9  UNL     1      25.775   0.565  52.841  1.00  0.00     0.067 C 
HETATM   10  N1  UNL     1      24.764   0.375  53.645  1.00  0.00    -0.178 NA
HETATM   11  N2  UNL     1      23.470   0.826  53.357  1.00  0.00    -0.264 N 
ENDROOT
BRANCH   9  12
HETATM   12  C10 UNL     1      27.114   0.073  53.189  1.00  0.00     0.023 A 
HETATM   13  C11 UNL     1      27.526  -1.201  52.854  1.00  0.00     0.016 A 
HETATM   14  C12 UNL     1      28.787  -1.696  53.170  1.00  0.00     0.001 A 
HETATM   15  C13 UNL     1      29.677  -0.867  53.856  1.00  0.00     0.003 A 
HETATM   16  C14 UNL     1      29.249   0.403  54.183  1.00  0.00     0.037 A 
HETATM   17  C15 UNL     1      27.990   0.898  53.868  1.00  0.00     0.077 A 
BRANCH  17  18
HETATM   18  O1  UNL     1      27.621   2.189  54.227  1.00  0.00    -0.360 OA
HETATM   19  H15 UNL     1      27.271   2.468  55.130  1.00  0.00     0.217 HD
ENDBRANCH  17  18
ENDBRANCH   9  12
BRANCH  11  20
HETATM   20  C16 UNL     1      22.377   0.275  54.147  1.00  0.00     0.322 C 
BRANCH  20  21
HETATM   21  O2  UNL     1      22.283  -1.137  54.024  1.00  0.00    -0.324 OA
BRANCH  21  22
HETATM   22  C17 UNL     1      20.979  -1.648  54.074  1.00  0.00     0.256 C 
HETATM   23  N3  UNL     1      20.053  -0.936  53.533  1.00  0.00    -0.210 NA
BRANCH  23  24
HETATM   24  C18 UNL     1      18.692  -1.264  53.473  1.00  0.00     0.378 C 
HETATM   25  O3  UNL     1      17.474  -0.959  53.623  1.00  0.00    -0.281 OA
ENDBRANCH  23  24
ENDBRANCH  21  22
ENDBRANCH  20  21
ENDBRANCH  11  20
TORSDOF 6
ENDMDL
MODEL 8
REMARK VINA RESULT:      -7.1      3.214      5.469
REMARK  6 active torsions:
REMARK  status: ('A' for Active; 'I' for Inactive)
REMARK    1  A    between atoms: C9_9  and  C10_10 
REMARK    2  A    between atoms: C15_15  and  O1_16 
REMARK    3  A    between atoms: N2_18  and  C16_19 
REMARK    4  A    between atoms: C16_19  and  O2_20 
REMARK    5  A    between atoms: O2_20  and  C17_21 
REMARK    6  A    between atoms: N3_22  and  C18_23 
ROOT
HETATM    1  C1  UNL     1      23.568   7.303  50.809  1.00  0.00     0.048 C 
HETATM    2  C2  UNL     1      23.836   5.858  50.488  1.00  0.00    -0.063 A 
HETATM    3  C3  UNL     1      24.613   4.874  50.923  1.00  0.00     0.016 A 
HETATM    4  C4  UNL     1      24.379   3.635  50.136  1.00  0.00     0.089 A 
HETATM    5  C5  UNL     1      23.342   4.074  49.182  1.00  0.00     0.010 A 
HETATM    6  C6  UNL     1      23.028   5.359  49.383  1.00  0.00     0.005 A 
HETATM    7  C7  UNL     1      25.681   3.283  49.463  1.00  0.00     0.047 C 
HETATM    8  C8  UNL     1      26.716   3.139  50.566  1.00  0.00     0.065 C 
HETATM    9  C9  UNL     1      26.241   2.214  51.629  1.00  0.00     0.067 C 
HETATM   10  N1  UNL     1      24.970   1.950  51.762  1.00  0.00    -0.178 NA
HETATM   11  N2  UNL     1      23.989   2.507  50.934  1.00  0.00    -0.264 N 
ENDROOT
BRANCH   9  12
HETATM   12  C10 UNL     1      27.233   1.605  52.525  1.00  0.00     0.023 A 
HETATM   13  C11 UNL     1      28.091   2.374  53.285  1.00  0.00     0.016 A 
HETATM   14  C12 UNL     1      29.040   1.827  54.142  1.00  0.00     0.001 A 
HETATM   15  C13 UNL     1      29.131   0.437  54.238  1.00  0.00     0.003 A 
HETATM   16  C14 UNL     1      28.266  -0.317  53.472  1.00  0.00     0.037 A 
HETATM   17  C15 UNL     1      27.317   0.229  52.616  1.00  0.00     0.077 A 
BRANCH  17  18
HETATM   18  O1  UNL     1      26.476  -0.589  51.871  1.00  0.00    -0.360 OA
HETATM   19  H15 UNL     1      25.467  -0.565  51.891  1.00  0.00     0.217 HD
ENDBRANCH  17  18
ENDBRANCH   9  12
BRANCH  11  20
HETATM   20  C16 UNL     1      22.667   1.895  50.954  1.00  0.00     0.322 C 
BRANCH  20  21
HETATM   21  O2  UNL     1      21.815   2.488  51.924  1.00  0.00    -0.324 OA
BRANCH  21  22
HETATM   22  C17 UNL     1      20.640   3.053  51.411  1.00  0.00     0.256 C 
HETATM   23  N3  UNL     1      19.564   2.885  52.098  1.00  0.00    -0.210 NA
BRANCH  23  24
HETATM   24  C18 UNL     1      18.292   3.366  51.764  1.00  0.00     0.378 C 
HETATM   25  O3  UNL     1      17.248   4.023  52.047  1.00  0.00    -0.281 OA
ENDBRANCH  23  24
ENDBRANCH  21  22
ENDBRANCH  20  21
ENDBRANCH  11  20
TORSDOF 6
ENDMDL
MODEL 9
REMARK VINA RESULT:      -7.1      3.114      6.503
REMARK  6 active torsions:
REMARK  status: ('A' for Active; 'I' for Inactive)
REMARK    1  A    between atoms: C9_9  and  C10_10 
REMARK    2  A    between atoms: C15_15  and  O1_16 
REMARK    3  A    between atoms: N2_18  and  C16_19 
REMARK    4  A    between atoms: C16_19  and  O2_20 
REMARK    5  A    between atoms: O2_20  and  C17_21 
REMARK    6  A    between atoms: N3_22  and  C18_23 
ROOT
HETATM    1  C1  UNL     1      24.420  -0.699  53.988  1.00  0.00     0.048 C 
HETATM    2  C2  UNL     1      23.744   0.341  53.136  1.00  0.00    -0.063 A 
HETATM    3  C3  UNL     1      24.087   1.343  52.338  1.00  0.00     0.016 A 
HETATM    4  C4  UNL     1      22.879   2.003  51.777  1.00  0.00     0.089 A 
HETATM    5  C5  UNL     1      21.792   1.213  52.387  1.00  0.00     0.010 A 
HETATM    6  C6  UNL     1      22.290   0.251  53.173  1.00  0.00     0.005 A 
HETATM    7  C7  UNL     1      22.895   3.435  52.249  1.00  0.00     0.047 C 
HETATM    8  C8  UNL     1      24.211   4.033  51.780  1.00  0.00     0.065 C 
HETATM    9  C9  UNL     1      24.414   3.806  50.324  1.00  0.00     0.067 C 
HETATM   10  N1  UNL     1      23.760   2.865  49.700  1.00  0.00    -0.178 NA
HETATM   11  N2  UNL     1      22.843   2.024  50.343  1.00  0.00    -0.264 N 
ENDROOT
BRANCH   9  12
HETATM   12  C10 UNL     1      25.367   4.663  49.605  1.00  0.00     0.023 A 
HETATM   13  C11 UNL     1      25.027   5.936  49.195  1.00  0.00     0.016 A 
HETATM   14  C12 UNL     1      25.907   6.770  48.513  1.00  0.00     0.001 A 
HETATM   15  C13 UNL     1      27.190   6.299  48.229  1.00  0.00     0.003 A 
HETATM   16  C14 UNL     1      27.513   5.024  48.646  1.00  0.00     0.037 A 
HETATM   17  C15 UNL     1      26.635   4.190  49.328  1.00  0.00     0.077 A 
BRANCH  17  18
HETATM   18  O1  UNL     1      27.024   2.915  49.721  1.00  0.00    -0.360 OA
HETATM   19  H15 UNL     1      26.570   2.056  49.452  1.00  0.00     0.217 HD
ENDBRANCH  17  18
ENDBRANCH   9  12
BRANCH  11  20
HETATM   20  C16 UNL     1      21.940   1.250  49.502  1.00  0.00     0.322 C 
BRANCH  20  21
HETATM   21  O2  UNL     1      20.979   2.069  48.850  1.00  0.00    -0.324 OA
BRANCH  21  22
HETATM   22  C17 UNL     1      19.767   2.218  49.537  1.00  0.00     0.256 C 
HETATM   23  N3  UNL     1      19.603   3.308  50.201  1.00  0.00    -0.210 NA
BRANCH  23  24
HETATM   24  C18 UNL     1      18.472   3.652  50.952  1.00  0.00     0.378 C 
HETATM   25  O3  UNL     1      17.847   3.701  52.050  1.00  0.00    -0.281 OA
ENDBRANCH  23  24
ENDBRANCH  21  22
ENDBRANCH  20  21
ENDBRANCH  11  20
TORSDOF 6
ENDMDL
