MODEL 1
REMARK VINA RESULT:      -8.1      0.000      0.000
REMARK  8 active torsions:
REMARK  status: ('A' for Active; 'I' for Inactive)
REMARK    1  A    between atoms: N1_2  and  C2_3 
REMARK    2  A    between atoms: C2_3  and  C9_12 
REMARK    3  A    between atoms: C3_4  and  C5_6 
REMARK    4  A    between atoms: C5_6  and  C6_7 
REMARK    5  A    between atoms: C6_7  and  C7_8 
REMARK    6  A    between atoms: C7_8  and  C8_9 
REMARK    7  A    between atoms: C8_9  and  O2_11 
REMARK    8  A    between atoms: C13_17  and  C14_18 
ROOT
HETATM    1  C9  UNL     1      24.051   2.088  53.210  1.00  0.00     0.088 C 
HETATM    2  C10 UNL     1      23.760   3.381  52.516  1.00  0.00     0.135 C 
HETATM    3  N2  UNL     1      22.979   2.945  51.369  1.00  0.00    -0.388 N 
HETATM    4  C11 UNL     1      22.108   1.935  51.907  1.00  0.00     0.035 A 
HETATM    5  C12 UNL     1      20.854   1.514  51.445  1.00  0.00     0.042 A 
HETATM    6  C13 UNL     1      20.192   0.512  52.139  1.00  0.00    -0.024 A 
HETATM    7  C20 UNL     1      20.794  -0.042  53.268  1.00  0.00     0.013 A 
HETATM    8  C21 UNL     1      22.038   0.407  53.690  1.00  0.00     0.011 A 
HETATM    9  C22 UNL     1      22.723   1.388  53.040  1.00  0.00    -0.020 A 
HETATM   10  H18 UNL     1      23.051   3.299  50.386  1.00  0.00     0.159 HD
ENDROOT
BRANCH   1  11
HETATM   11  C2  UNL     1      25.093   1.269  52.538  1.00  0.00     0.017 C 
HETATM   12  C3  UNL     1      25.614   0.195  53.052  1.00  0.00    -0.061 C 
HETATM   13  C4  UNL     1      25.292  -0.421  54.367  1.00  0.00     0.045 C 
BRANCH  11  14
HETATM   14  N1  UNL     1      25.473   1.791  51.254  1.00  0.00    -0.397 N 
HETATM   15  C1  UNL     1      26.655   2.620  51.184  1.00  0.00     0.146 C 
HETATM   16  H4  UNL     1      24.940   1.599  50.379  1.00  0.00     0.158 HD
ENDBRANCH  11  14
BRANCH  12  17
HETATM   17  C5  UNL     1      26.662  -0.526  52.247  1.00  0.00     0.036 C 
BRANCH  17  18
HETATM   18  C6  UNL     1      27.586  -1.317  53.117  1.00  0.00     0.015 C 
BRANCH  18  19
HETATM   19  C7  UNL     1      28.965  -0.699  53.169  1.00  0.00     0.110 C 
BRANCH  19  20
HETATM   20  C8  UNL     1      28.971   0.624  53.839  1.00  0.00     0.139 C 
HETATM   21  O1  UNL     1      28.581   0.625  55.044  1.00  0.00    -0.650 OA
BRANCH  20  22
HETATM   22  O2  UNL     1      29.362   1.813  53.250  1.00  0.00    -0.776 OA
HETATM   23  H14 UNL     1      29.736   1.847  52.306  1.00  0.00     0.167 HD
ENDBRANCH  20  22
ENDBRANCH  19  20
ENDBRANCH  18  19
ENDBRANCH  17  18
ENDBRANCH  12  17
ENDBRANCH   1  11
BRANCH   6  24
HETATM   24  C14 UNL     1      18.890   0.101  51.611  1.00  0.00    -0.026 A 
HETATM   25  C15 UNL     1      18.094  -0.684  52.439  1.00  0.00     0.012 A 
HETATM   26  C16 UNL     1      16.840  -1.131  52.047  1.00  0.00     0.001 A 
HETATM   27  C17 UNL     1      16.343  -0.800  50.799  1.00  0.00     0.000 A 
HETATM   28  C18 UNL     1      17.129  -0.023  49.977  1.00  0.00     0.001 A 
HETATM   29  C19 UNL     1      18.374   0.426  50.358  1.00  0.00     0.012 A 
ENDBRANCH   6  24
TORSDOF 8
ENDMDL
MODEL 2
REMARK VINA RESULT:      -8.0      4.067      7.721
REMARK  8 active torsions:
REMARK  status: ('A' for Active; 'I' for Inactive)
REMARK    1  A    between atoms: N1_2  and  C2_3 
REMARK    2  A    between atoms: C2_3  and  C9_12 
REMARK    3  A    between atoms: C3_4  and  C5_6 
REMARK    4  A    between atoms: C5_6  and  C6_7 
REMARK    5  A    between atoms: C6_7  and  C7_8 
REMARK    6  A    between atoms: C7_8  and  C8_9 
REMARK    7  A    between atoms: C8_9  and  O2_11 
REMARK    8  A    between atoms: C13_17  and  C14_18 
ROOT
HETATM    1  C9  UNL     1      23.373   3.648  52.288  1.00  0.00     0.088 C 
HETATM    2  C10 UNL     1      22.472   2.634  51.654  1.00  0.00     0.135 C 
HETATM    3  N2  UNL     1      23.418   1.776  50.959  1.00  0.00    -0.388 N 
HETATM    4  C11 UNL     1      24.506   1.634  51.889  1.00  0.00     0.035 A 
HETATM    5  C12 UNL     1      25.438   0.594  52.006  1.00  0.00     0.042 A 
HETATM    6  C13 UNL     1      26.408   0.679  52.994  1.00  0.00    -0.024 A 
HETATM    7  C20 UNL     1      26.425   1.791  53.834  1.00  0.00     0.013 A 
HETATM    8  C21 UNL     1      25.482   2.798  53.681  1.00  0.00     0.011 A 
HETATM    9  C22 UNL     1      24.512   2.757  52.726  1.00  0.00    -0.020 A 
HETATM   10  H18 UNL     1      23.312   1.365  50.001  1.00  0.00     0.159 HD
ENDROOT
BRANCH   1  11
HETATM   11  C2  UNL     1      23.913   4.650  51.332  1.00  0.00     0.017 C 
HETATM   12  C3  UNL     1      23.239   5.673  50.898  1.00  0.00    -0.061 C 
HETATM   13  C4  UNL     1      21.844   6.047  51.251  1.00  0.00     0.045 C 
BRANCH  11  14
HETATM   14  N1  UNL     1      25.263   4.369  50.929  1.00  0.00    -0.397 N 
HETATM   15  C1  UNL     1      25.507   4.080  49.534  1.00  0.00     0.146 C 
HETATM   16  H4  UNL     1      26.068   4.364  51.593  1.00  0.00     0.158 HD
ENDBRANCH  11  14
BRANCH  12  17
HETATM   17  C5  UNL     1      23.925   6.599  49.931  1.00  0.00     0.036 C 
BRANCH  17  18
HETATM   18  C6  UNL     1      24.707   7.662  50.638  1.00  0.00     0.015 C 
BRANCH  18  19
HETATM   19  C7  UNL     1      26.095   7.811  50.056  1.00  0.00     0.110 C 
BRANCH  19  20
HETATM   20  C8  UNL     1      26.663   9.162  50.278  1.00  0.00     0.139 C 
HETATM   21  O1  UNL     1      26.210  10.073  49.523  1.00  0.00    -0.650 OA
BRANCH  20  22
HETATM   22  O2  UNL     1      27.623   9.477  51.223  1.00  0.00    -0.776 OA
HETATM   23  H14 UNL     1      27.389   9.960  52.085  1.00  0.00     0.167 HD
ENDBRANCH  20  22
ENDBRANCH  19  20
ENDBRANCH  18  19
ENDBRANCH  17  18
ENDBRANCH  12  17
ENDBRANCH   1  11
BRANCH   6  24
HETATM   24  C14 UNL     1      27.362  -0.429  53.070  1.00  0.00    -0.026 A 
HETATM   25  C15 UNL     1      28.646  -0.125  53.510  1.00  0.00     0.012 A 
HETATM   26  C16 UNL     1      29.634  -1.092  53.624  1.00  0.00     0.001 A 
HETATM   27  C17 UNL     1      29.360  -2.408  53.295  1.00  0.00     0.000 A 
HETATM   28  C18 UNL     1      28.089  -2.712  52.857  1.00  0.00     0.001 A 
HETATM   29  C19 UNL     1      27.102  -1.758  52.742  1.00  0.00     0.012 A 
ENDBRANCH   6  24
TORSDOF 8
ENDMDL
MODEL 3
REMARK VINA RESULT:      -8.0      1.055      1.910
REMARK  8 active torsions:
REMARK  status: ('A' for Active; 'I' for Inactive)
REMARK    1  A    between atoms: N1_2  and  C2_3 
REMARK    2  A    between atoms: C2_3  and  C9_12 
REMARK    3  A    between atoms: C3_4  and  C5_6 
REMARK    4  A    between atoms: C5_6  and  C6_7 
REMARK    5  A    between atoms: C6_7  and  C7_8 
REMARK    6  A    between atoms: C7_8  and  C8_9 
REMARK    7  A    between atoms: C8_9  and  O2_11 
REMARK    8  A    between atoms: C13_17  and  C14_18 
ROOT
HETATM    1  C9  UNL     1      23.820   1.579  53.004  1.00  0.00     0.088 C 
HETATM    2  C10 UNL     1      23.705   2.397  51.755  1.00  0.00     0.135 C 
HETATM    3  N2  UNL     1      22.902   1.539  50.899  1.00  0.00    -0.388 N 
HETATM    4  C11 UNL     1      21.902   1.005  51.784  1.00  0.00     0.035 A 
HETATM    5  C12 UNL     1      20.616   0.537  51.482  1.00  0.00     0.042 A 
HETATM    6  C13 UNL     1      19.821   0.063  52.516  1.00  0.00    -0.024 A 
HETATM    7  C20 UNL     1      20.326   0.069  53.816  1.00  0.00     0.013 A 
HETATM    8  C21 UNL     1      21.606   0.543  54.068  1.00  0.00     0.011 A 
HETATM    9  C22 UNL     1      22.420   1.016  53.085  1.00  0.00    -0.020 A 
HETATM   10  H18 UNL     1      23.037   1.365  49.875  1.00  0.00     0.159 HD
ENDROOT
BRANCH   1  11
HETATM   11  C2  UNL     1      24.768   0.440  52.887  1.00  0.00     0.017 C 
HETATM   12  C3  UNL     1      25.901   0.504  52.252  1.00  0.00    -0.061 C 
HETATM   13  C4  UNL     1      26.468   1.678  51.539  1.00  0.00     0.045 C 
BRANCH  11  14
HETATM   14  N1  UNL     1      24.302  -0.747  53.548  1.00  0.00    -0.397 N 
HETATM   15  C1  UNL     1      24.623  -0.912  54.948  1.00  0.00     0.146 C 
HETATM   16  H4  UNL     1      23.748  -1.488  53.068  1.00  0.00     0.158 HD
ENDBRANCH  11  14
BRANCH  12  17
HETATM   17  C5  UNL     1      26.753  -0.737  52.224  1.00  0.00     0.036 C 
BRANCH  17  18
HETATM   18  C6  UNL     1      27.649  -0.824  53.419  1.00  0.00     0.015 C 
BRANCH  18  19
HETATM   19  C7  UNL     1      28.961  -0.110  53.182  1.00  0.00     0.110 C 
BRANCH  19  20
HETATM   20  C8  UNL     1      29.059   1.164  53.934  1.00  0.00     0.139 C 
HETATM   21  O1  UNL     1      28.805   1.087  55.173  1.00  0.00    -0.650 OA
BRANCH  20  22
HETATM   22  O2  UNL     1      29.398   2.388  53.385  1.00  0.00    -0.776 OA
HETATM   23  H14 UNL     1      29.229   3.261  53.875  1.00  0.00     0.167 HD
ENDBRANCH  20  22
ENDBRANCH  19  20
ENDBRANCH  18  19
ENDBRANCH  17  18
ENDBRANCH  12  17
ENDBRANCH   1  11
BRANCH   6  24
HETATM   24  C14 UNL     1      18.490  -0.422  52.148  1.00  0.00    -0.026 A 
HETATM   25  C15 UNL     1      17.978   0.008  50.929  1.00  0.00     0.012 A 
HETATM   26  C16 UNL     1      16.728  -0.388  50.474  1.00  0.00     0.001 A 
HETATM   27  C17 UNL     1      15.946  -1.235  51.239  1.00  0.00     0.000 A 
HETATM   28  C18 UNL     1      16.451  -1.662  52.448  1.00  0.00     0.001 A 
HETATM   29  C19 UNL     1      17.691  -1.276  52.907  1.00  0.00     0.012 A 
ENDBRANCH   6  24
TORSDOF 8
ENDMDL
MODEL 4
REMARK VINA RESULT:      -7.8      4.141      6.620
REMARK  8 active torsions:
REMARK  status: ('A' for Active; 'I' for Inactive)
REMARK    1  A    between atoms: N1_2  and  C2_3 
REMARK    2  A    between atoms: C2_3  and  C9_12 
REMARK    3  A    between atoms: C3_4  and  C5_6 
REMARK    4  A    between atoms: C5_6  and  C6_7 
REMARK    5  A    between atoms: C6_7  and  C7_8 
REMARK    6  A    between atoms: C7_8  and  C8_9 
REMARK    7  A    between atoms: C8_9  and  O2_11 
REMARK    8  A    between atoms: C13_17  and  C14_18 
ROOT
HETATM    1  C9  UNL     1      25.503   3.920  49.159  1.00  0.00     0.088 C 
HETATM    2  C10 UNL     1      26.791   3.399  49.718  1.00  0.00     0.135 C 
HETATM    3  N2  UNL     1      26.474   3.249  51.129  1.00  0.00    -0.388 N 
HETATM    4  C11 UNL     1      25.144   2.702  51.130  1.00  0.00     0.035 A 
HETATM    5  C12 UNL     1      24.513   1.917  52.104  1.00  0.00     0.042 A 
HETATM    6  C13 UNL     1      23.209   1.500  51.880  1.00  0.00    -0.024 A 
HETATM    7  C20 UNL     1      22.572   1.873  50.697  1.00  0.00     0.013 A 
HETATM    8  C21 UNL     1      23.236   2.652  49.760  1.00  0.00     0.011 A 
HETATM    9  C22 UNL     1      24.515   3.084  49.938  1.00  0.00    -0.020 A 
HETATM   10  H18 UNL     1      27.088   3.490  51.943  1.00  0.00     0.159 HD
ENDROOT
BRANCH   1  11
HETATM   11  C2  UNL     1      25.249   5.350  49.477  1.00  0.00     0.017 C 
HETATM   12  C3  UNL     1      26.062   6.316  49.170  1.00  0.00    -0.061 C 
HETATM   13  C4  UNL     1      27.365   6.205  48.463  1.00  0.00     0.045 C 
BRANCH  11  14
HETATM   14  N1  UNL     1      24.005   5.557  50.168  1.00  0.00    -0.397 N 
HETATM   15  C1  UNL     1      22.916   6.159  49.432  1.00  0.00     0.146 C 
HETATM   16  H4  UNL     1      23.856   5.296  51.166  1.00  0.00     0.158 HD
ENDBRANCH  11  14
BRANCH  12  17
HETATM   17  C5  UNL     1      25.662   7.713  49.561  1.00  0.00     0.036 C 
BRANCH  17  18
HETATM   18  C6  UNL     1      25.929   8.696  48.464  1.00  0.00     0.015 C 
BRANCH  18  19
HETATM   19  C7  UNL     1      26.644   9.925  48.981  1.00  0.00     0.110 C 
BRANCH  19  20
HETATM   20  C8  UNL     1      27.775   9.590  49.878  1.00  0.00     0.139 C 
HETATM   21  O1  UNL     1      28.861   9.293  49.297  1.00  0.00    -0.650 OA
BRANCH  20  22
HETATM   22  O2  UNL     1      27.721   9.581  51.260  1.00  0.00    -0.776 OA
HETATM   23  H14 UNL     1      28.015  10.381  51.814  1.00  0.00     0.167 HD
ENDBRANCH  20  22
ENDBRANCH  19  20
ENDBRANCH  18  19
ENDBRANCH  17  18
ENDBRANCH  12  17
ENDBRANCH   1  11
BRANCH   6  24
HETATM   24  C14 UNL     1      22.592   0.689  52.930  1.00  0.00    -0.026 A 
HETATM   25  C15 UNL     1      23.396  -0.264  53.545  1.00  0.00     0.012 A 
HETATM   26  C16 UNL     1      22.921  -1.089  54.555  1.00  0.00     0.001 A 
HETATM   27  C17 UNL     1      21.610  -0.981  54.981  1.00  0.00     0.000 A 
HETATM   28  C18 UNL     1      20.810  -0.038  54.374  1.00  0.00     0.001 A 
HETATM   29  C19 UNL     1      21.273   0.786  53.372  1.00  0.00     0.012 A 
ENDBRANCH   6  24
TORSDOF 8
ENDMDL
MODEL 5
REMARK VINA RESULT:      -7.8      3.674      6.282
REMARK  8 active torsions:
REMARK  status: ('A' for Active; 'I' for Inactive)
REMARK    1  A    between atoms: N1_2  and  C2_3 
REMARK    2  A    between atoms: C2_3  and  C9_12 
REMARK    3  A    between atoms: C3_4  and  C5_6 
REMARK    4  A    between atoms: C5_6  and  C6_7 
REMARK    5  A    between atoms: C6_7  and  C7_8 
REMARK    6  A    between atoms: C7_8  and  C8_9 
REMARK    7  A    between atoms: C8_9  and  O2_11 
REMARK    8  A    between atoms: C13_17  and  C14_18 
ROOT
HETATM    1  C9  UNL     1      25.354   4.143  49.026  1.00  0.00     0.088 C 
HETATM    2  C10 UNL     1      26.697   3.819  49.600  1.00  0.00     0.135 C 
HETATM    3  N2  UNL     1      26.396   3.658  51.014  1.00  0.00    -0.388 N 
HETATM    4  C11 UNL     1      25.155   2.932  51.024  1.00  0.00     0.035 A 
HETATM    5  C12 UNL     1      24.633   2.090  52.014  1.00  0.00     0.042 A 
HETATM    6  C13 UNL     1      23.401   1.491  51.796  1.00  0.00    -0.024 A 
HETATM    7  C20 UNL     1      22.725   1.745  50.604  1.00  0.00     0.013 A 
HETATM    8  C21 UNL     1      23.281   2.586  49.650  1.00  0.00     0.011 A 
HETATM    9  C22 UNL     1      24.486   3.196  49.821  1.00  0.00    -0.020 A 
HETATM   10  H18 UNL     1      26.966   4.001  51.823  1.00  0.00     0.159 HD
ENDROOT
BRANCH   1  11
HETATM   11  C2  UNL     1      24.901   5.530  49.309  1.00  0.00     0.017 C 
HETATM   12  C3  UNL     1      23.813   6.050  48.825  1.00  0.00    -0.061 C 
HETATM   13  C4  UNL     1      22.827   5.396  47.924  1.00  0.00     0.045 C 
BRANCH  11  14
HETATM   14  N1  UNL     1      25.797   6.246  50.175  1.00  0.00    -0.397 N 
HETATM   15  C1  UNL     1      26.586   7.312  49.600  1.00  0.00     0.146 C 
HETATM   16  H4  UNL     1      25.903   6.033  51.190  1.00  0.00     0.158 HD
ENDBRANCH  11  14
BRANCH  12  17
HETATM   17  C5  UNL     1      23.490   7.470  49.205  1.00  0.00     0.036 C 
BRANCH  17  18
HETATM   18  C6  UNL     1      22.923   7.561  50.587  1.00  0.00     0.015 C 
BRANCH  18  19
HETATM   19  C7  UNL     1      22.066   6.359  50.915  1.00  0.00     0.110 C 
BRANCH  19  20
HETATM   20  C8  UNL     1      22.621   5.551  52.027  1.00  0.00     0.139 C 
HETATM   21  O1  UNL     1      21.877   4.613  52.442  1.00  0.00    -0.650 OA
BRANCH  20  22
HETATM   22  O2  UNL     1      23.855   5.751  52.618  1.00  0.00    -0.776 OA
HETATM   23  H14 UNL     1      24.712   5.392  52.206  1.00  0.00     0.167 HD
ENDBRANCH  20  22
ENDBRANCH  19  20
ENDBRANCH  18  19
ENDBRANCH  17  18
ENDBRANCH  12  17
ENDBRANCH   1  11
BRANCH   6  24
HETATM   24  C14 UNL     1      22.895   0.627  52.864  1.00  0.00    -0.026 A 
HETATM   25  C15 UNL     1      21.550   0.754  53.193  1.00  0.00     0.012 A 
HETATM   26  C16 UNL     1      20.959  -0.013  54.188  1.00  0.00     0.001 A 
HETATM   27  C17 UNL     1      21.710  -0.939  54.889  1.00  0.00     0.000 A 
HETATM   28  C18 UNL     1      23.043  -1.067  54.567  1.00  0.00     0.001 A 
HETATM   29  C19 UNL     1      23.638  -0.311  53.580  1.00  0.00     0.012 A 
ENDBRANCH   6  24
TORSDOF 8
ENDMDL
MODEL 6
REMARK VINA RESULT:      -7.7      2.707      7.212
REMARK  8 active torsions:
REMARK  status: ('A' for Active; 'I' for Inactive)
REMARK    1  A    between atoms: N1_2  and  C2_3 
REMARK    2  A    between atoms: C2_3  and  C9_12 
REMARK    3  A    between atoms: C3_4  and  C5_6 
REMARK    4  A    between atoms: C5_6  and  C6_7 
REMARK    5  A    between atoms: C6_7  and  C7_8 
REMARK    6  A    between atoms: C7_8  and  C8_9 
REMARK    7  A    between atoms: C8_9  and  O2_11 
REMARK    8  A    between atoms: C13_17  and  C14_18 
ROOT
HETATM    1  C9  UNL     1      22.390   2.320  52.730  1.00  0.00     0.088 C 
HETATM    2  C10 UNL     1      21.716   1.000  52.939  1.00  0.00     0.135 C 
HETATM    3  N2  UNL     1      22.640   0.080  52.295  1.00  0.00    -0.388 N 
HETATM    4  C11 UNL     1      23.937   0.559  52.688  1.00  0.00     0.035 A 
HETATM    5  C12 UNL     1      25.143  -0.146  52.797  1.00  0.00     0.042 A 
HETATM    6  C13 UNL     1      26.280   0.539  53.201  1.00  0.00    -0.024 A 
HETATM    7  C20 UNL     1      26.186   1.901  53.484  1.00  0.00     0.013 A 
HETATM    8  C21 UNL     1      24.970   2.559  53.362  1.00  0.00     0.011 A 
HETATM    9  C22 UNL     1      23.829   1.928  52.969  1.00  0.00    -0.020 A 
HETATM   10  H18 UNL     1      22.395  -0.739  51.690  1.00  0.00     0.159 HD
ENDROOT
BRANCH   1  11
HETATM   11  C2  UNL     1      22.278   2.837  51.341  1.00  0.00     0.017 C 
HETATM   12  C3  UNL     1      22.557   4.059  50.998  1.00  0.00    -0.061 C 
HETATM   13  C4  UNL     1      23.032   5.156  51.882  1.00  0.00     0.045 C 
BRANCH  11  14
HETATM   14  N1  UNL     1      21.822   1.842  50.409  1.00  0.00    -0.397 N 
HETATM   15  C1  UNL     1      20.437   1.886  49.997  1.00  0.00     0.146 C 
HETATM   16  H4  UNL     1      22.439   1.097  50.021  1.00  0.00     0.158 HD
ENDBRANCH  11  14
BRANCH  12  17
HETATM   17  C5  UNL     1      22.393   4.430  49.548  1.00  0.00     0.036 C 
BRANCH  17  18
HETATM   18  C6  UNL     1      23.708   4.723  48.896  1.00  0.00     0.015 C 
BRANCH  18  19
HETATM   19  C7  UNL     1      24.766   3.725  49.309  1.00  0.00     0.110 C 
BRANCH  19  20
HETATM   20  C8  UNL     1      26.016   4.377  49.767  1.00  0.00     0.139 C 
HETATM   21  O1  UNL     1      26.039   5.640  49.667  1.00  0.00    -0.650 OA
BRANCH  20  22
HETATM   22  O2  UNL     1      27.119   3.717  50.278  1.00  0.00    -0.776 OA
HETATM   23  H14 UNL     1      27.334   3.720  51.271  1.00  0.00     0.167 HD
ENDBRANCH  20  22
ENDBRANCH  19  20
ENDBRANCH  18  19
ENDBRANCH  17  18
ENDBRANCH  12  17
ENDBRANCH   1  11
BRANCH   6  24
HETATM   24  C14 UNL     1      27.515  -0.240  53.292  1.00  0.00    -0.026 A 
HETATM   25  C15 UNL     1      27.438  -1.586  52.949  1.00  0.00     0.012 A 
HETATM   26  C16 UNL     1      28.544  -2.423  52.995  1.00  0.00     0.001 A 
HETATM   27  C17 UNL     1      29.773  -1.928  53.391  1.00  0.00     0.000 A 
HETATM   28  C18 UNL     1      29.854  -0.596  53.732  1.00  0.00     0.001 A 
HETATM   29  C19 UNL     1      28.761   0.243  53.688  1.00  0.00     0.012 A 
ENDBRANCH   6  24
TORSDOF 8
ENDMDL
MODEL 7
REMARK VINA RESULT:      -7.5      3.409      5.483
REMARK  8 active torsions:
REMARK  status: ('A' for Active; 'I' for Inactive)
REMARK    1  A    between atoms: N1_2  and  C2_3 
REMARK    2  A    between atoms: C2_3  and  C9_12 
REMARK    3  A    between atoms: C3_4  and  C5_6 
REMARK    4  A    between atoms: C5_6  and  C6_7 
REMARK    5  A    between atoms: C6_7  and  C7_8 
REMARK    6  A    between atoms: C7_8  and  C8_9 
REMARK    7  A    between atoms: C8_9  and  O2_11 
REMARK    8  A    between atoms: C13_17  and  C14_18 
ROOT
HETATM    1  C9  UNL     1      24.283   4.890  49.657  1.00  0.00     0.088 C 
HETATM    2  C10 UNL     1      23.314   4.507  48.583  1.00  0.00     0.135 C 
HETATM    3  N2  UNL     1      23.217   3.066  48.757  1.00  0.00    -0.388 N 
HETATM    4  C11 UNL     1      23.176   2.891  50.183  1.00  0.00     0.035 A 
HETATM    5  C12 UNL     1      22.619   1.844  50.929  1.00  0.00     0.042 A 
HETATM    6  C13 UNL     1      22.702   1.895  52.312  1.00  0.00    -0.024 A 
HETATM    7  C20 UNL     1      23.334   2.982  52.914  1.00  0.00     0.013 A 
HETATM    8  C21 UNL     1      23.872   3.997  52.136  1.00  0.00     0.011 A 
HETATM    9  C22 UNL     1      23.814   3.989  50.775  1.00  0.00    -0.020 A 
HETATM   10  H18 UNL     1      23.184   2.341  48.002  1.00  0.00     0.159 HD
ENDROOT
BRANCH   1  11
HETATM   11  C2  UNL     1      25.693   4.538  49.343  1.00  0.00     0.017 C 
HETATM   12  C3  UNL     1      26.555   5.375  48.846  1.00  0.00    -0.061 C 
HETATM   13  C4  UNL     1      26.326   6.804  48.502  1.00  0.00     0.045 C 
BRANCH  11  14
HETATM   14  N1  UNL     1      26.009   3.168  49.642  1.00  0.00    -0.397 N 
HETATM   15  C1  UNL     1      26.792   2.898  50.826  1.00  0.00     0.146 C 
HETATM   16  H4  UNL     1      25.701   2.369  49.048  1.00  0.00     0.158 HD
ENDBRANCH  11  14
BRANCH  12  17
HETATM   17  C5  UNL     1      27.947   4.867  48.583  1.00  0.00     0.036 C 
BRANCH  17  18
HETATM   18  C6  UNL     1      28.881   5.974  48.208  1.00  0.00     0.015 C 
BRANCH  18  19
HETATM   19  C7  UNL     1      30.311   5.488  48.120  1.00  0.00     0.110 C 
BRANCH  19  20
HETATM   20  C8  UNL     1      31.166   6.037  49.199  1.00  0.00     0.139 C 
HETATM   21  O1  UNL     1      31.794   7.099  48.909  1.00  0.00    -0.650 OA
BRANCH  20  22
HETATM   22  O2  UNL     1      31.315   5.483  50.458  1.00  0.00    -0.776 OA
HETATM   23  H14 UNL     1      32.067   4.835  50.673  1.00  0.00     0.167 HD
ENDBRANCH  20  22
ENDBRANCH  19  20
ENDBRANCH  18  19
ENDBRANCH  17  18
ENDBRANCH  12  17
ENDBRANCH   1  11
BRANCH   6  24
HETATM   24  C14 UNL     1      22.112   0.773  53.044  1.00  0.00    -0.026 A 
HETATM   25  C15 UNL     1      22.934  -0.322  53.289  1.00  0.00     0.012 A 
HETATM   26  C16 UNL     1      22.486  -1.442  53.975  1.00  0.00     0.001 A 
HETATM   27  C17 UNL     1      21.184  -1.497  54.439  1.00  0.00     0.000 A 
HETATM   28  C18 UNL     1      20.366  -0.415  54.198  1.00  0.00     0.001 A 
HETATM   29  C19 UNL     1      20.803   0.702  53.519  1.00  0.00     0.012 A 
ENDBRANCH   6  24
TORSDOF 8
ENDMDL
MODEL 8
REMARK VINA RESULT:      -7.5      2.789      3.671
REMARK  8 active torsions:
REMARK  status: ('A' for Active; 'I' for Inactive)
REMARK    1  A    between atoms: N1_2  and  C2_3 
REMARK    2  A    between atoms: C2_3  and  C9_12 
REMARK    3  A    between atoms: C3_4  and  C5_6 
REMARK    4  A    between atoms: C5_6  and  C6_7 
REMARK    5  A    between atoms: C6_7  and  C7_8 
REMARK    6  A    between atoms: C7_8  and  C8_9 
REMARK    7  A    between atoms: C8_9  and  O2_11 
REMARK    8  A    between atoms: C13_17  and  C14_18 
ROOT
HETATM    1  C9  UNL     1      24.040   2.256  52.784  1.00  0.00     0.088 C 
HETATM    2  C10 UNL     1      24.055   3.733  53.023  1.00  0.00     0.135 C 
HETATM    3  N2  UNL     1      24.213   4.261  51.678  1.00  0.00    -0.388 N 
HETATM    4  C11 UNL     1      23.350   3.434  50.877  1.00  0.00     0.035 A 
HETATM    5  C12 UNL     1      22.719   3.733  49.663  1.00  0.00     0.042 A 
HETATM    6  C13 UNL     1      21.923   2.764  49.071  1.00  0.00    -0.024 A 
HETATM    7  C20 UNL     1      21.777   1.529  49.701  1.00  0.00     0.013 A 
HETATM    8  C21 UNL     1      22.421   1.277  50.905  1.00  0.00     0.011 A 
HETATM    9  C22 UNL     1      23.212   2.198  51.521  1.00  0.00    -0.020 A 
HETATM   10  H18 UNL     1      24.821   5.061  51.381  1.00  0.00     0.159 HD
ENDROOT
BRANCH   1  11
HETATM   11  C2  UNL     1      25.379   1.685  52.483  1.00  0.00     0.017 C 
HETATM   12  C3  UNL     1      25.675   0.426  52.612  1.00  0.00    -0.061 C 
HETATM   13  C4  UNL     1      24.775  -0.668  53.065  1.00  0.00     0.045 C 
BRANCH  11  14
HETATM   14  N1  UNL     1      26.322   2.673  52.037  1.00  0.00    -0.397 N 
HETATM   15  C1  UNL     1      26.742   2.632  50.655  1.00  0.00     0.146 C 
HETATM   16  H4  UNL     1      26.714   3.412  52.661  1.00  0.00     0.158 HD
ENDBRANCH  11  14
BRANCH  12  17
HETATM   17  C5  UNL     1      27.077   0.001  52.268  1.00  0.00     0.036 C 
BRANCH  17  18
HETATM   18  C6  UNL     1      27.818  -0.499  53.468  1.00  0.00     0.015 C 
BRANCH  18  19
HETATM   19  C7  UNL     1      29.210   0.087  53.545  1.00  0.00     0.110 C 
BRANCH  19  20
HETATM   20  C8  UNL     1      29.209   1.498  54.001  1.00  0.00     0.139 C 
HETATM   21  O1  UNL     1      29.171   1.664  55.256  1.00  0.00    -0.650 OA
BRANCH  20  22
HETATM   22  O2  UNL     1      29.247   2.603  53.170  1.00  0.00    -0.776 OA
HETATM   23  H14 UNL     1      29.349   2.514  52.163  1.00  0.00     0.167 HD
ENDBRANCH  20  22
ENDBRANCH  19  20
ENDBRANCH  18  19
ENDBRANCH  17  18
ENDBRANCH  12  17
ENDBRANCH   1  11
BRANCH   6  24
HETATM   24  C14 UNL     1      21.292   3.123  47.800  1.00  0.00    -0.026 A 
HETATM   25  C15 UNL     1      19.904   3.063  47.746  1.00  0.00     0.012 A 
HETATM   26  C16 UNL     1      19.196   3.381  46.595  1.00  0.00     0.001 A 
HETATM   27  C17 UNL     1      19.869   3.772  45.452  1.00  0.00     0.000 A 
HETATM   28  C18 UNL     1      21.245   3.832  45.501  1.00  0.00     0.001 A 
HETATM   29  C19 UNL     1      21.955   3.519  46.640  1.00  0.00     0.012 A 
ENDBRANCH   6  24
TORSDOF 8
ENDMDL
MODEL 9
REMARK VINA RESULT:      -7.4      3.546      8.247
REMARK  8 active torsions:
REMARK  status: ('A' for Active; 'I' for Inactive)
REMARK    1  A    between atoms: N1_2  and  C2_3 
REMARK    2  A    between atoms: C2_3  and  C9_12 
REMARK    3  A    between atoms: C3_4  and  C5_6 
REMARK    4  A    between atoms: C5_6  and  C6_7 
REMARK    5  A    between atoms: C6_7  and  C7_8 
REMARK    6  A    between atoms: C7_8  and  C8_9 
REMARK    7  A    between atoms: C8_9  and  O2_11 
REMARK    8  A    between atoms: C13_17  and  C14_18 
ROOT
HETATM    1  C9  UNL     1      21.612   0.967  53.309  1.00  0.00     0.088 C 
HETATM    2  C10 UNL     1      21.339  -0.357  53.952  1.00  0.00     0.135 C 
HETATM    3  N2  UNL     1      22.363  -1.202  53.360  1.00  0.00    -0.388 N 
HETATM    4  C11 UNL     1      23.537  -0.371  53.351  1.00  0.00     0.035 A 
HETATM    5  C12 UNL     1      24.886  -0.749  53.366  1.00  0.00     0.042 A 
HETATM    6  C13 UNL     1      25.855   0.244  53.354  1.00  0.00    -0.024 A 
HETATM    7  C20 UNL     1      25.456   1.580  53.328  1.00  0.00     0.013 A 
HETATM    8  C21 UNL     1      24.107   1.908  53.315  1.00  0.00     0.011 A 
HETATM    9  C22 UNL     1      23.123   0.967  53.325  1.00  0.00    -0.020 A 
HETATM   10  H18 UNL     1      22.251  -2.189  53.025  1.00  0.00     0.159 HD
ENDROOT
BRANCH   1  11
HETATM   11  C2  UNL     1      21.167   1.047  51.892  1.00  0.00     0.017 C 
HETATM   12  C3  UNL     1      20.015   0.617  51.471  1.00  0.00    -0.061 C 
HETATM   13  C4  UNL     1      18.940  -0.016  52.279  1.00  0.00     0.045 C 
BRANCH  11  14
HETATM   14  N1  UNL     1      22.147   1.646  51.030  1.00  0.00    -0.397 N 
HETATM   15  C1  UNL     1      22.013   3.054  50.729  1.00  0.00     0.146 C 
HETATM   16  H4  UNL     1      22.943   1.117  50.615  1.00  0.00     0.158 HD
ENDBRANCH  11  14
BRANCH  12  17
HETATM   17  C5  UNL     1      19.710   0.769  50.004  1.00  0.00     0.036 C 
BRANCH  17  18
HETATM   18  C6  UNL     1      18.422   1.495  49.776  1.00  0.00     0.015 C 
BRANCH  18  19
HETATM   19  C7  UNL     1      18.660   2.931  49.363  1.00  0.00     0.110 C 
BRANCH  19  20
HETATM   20  C8  UNL     1      18.466   3.884  50.482  1.00  0.00     0.139 C 
HETATM   21  O1  UNL     1      18.408   5.106  50.152  1.00  0.00    -0.650 OA
BRANCH  20  22
HETATM   22  O2  UNL     1      18.350   3.534  51.815  1.00  0.00    -0.776 OA
HETATM   23  H14 UNL     1      17.448   3.494  52.283  1.00  0.00     0.167 HD
ENDBRANCH  20  22
ENDBRANCH  19  20
ENDBRANCH  18  19
ENDBRANCH  17  18
ENDBRANCH  12  17
ENDBRANCH   1  11
BRANCH   6  24
HETATM   24  C14 UNL     1      27.249  -0.202  53.362  1.00  0.00    -0.026 A 
HETATM   25  C15 UNL     1      28.207   0.733  53.739  1.00  0.00     0.012 A 
HETATM   26  C16 UNL     1      29.559   0.424  53.785  1.00  0.00     0.001 A 
HETATM   27  C17 UNL     1      29.994  -0.845  53.450  1.00  0.00     0.000 A 
HETATM   28  C18 UNL     1      29.048  -1.774  53.075  1.00  0.00     0.001 A 
HETATM   29  C19 UNL     1      27.703  -1.477  53.028  1.00  0.00     0.012 A 
ENDBRANCH   6  24
TORSDOF 8
ENDMDL
