MODEL 1
REMARK VINA RESULT:      -7.7      0.000      0.000
REMARK  5 active torsions:
REMARK  status: ('A' for Active; 'I' for Inactive)
REMARK    1  A    between atoms: O1_2  and  C2_3 
REMARK    2  A    between atoms: C2_3  and  C3_5 
REMARK    3  A    between atoms: C5_7  and  C6_8 
REMARK    4  A    between atoms: C9_13  and  N3_14 
REMARK    5  A    between atoms: N3_14  and  C10_15 
ROOT
HETATM    1  C6  UNL     1      27.101   1.312  52.860  1.00  0.00     0.028 A 
HETATM    2  C7  UNL     1      28.179   2.064  53.263  1.00  0.00     0.133 A 
HETATM    3  N1  UNL     1      28.915   1.669  54.334  1.00  0.00    -0.253 NA
HETATM    4  C8  UNL     1      28.509   0.520  54.940  1.00  0.00     0.234 A 
HETATM    5  N2  UNL     1      27.466  -0.223  54.562  1.00  0.00    -0.224 NA
HETATM    6  C9  UNL     1      26.728   0.149  53.508  1.00  0.00     0.141 A 
ENDROOT
BRANCH   6   7
HETATM    7  N3  UNL     1      25.619  -0.579  53.056  1.00  0.00    -0.340 N 
HETATM    8  H11 UNL     1      25.761  -1.183  52.191  1.00  0.00     0.167 HD
BRANCH   7   9
HETATM    9  C10 UNL     1      24.314  -0.639  53.574  1.00  0.00     0.034 A 
HETATM   10  C11 UNL     1      23.945  -1.130  54.805  1.00  0.00     0.029 A 
HETATM   11  C12 UNL     1      22.680  -1.199  55.324  1.00  0.00     0.003 A 
HETATM   12  C13 UNL     1      21.647  -0.729  54.541  1.00  0.00     0.007 A 
HETATM   13  C14 UNL     1      21.926  -0.220  53.294  1.00  0.00    -0.060 A 
HETATM   14  C15 UNL     1      20.822   0.290  52.441  1.00  0.00     0.048 C 
HETATM   15  C16 UNL     1      23.228  -0.188  52.851  1.00  0.00     0.036 A 
ENDBRANCH   7   9
ENDBRANCH   6   7
BRANCH   1  16
HETATM   16  C5  UNL     1      26.408   1.851  51.717  1.00  0.00     0.024 C 
HETATM   17  C3  UNL     1      25.301   2.555  51.590  1.00  0.00    -0.024 C 
HETATM   18  C4  UNL     1      24.824   2.982  50.254  1.00  0.00     0.049 C 
BRANCH  17  19
HETATM   19  C2  UNL     1      24.281   3.107  52.514  1.00  0.00     0.336 C 
HETATM   20  F1  UNL     1      24.763   3.220  53.815  1.00  0.00    -0.215 F 
BRANCH  19  21
HETATM   21  O1  UNL     1      23.950   4.435  52.147  1.00  0.00    -0.358 OA
HETATM   22  C1  UNL     1      22.645   4.712  52.504  1.00  0.00     0.205 C 
ENDBRANCH  19  21
ENDBRANCH  17  19
ENDBRANCH   1  16
TORSDOF 5
ENDMDL
MODEL 2
REMARK VINA RESULT:      -7.4      1.948      5.038
REMARK  5 active torsions:
REMARK  status: ('A' for Active; 'I' for Inactive)
REMARK    1  A    between atoms: O1_2  and  C2_3 
REMARK    2  A    between atoms: C2_3  and  C3_5 
REMARK    3  A    between atoms: C5_7  and  C6_8 
REMARK    4  A    between atoms: C9_13  and  N3_14 
REMARK    5  A    between atoms: N3_14  and  C10_15 
ROOT
HETATM    1  C6  UNL     1      22.551  -0.500  53.140  1.00  0.00     0.028 A 
HETATM    2  C7  UNL     1      21.570  -1.080  53.907  1.00  0.00     0.133 A 
HETATM    3  N1  UNL     1      21.874  -1.565  55.139  1.00  0.00    -0.253 NA
HETATM    4  C8  UNL     1      23.172  -1.429  55.524  1.00  0.00     0.234 A 
HETATM    5  N2  UNL     1      24.138  -0.867  54.793  1.00  0.00    -0.224 NA
HETATM    6  C9  UNL     1      23.858  -0.384  53.575  1.00  0.00     0.141 A 
ENDROOT
BRANCH   6   7
HETATM    7  N3  UNL     1      24.820   0.216  52.752  1.00  0.00    -0.340 N 
HETATM    8  H11 UNL     1      24.520   0.457  51.759  1.00  0.00     0.167 HD
BRANCH   7   9
HETATM    9  C10 UNL     1      26.155   0.555  53.032  1.00  0.00     0.034 A 
HETATM   10  C11 UNL     1      26.644   1.819  53.268  1.00  0.00     0.029 A 
HETATM   11  C12 UNL     1      27.940   2.168  53.539  1.00  0.00     0.003 A 
HETATM   12  C13 UNL     1      28.873   1.155  53.585  1.00  0.00     0.007 A 
HETATM   13  C14 UNL     1      28.471  -0.141  53.359  1.00  0.00    -0.060 A 
HETATM   14  C15 UNL     1      29.467  -1.242  53.406  1.00  0.00     0.048 C 
HETATM   15  C16 UNL     1      27.147  -0.403  53.094  1.00  0.00     0.036 A 
ENDBRANCH   7   9
ENDBRANCH   6   7
BRANCH   1  16
HETATM   16  C5  UNL     1      22.090  -0.037  51.855  1.00  0.00     0.024 C 
HETATM   17  C3  UNL     1      21.786   1.158  51.389  1.00  0.00    -0.024 C 
HETATM   18  C4  UNL     1      21.333   1.332  49.988  1.00  0.00     0.049 C 
BRANCH  17  19
HETATM   19  C2  UNL     1      21.768   2.538  51.932  1.00  0.00     0.336 C 
HETATM   20  F1  UNL     1      20.842   2.680  52.962  1.00  0.00    -0.215 F 
BRANCH  19  21
HETATM   21  O1  UNL     1      23.013   2.846  52.536  1.00  0.00    -0.358 OA
HETATM   22  C1  UNL     1      23.782   3.600  51.672  1.00  0.00     0.205 C 
ENDBRANCH  19  21
ENDBRANCH  17  19
ENDBRANCH   1  16
TORSDOF 5
ENDMDL
MODEL 3
REMARK VINA RESULT:      -7.4      2.542      5.476
REMARK  5 active torsions:
REMARK  status: ('A' for Active; 'I' for Inactive)
REMARK    1  A    between atoms: O1_2  and  C2_3 
REMARK    2  A    between atoms: C2_3  and  C3_5 
REMARK    3  A    between atoms: C5_7  and  C6_8 
REMARK    4  A    between atoms: C9_13  and  N3_14 
REMARK    5  A    between atoms: N3_14  and  C10_15 
ROOT
HETATM    1  C6  UNL     1      25.776   1.616  52.410  1.00  0.00     0.028 A 
HETATM    2  C7  UNL     1      25.939   1.288  53.734  1.00  0.00     0.133 A 
HETATM    3  N1  UNL     1      27.116   1.559  54.357  1.00  0.00    -0.253 NA
HETATM    4  C8  UNL     1      28.068   2.155  53.589  1.00  0.00     0.234 A 
HETATM    5  N2  UNL     1      27.927   2.482  52.302  1.00  0.00    -0.224 NA
HETATM    6  C9  UNL     1      26.775   2.222  51.670  1.00  0.00     0.141 A 
ENDROOT
BRANCH   6   7
HETATM    7  N3  UNL     1      26.556   2.534  50.322  1.00  0.00    -0.340 N 
HETATM    8  H11 UNL     1      26.579   1.725  49.631  1.00  0.00     0.167 HD
BRANCH   7   9
HETATM    9  C10 UNL     1      26.308   3.779  49.718  1.00  0.00     0.034 A 
HETATM   10  C11 UNL     1      25.086   4.400  49.598  1.00  0.00     0.029 A 
HETATM   11  C12 UNL     1      24.826   5.609  49.011  1.00  0.00     0.003 A 
HETATM   12  C13 UNL     1      25.894   6.297  48.476  1.00  0.00     0.007 A 
HETATM   13  C14 UNL     1      27.153   5.749  48.551  1.00  0.00    -0.060 A 
HETATM   14  C15 UNL     1      28.312   6.481  47.978  1.00  0.00     0.048 C 
HETATM   15  C16 UNL     1      27.325   4.527  49.160  1.00  0.00     0.036 A 
ENDBRANCH   7   9
ENDBRANCH   6   7
BRANCH   1  16
HETATM   16  C5  UNL     1      24.484   1.266  51.876  1.00  0.00     0.024 C 
HETATM   17  C3  UNL     1      23.322   1.889  51.859  1.00  0.00    -0.024 C 
HETATM   18  C4  UNL     1      22.140   1.268  51.216  1.00  0.00     0.049 C 
BRANCH  17  19
HETATM   19  C2  UNL     1      22.805   3.187  52.355  1.00  0.00     0.336 C 
HETATM   20  F1  UNL     1      23.833   4.075  52.660  1.00  0.00    -0.215 F 
BRANCH  19  21
HETATM   21  O1  UNL     1      22.065   3.844  51.340  1.00  0.00    -0.358 OA
HETATM   22  C1  UNL     1      21.946   5.187  51.637  1.00  0.00     0.205 C 
ENDBRANCH  19  21
ENDBRANCH  17  19
ENDBRANCH   1  16
TORSDOF 5
ENDMDL
MODEL 4
REMARK VINA RESULT:      -7.4      1.725      4.858
REMARK  5 active torsions:
REMARK  status: ('A' for Active; 'I' for Inactive)
REMARK    1  A    between atoms: O1_2  and  C2_3 
REMARK    2  A    between atoms: C2_3  and  C3_5 
REMARK    3  A    between atoms: C5_7  and  C6_8 
REMARK    4  A    between atoms: C9_13  and  N3_14 
REMARK    5  A    between atoms: N3_14  and  C10_15 
ROOT
HETATM    1  C6  UNL     1      23.184  -0.133  53.294  1.00  0.00     0.028 A 
HETATM    2  C7  UNL     1      22.074  -0.323  54.081  1.00  0.00     0.133 A 
HETATM    3  N1  UNL     1      22.200  -0.933  55.289  1.00  0.00    -0.253 NA
HETATM    4  C8  UNL     1      23.460  -1.318  55.630  1.00  0.00     0.234 A 
HETATM    5  N2  UNL     1      24.549  -1.140  54.878  1.00  0.00    -0.224 NA
HETATM    6  C9  UNL     1      24.446  -0.541  53.684  1.00  0.00     0.141 A 
ENDROOT
BRANCH   6   7
HETATM    7  N3  UNL     1      25.544  -0.324  52.841  1.00  0.00    -0.340 N 
HETATM    8  H11 UNL     1      25.331  -0.120  51.818  1.00  0.00     0.167 HD
BRANCH   7   9
HETATM    9  C10 UNL     1      26.918  -0.335  53.137  1.00  0.00     0.034 A 
HETATM   10  C11 UNL     1      27.780  -1.394  52.969  1.00  0.00     0.029 A 
HETATM   11  C12 UNL     1      29.119  -1.425  53.255  1.00  0.00     0.003 A 
HETATM   12  C13 UNL     1      29.685  -0.277  53.768  1.00  0.00     0.007 A 
HETATM   13  C14 UNL     1      28.894   0.831  53.968  1.00  0.00    -0.060 A 
HETATM   14  C15 UNL     1      29.492   2.074  54.520  1.00  0.00     0.048 C 
HETATM   15  C16 UNL     1      27.556   0.774  53.653  1.00  0.00     0.036 A 
ENDBRANCH   7   9
ENDBRANCH   6   7
BRANCH   1  16
HETATM   16  C5  UNL     1      22.905   0.519  52.039  1.00  0.00     0.024 C 
HETATM   17  C3  UNL     1      23.275   1.676  51.528  1.00  0.00    -0.024 C 
HETATM   18  C4  UNL     1      22.823   2.086  50.177  1.00  0.00     0.049 C 
BRANCH  17  19
HETATM   19  C2  UNL     1      24.115   2.814  51.972  1.00  0.00     0.336 C 
HETATM   20  F1  UNL     1      24.028   3.021  53.346  1.00  0.00    -0.215 F 
BRANCH  19  21
HETATM   21  O1  UNL     1      25.486   2.532  51.748  1.00  0.00    -0.358 OA
HETATM   22  C1  UNL     1      25.965   3.311  50.714  1.00  0.00     0.205 C 
ENDBRANCH  19  21
ENDBRANCH  17  19
ENDBRANCH   1  16
TORSDOF 5
ENDMDL
MODEL 5
REMARK VINA RESULT:      -7.3      3.345      5.305
REMARK  5 active torsions:
REMARK  status: ('A' for Active; 'I' for Inactive)
REMARK    1  A    between atoms: O1_2  and  C2_3 
REMARK    2  A    between atoms: C2_3  and  C3_5 
REMARK    3  A    between atoms: C5_7  and  C6_8 
REMARK    4  A    between atoms: C9_13  and  N3_14 
REMARK    5  A    between atoms: N3_14  and  C10_15 
ROOT
HETATM    1  C6  UNL     1      25.594   3.427  49.963  1.00  0.00     0.028 A 
HETATM    2  C7  UNL     1      24.463   3.464  49.184  1.00  0.00     0.133 A 
HETATM    3  N1  UNL     1      23.296   2.960  49.665  1.00  0.00    -0.253 NA
HETATM    4  C8  UNL     1      23.348   2.442  50.922  1.00  0.00     0.234 A 
HETATM    5  N2  UNL     1      24.439   2.399  51.693  1.00  0.00    -0.224 NA
HETATM    6  C9  UNL     1      25.598   2.891  51.237  1.00  0.00     0.141 A 
ENDROOT
BRANCH   6   7
HETATM    7  N3  UNL     1      26.781   2.877  51.987  1.00  0.00    -0.340 N 
HETATM    8  H11 UNL     1      27.296   3.803  52.090  1.00  0.00     0.167 HD
BRANCH   7   9
HETATM    9  C10 UNL     1      27.417   1.807  52.640  1.00  0.00     0.034 A 
HETATM   10  C11 UNL     1      28.421   1.901  53.576  1.00  0.00     0.029 A 
HETATM   11  C12 UNL     1      29.053   0.871  54.219  1.00  0.00     0.003 A 
HETATM   12  C13 UNL     1      28.655  -0.411  53.907  1.00  0.00     0.007 A 
HETATM   13  C14 UNL     1      27.656  -0.598  52.980  1.00  0.00    -0.060 A 
HETATM   14  C15 UNL     1      27.217  -1.975  52.635  1.00  0.00     0.048 C 
HETATM   15  C16 UNL     1      27.073   0.495  52.381  1.00  0.00     0.036 A 
ENDBRANCH   7   9
ENDBRANCH   6   7
BRANCH   1  16
HETATM   16  C5  UNL     1      26.759   3.989  49.326  1.00  0.00     0.024 C 
HETATM   17  C3  UNL     1      27.045   5.199  48.888  1.00  0.00    -0.024 C 
HETATM   18  C4  UNL     1      28.360   5.488  48.267  1.00  0.00     0.049 C 
BRANCH  17  19
HETATM   19  C2  UNL     1      26.345   6.504  48.838  1.00  0.00     0.336 C 
HETATM   20  F1  UNL     1      25.181   6.443  48.076  1.00  0.00    -0.215 F 
BRANCH  19  21
HETATM   21  O1  UNL     1      25.896   6.874  50.131  1.00  0.00    -0.358 OA
HETATM   22  C1  UNL     1      24.528   7.061  50.121  1.00  0.00     0.205 C 
ENDBRANCH  19  21
ENDBRANCH  17  19
ENDBRANCH   1  16
TORSDOF 5
ENDMDL
MODEL 6
REMARK VINA RESULT:      -7.2      2.637      4.164
REMARK  5 active torsions:
REMARK  status: ('A' for Active; 'I' for Inactive)
REMARK    1  A    between atoms: O1_2  and  C2_3 
REMARK    2  A    between atoms: C2_3  and  C3_5 
REMARK    3  A    between atoms: C5_7  and  C6_8 
REMARK    4  A    between atoms: C9_13  and  N3_14 
REMARK    5  A    between atoms: N3_14  and  C10_15 
ROOT
HETATM    1  C6  UNL     1      25.391   2.068  51.160  1.00  0.00     0.028 A 
HETATM    2  C7  UNL     1      26.219   3.139  50.923  1.00  0.00     0.133 A 
HETATM    3  N1  UNL     1      25.692   4.316  50.495  1.00  0.00    -0.253 NA
HETATM    4  C8  UNL     1      24.342   4.337  50.331  1.00  0.00     0.234 A 
HETATM    5  N2  UNL     1      23.523   3.306  50.558  1.00  0.00    -0.224 NA
HETATM    6  C9  UNL     1      24.022   2.137  50.979  1.00  0.00     0.141 A 
ENDROOT
BRANCH   6   7
HETATM    7  N3  UNL     1      23.225   1.013  51.235  1.00  0.00    -0.340 N 
HETATM    8  H11 UNL     1      23.101   0.321  50.436  1.00  0.00     0.167 HD
BRANCH   7   9
HETATM    9  C10 UNL     1      22.541   0.647  52.406  1.00  0.00     0.034 A 
HETATM   10  C11 UNL     1      21.266   1.025  52.760  1.00  0.00     0.029 A 
HETATM   11  C12 UNL     1      20.586   0.680  53.898  1.00  0.00     0.003 A 
HETATM   12  C13 UNL     1      21.233  -0.135  54.801  1.00  0.00     0.007 A 
HETATM   13  C14 UNL     1      22.512  -0.561  54.527  1.00  0.00    -0.060 A 
HETATM   14  C15 UNL     1      23.220  -1.441  55.492  1.00  0.00     0.048 C 
HETATM   15  C16 UNL     1      23.122  -0.167  53.358  1.00  0.00     0.036 A 
ENDBRANCH   7   9
ENDBRANCH   6   7
BRANCH   1  16
HETATM   16  C5  UNL     1      26.083   0.883  51.602  1.00  0.00     0.024 C 
HETATM   17  C3  UNL     1      26.633   0.542  52.750  1.00  0.00    -0.024 C 
HETATM   18  C4  UNL     1      27.284  -0.779  52.915  1.00  0.00     0.049 C 
BRANCH  17  19
HETATM   19  C2  UNL     1      26.801   1.179  54.078  1.00  0.00     0.336 C 
HETATM   20  F1  UNL     1      26.315   0.375  55.106  1.00  0.00    -0.215 F 
BRANCH  19  21
HETATM   21  O1  UNL     1      28.177   1.337  54.379  1.00  0.00    -0.358 OA
HETATM   22  C1  UNL     1      28.674   2.455  53.739  1.00  0.00     0.205 C 
ENDBRANCH  19  21
ENDBRANCH  17  19
ENDBRANCH   1  16
TORSDOF 5
ENDMDL
MODEL 7
REMARK VINA RESULT:      -7.2      2.749      5.773
REMARK  5 active torsions:
REMARK  status: ('A' for Active; 'I' for Inactive)
REMARK    1  A    between atoms: O1_2  and  C2_3 
REMARK    2  A    between atoms: C2_3  and  C3_5 
REMARK    3  A    between atoms: C5_7  and  C6_8 
REMARK    4  A    between atoms: C9_13  and  N3_14 
REMARK    5  A    between atoms: N3_14  and  C10_15 
ROOT
HETATM    1  C6  UNL     1      25.681   1.965  52.862  1.00  0.00     0.028 A 
HETATM    2  C7  UNL     1      26.036   1.688  54.161  1.00  0.00     0.133 A 
HETATM    3  N1  UNL     1      27.350   1.600  54.496  1.00  0.00    -0.253 NA
HETATM    4  C8  UNL     1      28.235   1.802  53.483  1.00  0.00     0.234 A 
HETATM    5  N2  UNL     1      27.907   2.073  52.217  1.00  0.00    -0.224 NA
HETATM    6  C9  UNL     1      26.618   2.163  51.866  1.00  0.00     0.141 A 
ENDROOT
BRANCH   6   7
HETATM    7  N3  UNL     1      26.200   2.442  50.557  1.00  0.00    -0.340 N 
HETATM    8  H11 UNL     1      25.962   1.607  49.941  1.00  0.00     0.167 HD
BRANCH   7   9
HETATM    9  C10 UNL     1      26.045   3.679  49.910  1.00  0.00     0.034 A 
HETATM   10  C11 UNL     1      24.872   4.382  49.762  1.00  0.00     0.029 A 
HETATM   11  C12 UNL     1      24.701   5.586  49.133  1.00  0.00     0.003 A 
HETATM   12  C13 UNL     1      25.817   6.176  48.579  1.00  0.00     0.007 A 
HETATM   13  C14 UNL     1      27.034   5.541  48.680  1.00  0.00    -0.060 A 
HETATM   14  C15 UNL     1      28.244   6.167  48.088  1.00  0.00     0.048 C 
HETATM   15  C16 UNL     1      27.115   4.332  49.331  1.00  0.00     0.036 A 
ENDBRANCH   7   9
ENDBRANCH   6   7
BRANCH   1  16
HETATM   16  C5  UNL     1      24.257   2.021  52.647  1.00  0.00     0.024 C 
HETATM   17  C3  UNL     1      23.299   1.120  52.746  1.00  0.00    -0.024 C 
HETATM   18  C4  UNL     1      21.890   1.479  52.459  1.00  0.00     0.049 C 
BRANCH  17  19
HETATM   19  C2  UNL     1      23.224  -0.315  53.108  1.00  0.00     0.336 C 
HETATM   20  F1  UNL     1      24.456  -0.950  52.980  1.00  0.00    -0.215 F 
BRANCH  19  21
HETATM   21  O1  UNL     1      22.895  -0.462  54.479  1.00  0.00    -0.358 OA
HETATM   22  C1  UNL     1      22.004  -1.504  54.641  1.00  0.00     0.205 C 
ENDBRANCH  19  21
ENDBRANCH  17  19
ENDBRANCH   1  16
TORSDOF 5
ENDMDL
MODEL 8
REMARK VINA RESULT:      -6.9      2.927      4.579
REMARK  5 active torsions:
REMARK  status: ('A' for Active; 'I' for Inactive)
REMARK    1  A    between atoms: O1_2  and  C2_3 
REMARK    2  A    between atoms: C2_3  and  C3_5 
REMARK    3  A    between atoms: C5_7  and  C6_8 
REMARK    4  A    between atoms: C9_13  and  N3_14 
REMARK    5  A    between atoms: N3_14  and  C10_15 
ROOT
HETATM    1  C6  UNL     1      25.690   2.475  52.043  1.00  0.00     0.028 A 
HETATM    2  C7  UNL     1      26.798   2.595  51.240  1.00  0.00     0.133 A 
HETATM    3  N1  UNL     1      26.684   3.172  50.015  1.00  0.00    -0.253 NA
HETATM    4  C8  UNL     1      25.437   3.598  49.675  1.00  0.00     0.234 A 
HETATM    5  N2  UNL     1      24.350   3.490  50.444  1.00  0.00    -0.224 NA
HETATM    6  C9  UNL     1      24.442   2.924  51.654  1.00  0.00     0.141 A 
ENDROOT
BRANCH   6   7
HETATM    7  N3  UNL     1      23.345   2.775  52.513  1.00  0.00    -0.340 N 
HETATM    8  H11 UNL     1      23.215   3.522  53.260  1.00  0.00     0.167 HD
BRANCH   7   9
HETATM    9  C10 UNL     1      22.365   1.769  52.549  1.00  0.00     0.034 A 
HETATM   10  C11 UNL     1      21.236   1.699  51.765  1.00  0.00     0.029 A 
HETATM   11  C12 UNL     1      20.270   0.730  51.789  1.00  0.00     0.003 A 
HETATM   12  C13 UNL     1      20.427  -0.300  52.691  1.00  0.00     0.007 A 
HETATM   13  C14 UNL     1      21.528  -0.310  53.516  1.00  0.00    -0.060 A 
HETATM   14  C15 UNL     1      21.709  -1.415  54.492  1.00  0.00     0.048 C 
HETATM   15  C16 UNL     1      22.451   0.706  53.425  1.00  0.00     0.036 A 
ENDBRANCH   7   9
ENDBRANCH   6   7
BRANCH   1  16
HETATM   16  C5  UNL     1      25.954   1.838  53.310  1.00  0.00     0.024 C 
HETATM   17  C3  UNL     1      26.166   0.584  53.655  1.00  0.00    -0.024 C 
HETATM   18  C4  UNL     1      26.421   0.221  55.069  1.00  0.00     0.049 C 
BRANCH  17  19
HETATM   19  C2  UNL     1      26.231  -0.717  52.947  1.00  0.00     0.336 C 
HETATM   20  F1  UNL     1      26.634  -0.569  51.623  1.00  0.00    -0.215 F 
BRANCH  19  21
HETATM   21  O1  UNL     1      27.227  -1.544  53.525  1.00  0.00    -0.358 OA
HETATM   22  C1  UNL     1      27.565  -2.557  52.651  1.00  0.00     0.205 C 
ENDBRANCH  19  21
ENDBRANCH  17  19
ENDBRANCH   1  16
TORSDOF 5
ENDMDL
MODEL 9
REMARK VINA RESULT:      -6.8      3.156      6.588
REMARK  5 active torsions:
REMARK  status: ('A' for Active; 'I' for Inactive)
REMARK    1  A    between atoms: O1_2  and  C2_3 
REMARK    2  A    between atoms: C2_3  and  C3_5 
REMARK    3  A    between atoms: C5_7  and  C6_8 
REMARK    4  A    between atoms: C9_13  and  N3_14 
REMARK    5  A    between atoms: N3_14  and  C10_15 
ROOT
HETATM    1  C6  UNL     1      23.688   1.051  52.364  1.00  0.00     0.028 A 
HETATM    2  C7  UNL     1      22.465   0.447  52.533  1.00  0.00     0.133 A 
HETATM    3  N1  UNL     1      21.513   0.572  51.571  1.00  0.00    -0.253 NA
HETATM    4  C8  UNL     1      21.863   1.309  50.483  1.00  0.00     0.234 A 
HETATM    5  N2  UNL     1      23.047   1.901  50.302  1.00  0.00    -0.224 NA
HETATM    6  C9  UNL     1      23.998   1.791  51.238  1.00  0.00     0.141 A 
ENDROOT
BRANCH   6   7
HETATM    7  N3  UNL     1      25.261   2.386  51.118  1.00  0.00    -0.340 N 
HETATM    8  H11 UNL     1      26.062   1.924  51.645  1.00  0.00     0.167 HD
BRANCH   7   9
HETATM    9  C10 UNL     1      25.649   3.529  50.397  1.00  0.00     0.034 A 
HETATM   10  C11 UNL     1      26.722   3.630  49.543  1.00  0.00     0.029 A 
HETATM   11  C12 UNL     1      27.116   4.734  48.836  1.00  0.00     0.003 A 
HETATM   12  C13 UNL     1      26.367   5.882  48.982  1.00  0.00     0.007 A 
HETATM   13  C14 UNL     1      25.275   5.870  49.818  1.00  0.00    -0.060 A 
HETATM   14  C15 UNL     1      24.459   7.101  49.984  1.00  0.00     0.048 C 
HETATM   15  C16 UNL     1      24.949   4.715  50.491  1.00  0.00     0.036 A 
ENDBRANCH   7   9
ENDBRANCH   6   7
BRANCH   1  16
HETATM   16  C5  UNL     1      24.598   0.843  53.463  1.00  0.00     0.024 C 
HETATM   17  C3  UNL     1      25.611   0.019  53.644  1.00  0.00    -0.024 C 
HETATM   18  C4  UNL     1      26.385   0.038  54.908  1.00  0.00     0.049 C 
BRANCH  17  19
HETATM   19  C2  UNL     1      26.273  -1.042  52.849  1.00  0.00     0.336 C 
HETATM   20  F1  UNL     1      26.672  -0.582  51.597  1.00  0.00    -0.215 F 
BRANCH  19  21
HETATM   21  O1  UNL     1      27.479  -1.447  53.473  1.00  0.00    -0.358 OA
HETATM   22  C1  UNL     1      27.990  -2.560  52.836  1.00  0.00     0.205 C 
ENDBRANCH  19  21
ENDBRANCH  17  19
ENDBRANCH   1  16
TORSDOF 5
ENDMDL
