MODEL 1
REMARK VINA RESULT:      -9.5      0.000      0.000
REMARK  2 active torsions:
REMARK  status: ('A' for Active; 'I' for Inactive)
REMARK    1  A    between atoms: C4_5  and  N1_6 
REMARK    2  A    between atoms: N1_6  and  C5_7 
ROOT
HETATM    1  C5  UNL     1      23.813  -0.228  53.683  1.00  0.00     0.160 A 
HETATM    2  N2  UNL     1      24.188  -0.802  54.829  1.00  0.00    -0.222 NA
HETATM    3  C6  UNL     1      23.359  -1.505  55.613  1.00  0.00     0.238 A 
HETATM    4  N3  UNL     1      22.067  -1.648  55.239  1.00  0.00    -0.215 NA
HETATM    5  C7  UNL     1      21.598  -1.103  54.100  1.00  0.00     0.202 A 
HETATM    6  C8  UNL     1      22.497  -0.391  53.333  1.00  0.00     0.129 A 
HETATM    7  N4  UNL     1      22.242   0.271  52.109  1.00  0.00    -0.379 N 
HETATM    8  C9  UNL     1      21.097   0.360  51.243  1.00  0.00     0.161 C 
HETATM    9  C10 UNL     1      19.832  -0.072  51.848  1.00  0.00    -0.005 A 
HETATM   10  C11 UNL     1      18.836   0.430  51.004  1.00  0.00     0.035 A 
HETATM   11  C12 UNL     1      17.488   0.220  51.256  1.00  0.00     0.034 A 
HETATM   12 CL1  UNL     1      16.226   0.835  50.217  1.00  0.00    -0.084 Cl
HETATM   13  C13 UNL     1      17.096  -0.505  52.370  1.00  0.00     0.026 A 
HETATM   14  C14 UNL     1      18.059  -1.011  53.220  1.00  0.00     0.039 A 
HETATM   15  C15 UNL     1      19.372  -0.783  52.935  1.00  0.00     0.086 A 
HETATM   16  O1  UNL     1      20.250  -1.343  53.862  1.00  0.00    -0.289 OA
HETATM   17  H5  UNL     1      22.995   0.829  51.692  1.00  0.00     0.160 HD
ENDROOT
BRANCH   1  18
HETATM   18  N1  UNL     1      24.794   0.479  52.962  1.00  0.00    -0.339 N 
HETATM   19  H3  UNL     1      24.820   1.218  52.233  1.00  0.00     0.167 HD
BRANCH  18  20
HETATM   20  C4  UNL     1      26.177   0.234  53.171  1.00  0.00     0.035 A 
HETATM   21  C3  UNL     1      26.696  -0.985  52.789  1.00  0.00     0.032 A 
HETATM   22  C2  UNL     1      28.040  -1.304  52.932  1.00  0.00     0.046 A 
HETATM   23  C1  UNL     1      28.925  -0.388  53.477  1.00  0.00     0.138 A 
HETATM   24  F1  UNL     1      30.239  -0.629  53.644  1.00  0.00    -0.204 F 
HETATM   25  C17 UNL     1      28.449   0.834  53.869  1.00  0.00     0.074 A 
HETATM   26  C16 UNL     1      27.114   1.107  53.710  1.00  0.00     0.056 A 
HETATM   27 CL2  UNL     1      29.476   2.073  54.572  1.00  0.00    -0.081 Cl
ENDBRANCH  18  20
ENDBRANCH   1  18
TORSDOF 2
ENDMDL
MODEL 2
REMARK VINA RESULT:      -9.3      2.879      4.282
REMARK  2 active torsions:
REMARK  status: ('A' for Active; 'I' for Inactive)
REMARK    1  A    between atoms: C4_5  and  N1_6 
REMARK    2  A    between atoms: N1_6  and  C5_7 
ROOT
HETATM    1  C5  UNL     1      26.144   2.698  51.737  1.00  0.00     0.160 A 
HETATM    2  N2  UNL     1      26.841   3.243  50.737  1.00  0.00    -0.222 NA
HETATM    3  C6  UNL     1      26.315   3.539  49.540  1.00  0.00     0.238 A 
HETATM    4  N3  UNL     1      25.008   3.276  49.316  1.00  0.00    -0.215 NA
HETATM    5  C7  UNL     1      24.226   2.726  50.266  1.00  0.00     0.202 A 
HETATM    6  C8  UNL     1      24.822   2.443  51.477  1.00  0.00     0.129 A 
HETATM    7  N4  UNL     1      24.213   1.865  52.617  1.00  0.00    -0.379 N 
HETATM    8  C9  UNL     1      22.865   1.487  52.942  1.00  0.00     0.161 C 
HETATM    9  C10 UNL     1      21.955   1.400  51.794  1.00  0.00    -0.005 A 
HETATM   10  C11 UNL     1      20.849   0.682  52.261  1.00  0.00     0.035 A 
HETATM   11  C12 UNL     1      19.763   0.397  51.446  1.00  0.00     0.034 A 
HETATM   12 CL1  UNL     1      18.371  -0.495  52.005  1.00  0.00    -0.084 Cl
HETATM   13  C13 UNL     1      19.754   0.827  50.128  1.00  0.00     0.026 A 
HETATM   14  C14 UNL     1      20.834   1.538  49.642  1.00  0.00     0.039 A 
HETATM   15  C15 UNL     1      21.879   1.797  50.477  1.00  0.00     0.086 A 
HETATM   16  O1  UNL     1      22.908   2.521  49.875  1.00  0.00    -0.289 OA
HETATM   17  H5  UNL     1      24.806   1.641  53.423  1.00  0.00     0.160 HD
ENDROOT
BRANCH   1  18
HETATM   18  N1  UNL     1      26.829   2.443  52.940  1.00  0.00    -0.339 N 
HETATM   19  H3  UNL     1      26.953   2.908  53.860  1.00  0.00     0.167 HD
BRANCH  18  20
HETATM   20  C4  UNL     1      27.612   1.269  53.104  1.00  0.00     0.035 A 
HETATM   21  C3  UNL     1      28.875   1.389  53.644  1.00  0.00     0.032 A 
HETATM   22  C2  UNL     1      29.702   0.294  53.863  1.00  0.00     0.046 A 
HETATM   23  C1  UNL     1      29.276  -0.982  53.539  1.00  0.00     0.138 A 
HETATM   24  F1  UNL     1      30.023  -2.088  53.726  1.00  0.00    -0.204 F 
HETATM   25  C17 UNL     1      28.027  -1.144  53.001  1.00  0.00     0.074 A 
HETATM   26  C16 UNL     1      27.245  -0.035  52.801  1.00  0.00     0.056 A 
HETATM   27 CL2  UNL     1      27.382  -2.714  52.552  1.00  0.00    -0.081 Cl
ENDBRANCH  18  20
ENDBRANCH   1  18
TORSDOF 2
ENDMDL
MODEL 3
REMARK VINA RESULT:      -9.0      4.849      5.860
REMARK  2 active torsions:
REMARK  status: ('A' for Active; 'I' for Inactive)
REMARK    1  A    between atoms: C4_5  and  N1_6 
REMARK    2  A    between atoms: N1_6  and  C5_7 
ROOT
HETATM    1  C5  UNL     1      25.956   2.570  50.856  1.00  0.00     0.160 A 
HETATM    2  N2  UNL     1      27.134   2.666  51.478  1.00  0.00    -0.222 NA
HETATM    3  C6  UNL     1      27.412   2.059  52.640  1.00  0.00     0.238 A 
HETATM    4  N3  UNL     1      26.457   1.304  53.230  1.00  0.00    -0.215 NA
HETATM    5  C7  UNL     1      25.238   1.150  52.676  1.00  0.00     0.202 A 
HETATM    6  C8  UNL     1      25.010   1.798  51.481  1.00  0.00     0.129 A 
HETATM    7  N4  UNL     1      23.818   1.791  50.716  1.00  0.00    -0.379 N 
HETATM    8  C9  UNL     1      22.563   1.099  50.834  1.00  0.00     0.161 C 
HETATM    9  C10 UNL     1      22.318   0.486  52.145  1.00  0.00    -0.005 A 
HETATM   10  C11 UNL     1      20.947   0.207  52.164  1.00  0.00     0.035 A 
HETATM   11  C12 UNL     1      20.336  -0.386  53.259  1.00  0.00     0.034 A 
HETATM   12 CL1  UNL     1      18.627  -0.745  53.307  1.00  0.00    -0.084 Cl
HETATM   13  C13 UNL     1      21.086  -0.721  54.375  1.00  0.00     0.026 A 
HETATM   14  C14 UNL     1      22.441  -0.456  54.381  1.00  0.00     0.039 A 
HETATM   15  C15 UNL     1      23.002   0.127  53.285  1.00  0.00     0.086 A 
HETATM   16  O1  UNL     1      24.374   0.343  53.408  1.00  0.00    -0.289 OA
HETATM   17  H5  UNL     1      23.771   2.388  49.885  1.00  0.00     0.160 HD
ENDROOT
BRANCH   1  18
HETATM   18  N1  UNL     1      25.807   3.263  49.640  1.00  0.00    -0.339 N 
HETATM   19  H3  UNL     1      25.607   3.028  48.648  1.00  0.00     0.167 HD
BRANCH  18  20
HETATM   20  C4  UNL     1      25.934   4.676  49.580  1.00  0.00     0.035 A 
HETATM   21  C3  UNL     1      26.967   5.215  48.843  1.00  0.00     0.032 A 
HETATM   22  C2  UNL     1      27.154   6.585  48.709  1.00  0.00     0.046 A 
HETATM   23  C1  UNL     1      26.291   7.475  49.324  1.00  0.00     0.138 A 
HETATM   24  F1  UNL     1      26.412   8.814  49.235  1.00  0.00    -0.204 F 
HETATM   25  C17 UNL     1      25.252   6.980  50.066  1.00  0.00     0.074 A 
HETATM   26  C16 UNL     1      25.105   5.620  50.172  1.00  0.00     0.056 A 
HETATM   27 CL2  UNL     1      24.096   8.013  50.890  1.00  0.00    -0.081 Cl
ENDBRANCH  18  20
ENDBRANCH   1  18
TORSDOF 2
ENDMDL
MODEL 4
REMARK VINA RESULT:      -9.0      1.561      2.573
REMARK  2 active torsions:
REMARK  status: ('A' for Active; 'I' for Inactive)
REMARK    1  A    between atoms: C4_5  and  N1_6 
REMARK    2  A    between atoms: N1_6  and  C5_7 
ROOT
HETATM    1  C5  UNL     1      23.944   0.774  52.761  1.00  0.00     0.160 A 
HETATM    2  N2  UNL     1      24.632   1.538  51.908  1.00  0.00    -0.222 NA
HETATM    3  C6  UNL     1      24.075   2.186  50.876  1.00  0.00     0.238 A 
HETATM    4  N3  UNL     1      22.743   2.069  50.670  1.00  0.00    -0.215 NA
HETATM    5  C7  UNL     1      21.969   1.318  51.478  1.00  0.00     0.202 A 
HETATM    6  C8  UNL     1      22.597   0.675  52.524  1.00  0.00     0.129 A 
HETATM    7  N4  UNL     1      22.001  -0.164  53.495  1.00  0.00    -0.379 N 
HETATM    8  C9  UNL     1      20.645  -0.544  53.787  1.00  0.00     0.161 C 
HETATM    9  C10 UNL     1      19.681  -0.255  52.719  1.00  0.00    -0.005 A 
HETATM   10  C11 UNL     1      18.549  -1.013  53.038  1.00  0.00     0.035 A 
HETATM   11  C12 UNL     1      17.411  -0.998  52.245  1.00  0.00     0.034 A 
HETATM   12 CL1  UNL     1      15.985  -1.933  52.622  1.00  0.00    -0.084 Cl
HETATM   13  C13 UNL     1      17.372  -0.215  51.101  1.00  0.00     0.026 A 
HETATM   14  C14 UNL     1      18.476   0.542  50.765  1.00  0.00     0.039 A 
HETATM   15  C15 UNL     1      19.574   0.498  51.571  1.00  0.00     0.086 A 
HETATM   16  O1  UNL     1      20.623   1.304  51.129  1.00  0.00    -0.289 OA
HETATM   17  H5  UNL     1      22.612  -0.638  54.168  1.00  0.00     0.160 HD
ENDROOT
BRANCH   1  18
HETATM   18  N1  UNL     1      24.663   0.154  53.800  1.00  0.00    -0.339 N 
HETATM   19  H3  UNL     1      24.453  -0.276  54.721  1.00  0.00     0.167 HD
BRANCH  18  20
HETATM   20  C4  UNL     1      26.072  -0.006  53.723  1.00  0.00     0.035 A 
HETATM   21  C3  UNL     1      26.575  -1.157  53.154  1.00  0.00     0.032 A 
HETATM   22  C2  UNL     1      27.937  -1.390  53.015  1.00  0.00     0.046 A 
HETATM   23  C1  UNL     1      28.857  -0.452  53.452  1.00  0.00     0.138 A 
HETATM   24  F1  UNL     1      30.191  -0.611  53.346  1.00  0.00    -0.204 F 
HETATM   25  C17 UNL     1      28.399   0.705  54.023  1.00  0.00     0.074 A 
HETATM   26  C16 UNL     1      27.045   0.893  54.142  1.00  0.00     0.056 A 
HETATM   27 CL2  UNL     1      29.472   1.962  54.613  1.00  0.00    -0.081 Cl
ENDBRANCH  18  20
ENDBRANCH   1  18
TORSDOF 2
ENDMDL
MODEL 5
REMARK VINA RESULT:      -8.8      5.156      7.701
REMARK  2 active torsions:
REMARK  status: ('A' for Active; 'I' for Inactive)
REMARK    1  A    between atoms: C4_5  and  N1_6 
REMARK    2  A    between atoms: N1_6  and  C5_7 
ROOT
HETATM    1  C5  UNL     1      23.857   2.719  51.683  1.00  0.00     0.160 A 
HETATM    2  N2  UNL     1      22.801   3.200  52.345  1.00  0.00    -0.222 NA
HETATM    3  C6  UNL     1      22.416   4.482  52.298  1.00  0.00     0.238 A 
HETATM    4  N3  UNL     1      23.125   5.352  51.542  1.00  0.00    -0.215 NA
HETATM    5  C7  UNL     1      24.205   4.958  50.840  1.00  0.00     0.202 A 
HETATM    6  C8  UNL     1      24.554   3.626  50.927  1.00  0.00     0.129 A 
HETATM    7  N4  UNL     1      25.642   2.982  50.290  1.00  0.00    -0.379 N 
HETATM    8  C9  UNL     1      26.629   3.406  49.334  1.00  0.00     0.161 C 
HETATM    9  C10 UNL     1      26.747   4.859  49.173  1.00  0.00    -0.005 A 
HETATM   10  C11 UNL     1      27.965   5.054  48.513  1.00  0.00     0.035 A 
HETATM   11  C12 UNL     1      28.425   6.320  48.182  1.00  0.00     0.034 A 
HETATM   12 CL1  UNL     1      29.941   6.588  47.358  1.00  0.00    -0.084 Cl
HETATM   13  C13 UNL     1      27.672   7.438  48.504  1.00  0.00     0.026 A 
HETATM   14  C14 UNL     1      26.465   7.273  49.155  1.00  0.00     0.039 A 
HETATM   15  C15 UNL     1      26.050   6.012  49.462  1.00  0.00     0.086 A 
HETATM   16  O1  UNL     1      24.819   5.973  50.116  1.00  0.00    -0.289 OA
HETATM   17  H5  UNL     1      25.823   1.999  50.515  1.00  0.00     0.160 HD
ENDROOT
BRANCH   1  18
HETATM   18  N1  UNL     1      24.142   1.348  51.828  1.00  0.00    -0.339 N 
HETATM   19  H3  UNL     1      23.743   0.448  51.500  1.00  0.00     0.167 HD
BRANCH  18  20
HETATM   20  C4  UNL     1      25.249   0.907  52.601  1.00  0.00     0.035 A 
HETATM   21  C3  UNL     1      25.638   1.663  53.686  1.00  0.00     0.032 A 
HETATM   22  C2  UNL     1      26.692   1.297  54.513  1.00  0.00     0.046 A 
HETATM   23  C1  UNL     1      27.404   0.135  54.270  1.00  0.00     0.138 A 
HETATM   24  F1  UNL     1      28.435  -0.282  55.030  1.00  0.00    -0.204 F 
HETATM   25  C17 UNL     1      27.049  -0.645  53.202  1.00  0.00     0.074 A 
HETATM   26  C16 UNL     1      26.002  -0.245  52.411  1.00  0.00     0.056 A 
HETATM   27 CL2  UNL     1      27.879  -2.138  52.797  1.00  0.00    -0.081 Cl
ENDBRANCH  18  20
ENDBRANCH   1  18
TORSDOF 2
ENDMDL
MODEL 6
REMARK VINA RESULT:      -8.6      5.611      8.185
REMARK  2 active torsions:
REMARK  status: ('A' for Active; 'I' for Inactive)
REMARK    1  A    between atoms: C4_5  and  N1_6 
REMARK    2  A    between atoms: N1_6  and  C5_7 
ROOT
HETATM    1  C5  UNL     1      23.682   2.972  51.354  1.00  0.00     0.160 A 
HETATM    2  N2  UNL     1      22.696   3.400  52.146  1.00  0.00    -0.222 NA
HETATM    3  C6  UNL     1      22.412   4.695  52.346  1.00  0.00     0.238 A 
HETATM    4  N3  UNL     1      23.157   5.633  51.719  1.00  0.00    -0.215 NA
HETATM    5  C7  UNL     1      24.173   5.296  50.901  1.00  0.00     0.202 A 
HETATM    6  C8  UNL     1      24.419   3.949  50.734  1.00  0.00     0.129 A 
HETATM    7  N4  UNL     1      25.425   3.354  49.936  1.00  0.00    -0.379 N 
HETATM    8  C9  UNL     1      26.404   3.871  49.018  1.00  0.00     0.161 C 
HETATM    9  C10 UNL     1      26.631   5.318  49.109  1.00  0.00    -0.005 A 
HETATM   10  C11 UNL     1      27.833   5.541  48.430  1.00  0.00     0.035 A 
HETATM   11  C12 UNL     1      28.379   6.809  48.303  1.00  0.00     0.034 A 
HETATM   12 CL1  UNL     1      29.878   7.113  47.459  1.00  0.00    -0.084 Cl
HETATM   13  C13 UNL     1      27.730   7.902  48.857  1.00  0.00     0.026 A 
HETATM   14  C14 UNL     1      26.542   7.710  49.533  1.00  0.00     0.039 A 
HETATM   15  C15 UNL     1      26.040   6.446  49.633  1.00  0.00     0.086 A 
HETATM   16  O1  UNL     1      24.837   6.379  50.336  1.00  0.00    -0.289 OA
HETATM   17  H5  UNL     1      25.536   2.336  49.973  1.00  0.00     0.160 HD
ENDROOT
BRANCH   1  18
HETATM   18  N1  UNL     1      23.863   1.581  51.239  1.00  0.00    -0.339 N 
HETATM   19  H3  UNL     1      23.914   0.880  50.475  1.00  0.00     0.167 HD
BRANCH  18  20
HETATM   20  C4  UNL     1      24.042   0.767  52.389  1.00  0.00     0.035 A 
HETATM   21  C3  UNL     1      25.283   0.734  52.987  1.00  0.00     0.032 A 
HETATM   22  C2  UNL     1      25.544  -0.014  54.128  1.00  0.00     0.046 A 
HETATM   23  C1  UNL     1      24.544  -0.768  54.717  1.00  0.00     0.138 A 
HETATM   24  F1  UNL     1      24.725  -1.514  55.824  1.00  0.00    -0.204 F 
HETATM   25  C17 UNL     1      23.296  -0.762  54.154  1.00  0.00     0.074 A 
HETATM   26  C16 UNL     1      23.083  -0.009  53.026  1.00  0.00     0.056 A 
HETATM   27 CL2  UNL     1      21.951  -1.679  54.813  1.00  0.00    -0.081 Cl
ENDBRANCH  18  20
ENDBRANCH   1  18
TORSDOF 2
ENDMDL
MODEL 7
REMARK VINA RESULT:      -8.3      5.851      7.139
REMARK  2 active torsions:
REMARK  status: ('A' for Active; 'I' for Inactive)
REMARK    1  A    between atoms: C4_5  and  N1_6 
REMARK    2  A    between atoms: N1_6  and  C5_7 
ROOT
HETATM    1  C5  UNL     1      25.714   3.498  50.467  1.00  0.00     0.160 A 
HETATM    2  N2  UNL     1      26.856   3.403  49.782  1.00  0.00    -0.222 NA
HETATM    3  C6  UNL     1      27.327   4.371  48.984  1.00  0.00     0.238 A 
HETATM    4  N3  UNL     1      26.617   5.515  48.854  1.00  0.00    -0.215 NA
HETATM    5  C7  UNL     1      25.453   5.701  49.506  1.00  0.00     0.202 A 
HETATM    6  C8  UNL     1      25.018   4.670  50.313  1.00  0.00     0.129 A 
HETATM    7  N4  UNL     1      23.835   4.629  51.087  1.00  0.00    -0.379 N 
HETATM    8  C9  UNL     1      22.798   5.584  51.374  1.00  0.00     0.161 C 
HETATM    9  C10 UNL     1      22.771   6.750  50.484  1.00  0.00    -0.005 A 
HETATM   10  C11 UNL     1      21.515   7.333  50.688  1.00  0.00     0.035 A 
HETATM   11  C12 UNL     1      21.120   8.475  50.009  1.00  0.00     0.034 A 
HETATM   12 CL1  UNL     1      19.559   9.222  50.246  1.00  0.00    -0.084 Cl
HETATM   13  C13 UNL     1      21.977   9.074  49.099  1.00  0.00     0.026 A 
HETATM   14  C14 UNL     1      23.222   8.519  48.880  1.00  0.00     0.039 A 
HETATM   15  C15 UNL     1      23.572   7.396  49.568  1.00  0.00     0.086 A 
HETATM   16  O1  UNL     1      24.850   6.930  49.264  1.00  0.00    -0.289 OA
HETATM   17  H5  UNL     1      23.604   3.759  51.576  1.00  0.00     0.160 HD
ENDROOT
BRANCH   1  18
HETATM   18  N1  UNL     1      25.345   2.400  51.267  1.00  0.00    -0.339 N 
HETATM   19  H3  UNL     1      24.466   1.925  51.551  1.00  0.00     0.167 HD
BRANCH  18  20
HETATM   20  C4  UNL     1      26.323   1.620  51.938  1.00  0.00     0.035 A 
HETATM   21  C3  UNL     1      27.319   2.269  52.638  1.00  0.00     0.032 A 
HETATM   22  C2  UNL     1      28.303   1.589  53.343  1.00  0.00     0.046 A 
HETATM   23  C1  UNL     1      28.318   0.205  53.369  1.00  0.00     0.138 A 
HETATM   24  F1  UNL     1      29.240  -0.519  54.034  1.00  0.00    -0.204 F 
HETATM   25  C17 UNL     1      27.347  -0.478  52.688  1.00  0.00     0.074 A 
HETATM   26  C16 UNL     1      26.394   0.234  52.003  1.00  0.00     0.056 A 
HETATM   27 CL2  UNL     1      27.267  -2.231  52.649  1.00  0.00    -0.081 Cl
ENDBRANCH  18  20
ENDBRANCH   1  18
TORSDOF 2
ENDMDL
MODEL 8
REMARK VINA RESULT:      -8.2      6.610      9.549
REMARK  2 active torsions:
REMARK  status: ('A' for Active; 'I' for Inactive)
REMARK    1  A    between atoms: C4_5  and  N1_6 
REMARK    2  A    between atoms: N1_6  and  C5_7 
ROOT
HETATM    1  C5  UNL     1      25.014   4.584  50.378  1.00  0.00     0.160 A 
HETATM    2  N2  UNL     1      23.996   5.092  51.079  1.00  0.00    -0.222 NA
HETATM    3  C6  UNL     1      23.805   6.405  51.266  1.00  0.00     0.238 A 
HETATM    4  N3  UNL     1      24.684   7.279  50.722  1.00  0.00    -0.215 NA
HETATM    5  C7  UNL     1      25.741   6.859  50.000  1.00  0.00     0.202 A 
HETATM    6  C8  UNL     1      25.886   5.496  49.841  1.00  0.00     0.129 A 
HETATM    7  N4  UNL     1      26.909   4.820  49.135  1.00  0.00    -0.379 N 
HETATM    8  C9  UNL     1      28.011   5.255  48.320  1.00  0.00     0.161 C 
HETATM    9  C10 UNL     1      28.350   6.677  48.448  1.00  0.00    -0.005 A 
HETATM   10  C11 UNL     1      29.626   6.798  47.888  1.00  0.00     0.035 A 
HETATM   11  C12 UNL     1      30.287   8.016  47.828  1.00  0.00     0.034 A 
HETATM   12 CL1  UNL     1      31.879   8.193  47.132  1.00  0.00    -0.084 Cl
HETATM   13  C13 UNL     1      29.684   9.158  48.331  1.00  0.00     0.026 A 
HETATM   14  C14 UNL     1      28.424   9.066  48.889  1.00  0.00     0.039 A 
HETATM   15  C15 UNL     1      27.810   7.849  48.927  1.00  0.00     0.086 A 
HETATM   16  O1  UNL     1      26.545   7.883  49.512  1.00  0.00    -0.289 OA
HETATM   17  H5  UNL     1      26.930   3.796  49.172  1.00  0.00     0.160 HD
ENDROOT
BRANCH   1  18
HETATM   18  N1  UNL     1      25.086   3.183  50.265  1.00  0.00    -0.339 N 
HETATM   19  H3  UNL     1      24.876   2.465  49.546  1.00  0.00     0.167 HD
BRANCH  18  20
HETATM   20  C4  UNL     1      25.556   2.383  51.341  1.00  0.00     0.035 A 
HETATM   21  C3  UNL     1      24.685   1.491  51.929  1.00  0.00     0.032 A 
HETATM   22  C2  UNL     1      25.063   0.653  52.970  1.00  0.00     0.046 A 
HETATM   23  C1  UNL     1      26.356   0.685  53.463  1.00  0.00     0.138 A 
HETATM   24  F1  UNL     1      26.792  -0.100  54.467  1.00  0.00    -0.204 F 
HETATM   25  C17 UNL     1      27.253   1.557  52.905  1.00  0.00     0.074 A 
HETATM   26  C16 UNL     1      26.836   2.368  51.880  1.00  0.00     0.056 A 
HETATM   27 CL2  UNL     1      28.917   1.685  53.449  1.00  0.00    -0.081 Cl
ENDBRANCH  18  20
ENDBRANCH   1  18
TORSDOF 2
ENDMDL
MODEL 9
REMARK VINA RESULT:      -8.1      6.485      8.335
REMARK  2 active torsions:
REMARK  status: ('A' for Active; 'I' for Inactive)
REMARK    1  A    between atoms: C4_5  and  N1_6 
REMARK    2  A    between atoms: N1_6  and  C5_7 
ROOT
HETATM    1  C5  UNL     1      24.521   6.095  49.610  1.00  0.00     0.160 A 
HETATM    2  N2  UNL     1      23.445   6.845  49.859  1.00  0.00    -0.222 NA
HETATM    3  C6  UNL     1      22.558   6.573  50.827  1.00  0.00     0.238 A 
HETATM    4  N3  UNL     1      22.748   5.481  51.602  1.00  0.00    -0.215 NA
HETATM    5  C7  UNL     1      23.805   4.665  51.423  1.00  0.00     0.202 A 
HETATM    6  C8  UNL     1      24.684   4.995  50.413  1.00  0.00     0.129 A 
HETATM    7  N4  UNL     1      25.854   4.296  50.033  1.00  0.00    -0.379 N 
HETATM    8  C9  UNL     1      26.550   3.154  50.565  1.00  0.00     0.161 C 
HETATM    9  C10 UNL     1      25.777   2.351  51.519  1.00  0.00    -0.005 A 
HETATM   10  C11 UNL     1      26.468   1.138  51.616  1.00  0.00     0.035 A 
HETATM   11  C12 UNL     1      26.031   0.110  52.438  1.00  0.00     0.034 A 
HETATM   12 CL1  UNL     1      26.876  -1.411  52.578  1.00  0.00    -0.084 Cl
HETATM   13  C13 UNL     1      24.879   0.268  53.194  1.00  0.00     0.026 A 
HETATM   14  C14 UNL     1      24.179   1.455  53.116  1.00  0.00     0.039 A 
HETATM   15  C15 UNL     1      24.643   2.440  52.296  1.00  0.00     0.086 A 
HETATM   16  O1  UNL     1      23.853   3.589  52.302  1.00  0.00    -0.289 OA
HETATM   17  H5  UNL     1      26.367   4.619  49.207  1.00  0.00     0.160 HD
ENDROOT
BRANCH   1  18
HETATM   18  N1  UNL     1      25.366   6.504  48.561  1.00  0.00    -0.339 N 
HETATM   19  H3  UNL     1      25.426   6.370  47.534  1.00  0.00     0.167 HD
BRANCH  18  20
HETATM   20  C4  UNL     1      26.493   7.333  48.808  1.00  0.00     0.035 A 
HETATM   21  C3  UNL     1      26.389   8.318  49.766  1.00  0.00     0.032 A 
HETATM   22  C2  UNL     1      27.446   9.159  50.092  1.00  0.00     0.046 A 
HETATM   23  C1  UNL     1      28.666   9.034  49.450  1.00  0.00     0.138 A 
HETATM   24  F1  UNL     1      29.732   9.813  49.716  1.00  0.00    -0.204 F 
HETATM   25  C17 UNL     1      28.810   8.067  48.492  1.00  0.00     0.074 A 
HETATM   26  C16 UNL     1      27.740   7.258  48.202  1.00  0.00     0.056 A 
HETATM   27 CL2  UNL     1      30.310   7.816  47.614  1.00  0.00    -0.081 Cl
ENDBRANCH  18  20
ENDBRANCH   1  18
TORSDOF 2
ENDMDL
