MODEL 1
REMARK VINA RESULT:      -6.6      0.000      0.000
REMARK  8 active torsions:
REMARK  status: ('A' for Active; 'I' for Inactive)
REMARK    1  A    between atoms: C2_2  and  C3_3 
REMARK    2  A    between atoms: C3_3  and  C4_5 
REMARK    3  A    between atoms: C4_5  and  C5_6 
REMARK    4  A    between atoms: C5_6  and  C6_7 
REMARK    5  A    between atoms: C6_7  and  N1_8 
REMARK    6  A    between atoms: N1_8  and  C7_9 
REMARK    7  A    between atoms: C11_15  and  O1_16 
REMARK    8  A    between atoms: C13_18  and  O2_19 
ROOT
HETATM    1  C7  UNL     1      23.447   3.505  52.443  1.00  0.00     0.137 A 
HETATM    2  N2  UNL     1      22.245   3.179  51.959  1.00  0.00    -0.224 NA
HETATM    3  C8  UNL     1      21.781   1.928  51.821  1.00  0.00     0.235 A 
HETATM    4  N3  UNL     1      22.537   0.854  52.184  1.00  0.00    -0.241 NA
HETATM    5  C9  UNL     1      23.774   1.093  52.686  1.00  0.00     0.075 A 
HETATM    6  C10 UNL     1      24.559   0.023  53.060  1.00  0.00     0.072 A 
HETATM    7  C11 UNL     1      25.833   0.231  53.579  1.00  0.00     0.103 A 
HETATM    8  C13 UNL     1      26.268   1.536  53.701  1.00  0.00     0.102 A 
HETATM    9  C15 UNL     1      25.454   2.580  53.317  1.00  0.00     0.057 A 
HETATM   10  C16 UNL     1      24.195   2.403  52.802  1.00  0.00     0.041 A 
ENDROOT
BRANCH   1  11
HETATM   11  N1  UNL     1      23.879   4.839  52.563  1.00  0.00    -0.371 N 
HETATM   12  H7  UNL     1      24.357   5.256  53.378  1.00  0.00     0.161 HD
BRANCH  11  13
HETATM   13  C6  UNL     1      23.630   5.724  51.432  1.00  0.00     0.148 C 
BRANCH  13  14
HETATM   14  C5  UNL     1      24.825   5.873  50.561  1.00  0.00    -0.005 C 
BRANCH  14  15
HETATM   15  C4  UNL     1      25.138   5.063  49.564  1.00  0.00     0.030 C 
BRANCH  15  16
HETATM   16  C3  UNL     1      26.294   4.240  49.463  1.00  0.00     0.074 C 
HETATM   17 CL1  UNL     1      26.524   2.600  49.904  1.00  0.00    -0.075 Cl
BRANCH  16  18
HETATM   18  C2  UNL     1      27.293   4.930  48.935  1.00  0.00    -0.131 C 
HETATM   19  C1  UNL     1      28.106   5.741  48.294  1.00  0.00     0.098 C 
ENDBRANCH  16  18
ENDBRANCH  15  16
ENDBRANCH  14  15
ENDBRANCH  13  14
ENDBRANCH  11  13
ENDBRANCH   1  11
BRANCH   8  20
HETATM   20  O2  UNL     1      27.547   1.660  54.226  1.00  0.00    -0.353 OA
HETATM   21  C14 UNL     1      28.596   2.377  53.601  1.00  0.00     0.210 C 
ENDBRANCH   8  20
BRANCH   7  22
HETATM   22  O1  UNL     1      26.605  -0.862  53.948  1.00  0.00    -0.353 OA
HETATM   23  C12 UNL     1      27.067  -1.724  52.945  1.00  0.00     0.210 C 
ENDBRANCH   7  22
TORSDOF 8
ENDMDL
MODEL 2
REMARK VINA RESULT:      -6.5      2.653      5.249
REMARK  8 active torsions:
REMARK  status: ('A' for Active; 'I' for Inactive)
REMARK    1  A    between atoms: C2_2  and  C3_3 
REMARK    2  A    between atoms: C3_3  and  C4_5 
REMARK    3  A    between atoms: C4_5  and  C5_6 
REMARK    4  A    between atoms: C5_6  and  C6_7 
REMARK    5  A    between atoms: C6_7  and  N1_8 
REMARK    6  A    between atoms: N1_8  and  C7_9 
REMARK    7  A    between atoms: C11_15  and  O1_16 
REMARK    8  A    between atoms: C13_18  and  O2_19 
ROOT
HETATM    1  C7  UNL     1      24.301   2.561  51.921  1.00  0.00     0.137 A 
HETATM    2  N2  UNL     1      24.793   3.366  50.973  1.00  0.00    -0.224 NA
HETATM    3  C8  UNL     1      26.069   3.381  50.559  1.00  0.00     0.235 A 
HETATM    4  N3  UNL     1      26.993   2.538  51.099  1.00  0.00    -0.241 NA
HETATM    5  C9  UNL     1      26.580   1.684  52.069  1.00  0.00     0.075 A 
HETATM    6  C10 UNL     1      27.495   0.821  52.631  1.00  0.00     0.072 A 
HETATM    7  C11 UNL     1      27.107  -0.068  53.629  1.00  0.00     0.103 A 
HETATM    8  C13 UNL     1      25.783  -0.047  54.022  1.00  0.00     0.102 A 
HETATM    9  C15 UNL     1      24.896   0.831  53.437  1.00  0.00     0.057 A 
HETATM   10  C16 UNL     1      25.253   1.718  52.452  1.00  0.00     0.041 A 
ENDROOT
BRANCH   1  11
HETATM   11  N1  UNL     1      22.950   2.593  52.314  1.00  0.00    -0.371 N 
HETATM   12  H7  UNL     1      22.596   2.751  53.271  1.00  0.00     0.161 HD
BRANCH  11  13
HETATM   13  C6  UNL     1      21.949   2.380  51.277  1.00  0.00     0.148 C 
BRANCH  13  14
HETATM   14  C5  UNL     1      21.783   0.941  50.943  1.00  0.00    -0.005 C 
BRANCH  14  15
HETATM   15  C4  UNL     1      21.520  -0.012  51.820  1.00  0.00     0.030 C 
BRANCH  15  16
HETATM   16  C3  UNL     1      20.606   0.056  52.908  1.00  0.00     0.074 C 
HETATM   17 CL1  UNL     1      20.896   0.279  54.582  1.00  0.00    -0.075 Cl
BRANCH  16  18
HETATM   18  C2  UNL     1      19.367  -0.083  52.464  1.00  0.00    -0.131 C 
HETATM   19  C1  UNL     1      18.238  -0.374  51.856  1.00  0.00     0.098 C 
ENDBRANCH  16  18
ENDBRANCH  15  16
ENDBRANCH  14  15
ENDBRANCH  13  14
ENDBRANCH  11  13
ENDBRANCH   1  11
BRANCH   8  20
HETATM   20  O2  UNL     1      25.474  -0.961  55.020  1.00  0.00    -0.353 OA
HETATM   21  C14 UNL     1      24.156  -1.274  55.431  1.00  0.00     0.210 C 
ENDBRANCH   8  20
BRANCH   7  22
HETATM   22  O1  UNL     1      28.047  -0.927  54.179  1.00  0.00    -0.353 OA
HETATM   23  C12 UNL     1      29.371  -0.848  53.728  1.00  0.00     0.210 C 
ENDBRANCH   7  22
TORSDOF 8
ENDMDL
MODEL 3
REMARK VINA RESULT:      -6.5      3.212      5.264
REMARK  8 active torsions:
REMARK  status: ('A' for Active; 'I' for Inactive)
REMARK    1  A    between atoms: C2_2  and  C3_3 
REMARK    2  A    between atoms: C3_3  and  C4_5 
REMARK    3  A    between atoms: C4_5  and  C5_6 
REMARK    4  A    between atoms: C5_6  and  C6_7 
REMARK    5  A    between atoms: C6_7  and  N1_8 
REMARK    6  A    between atoms: N1_8  and  C7_9 
REMARK    7  A    between atoms: C11_15  and  O1_16 
REMARK    8  A    between atoms: C13_18  and  O2_19 
ROOT
HETATM    1  C7  UNL     1      24.449   2.558  51.420  1.00  0.00     0.137 A 
HETATM    2  N2  UNL     1      24.444   3.056  50.179  1.00  0.00    -0.224 NA
HETATM    3  C8  UNL     1      23.465   2.881  49.280  1.00  0.00     0.235 A 
HETATM    4  N3  UNL     1      22.355   2.151  49.583  1.00  0.00    -0.241 NA
HETATM    5  C9  UNL     1      22.276   1.608  50.823  1.00  0.00     0.075 A 
HETATM    6  C10 UNL     1      21.163   0.864  51.154  1.00  0.00     0.072 A 
HETATM    7  C11 UNL     1      21.048   0.291  52.417  1.00  0.00     0.103 A 
HETATM    8  C13 UNL     1      22.082   0.498  53.309  1.00  0.00     0.102 A 
HETATM    9  C15 UNL     1      23.179   1.248  52.942  1.00  0.00     0.057 A 
HETATM   10  C16 UNL     1      23.317   1.823  51.703  1.00  0.00     0.041 A 
ENDROOT
BRANCH   1  11
HETATM   11  N1  UNL     1      25.509   2.776  52.320  1.00  0.00    -0.371 N 
HETATM   12  H7  UNL     1      25.453   3.280  53.219  1.00  0.00     0.161 HD
BRANCH  11  13
HETATM   13  C6  UNL     1      26.814   2.243  51.953  1.00  0.00     0.148 C 
BRANCH  13  14
HETATM   14  C5  UNL     1      26.744   0.814  51.548  1.00  0.00    -0.005 C 
BRANCH  14  15
HETATM   15  C4  UNL     1      26.802  -0.210  52.381  1.00  0.00     0.030 C 
BRANCH  15  16
HETATM   16  C3  UNL     1      27.281  -0.197  53.721  1.00  0.00     0.074 C 
HETATM   17 CL1  UNL     1      26.461   0.161  55.182  1.00  0.00    -0.075 Cl
BRANCH  16  18
HETATM   18  C2  UNL     1      28.563  -0.523  53.743  1.00  0.00    -0.131 C 
HETATM   19  C1  UNL     1      29.797  -0.928  53.535  1.00  0.00     0.098 C 
ENDBRANCH  16  18
ENDBRANCH  15  16
ENDBRANCH  14  15
ENDBRANCH  13  14
ENDBRANCH  11  13
ENDBRANCH   1  11
BRANCH   8  20
HETATM   20  O2  UNL     1      21.893  -0.105  54.545  1.00  0.00    -0.353 OA
HETATM   21  C14 UNL     1      22.599  -1.250  54.986  1.00  0.00     0.210 C 
ENDBRANCH   8  20
BRANCH   7  22
HETATM   22  O1  UNL     1      19.918  -0.453  52.727  1.00  0.00    -0.353 OA
HETATM   23  C12 UNL     1      18.711  -0.131  52.094  1.00  0.00     0.210 C 
ENDBRANCH   7  22
TORSDOF 8
ENDMDL
MODEL 4
REMARK VINA RESULT:      -6.4      1.525      2.090
REMARK  8 active torsions:
REMARK  status: ('A' for Active; 'I' for Inactive)
REMARK    1  A    between atoms: C2_2  and  C3_3 
REMARK    2  A    between atoms: C3_3  and  C4_5 
REMARK    3  A    between atoms: C4_5  and  C5_6 
REMARK    4  A    between atoms: C5_6  and  C6_7 
REMARK    5  A    between atoms: C6_7  and  N1_8 
REMARK    6  A    between atoms: N1_8  and  C7_9 
REMARK    7  A    between atoms: C11_15  and  O1_16 
REMARK    8  A    between atoms: C13_18  and  O2_19 
ROOT
HETATM    1  C7  UNL     1      22.915   4.977  52.015  1.00  0.00     0.137 A 
HETATM    2  N2  UNL     1      21.706   5.289  51.538  1.00  0.00    -0.224 NA
HETATM    3  C8  UNL     1      20.697   4.423  51.363  1.00  0.00     0.235 A 
HETATM    4  N3  UNL     1      20.841   3.105  51.674  1.00  0.00    -0.241 NA
HETATM    5  C9  UNL     1      22.038   2.698  52.167  1.00  0.00     0.075 A 
HETATM    6  C10 UNL     1      22.209   1.369  52.489  1.00  0.00     0.072 A 
HETATM    7  C11 UNL     1      23.423   0.917  52.996  1.00  0.00     0.103 A 
HETATM    8  C13 UNL     1      24.432   1.845  53.159  1.00  0.00     0.102 A 
HETATM    9  C15 UNL     1      24.224   3.166  52.825  1.00  0.00     0.057 A 
HETATM   10  C16 UNL     1      23.037   3.638  52.323  1.00  0.00     0.041 A 
ENDROOT
BRANCH   1  11
HETATM   11  N1  UNL     1      23.936   5.932  52.176  1.00  0.00    -0.371 N 
HETATM   12  H7  UNL     1      24.528   6.059  53.013  1.00  0.00     0.161 HD
BRANCH  11  13
HETATM   13  C6  UNL     1      24.186   6.834  51.060  1.00  0.00     0.148 C 
BRANCH  13  14
HETATM   14  C5  UNL     1      25.344   6.400  50.235  1.00  0.00    -0.005 C 
BRANCH  14  15
HETATM   15  C4  UNL     1      25.374   5.309  49.489  1.00  0.00     0.030 C 
BRANCH  15  16
HETATM   16  C3  UNL     1      26.422   4.350  49.419  1.00  0.00     0.074 C 
HETATM   17 CL1  UNL     1      26.500   2.753  50.036  1.00  0.00    -0.075 Cl
BRANCH  16  18
HETATM   18  C2  UNL     1      27.451   4.856  48.757  1.00  0.00    -0.131 C 
HETATM   19  C1  UNL     1      28.507   5.495  48.304  1.00  0.00     0.098 C 
ENDBRANCH  16  18
ENDBRANCH  15  16
ENDBRANCH  14  15
ENDBRANCH  13  14
ENDBRANCH  11  13
ENDBRANCH   1  11
BRANCH   8  20
HETATM   20  O2  UNL     1      25.611   1.317  53.668  1.00  0.00    -0.353 OA
HETATM   21  C14 UNL     1      26.875   1.946  53.560  1.00  0.00     0.210 C 
ENDBRANCH   8  20
BRANCH   7  22
HETATM   22  O1  UNL     1      23.571  -0.426  53.314  1.00  0.00    -0.353 OA
HETATM   23  C12 UNL     1      22.439  -1.146  53.717  1.00  0.00     0.210 C 
ENDBRANCH   7  22
TORSDOF 8
ENDMDL
MODEL 5
REMARK VINA RESULT:      -6.4      4.158      6.270
REMARK  8 active torsions:
REMARK  status: ('A' for Active; 'I' for Inactive)
REMARK    1  A    between atoms: C2_2  and  C3_3 
REMARK    2  A    between atoms: C3_3  and  C4_5 
REMARK    3  A    between atoms: C4_5  and  C5_6 
REMARK    4  A    between atoms: C5_6  and  C6_7 
REMARK    5  A    between atoms: C6_7  and  N1_8 
REMARK    6  A    between atoms: N1_8  and  C7_9 
REMARK    7  A    between atoms: C11_15  and  O1_16 
REMARK    8  A    between atoms: C13_18  and  O2_19 
ROOT
HETATM    1  C7  UNL     1      23.413   0.011  53.361  1.00  0.00     0.137 A 
HETATM    2  N2  UNL     1      23.898  -0.648  54.418  1.00  0.00    -0.224 NA
HETATM    3  C8  UNL     1      23.174  -1.403  55.257  1.00  0.00     0.235 A 
HETATM    4  N3  UNL     1      21.832  -1.559  55.081  1.00  0.00    -0.241 NA
HETATM    5  C9  UNL     1      21.254  -0.926  54.031  1.00  0.00     0.075 A 
HETATM    6  C10 UNL     1      19.898  -1.068  53.831  1.00  0.00     0.072 A 
HETATM    7  C11 UNL     1      19.271  -0.433  52.764  1.00  0.00     0.103 A 
HETATM    8  C13 UNL     1      20.058   0.334  51.927  1.00  0.00     0.102 A 
HETATM    9  C15 UNL     1      21.411   0.453  52.158  1.00  0.00     0.057 A 
HETATM   10  C16 UNL     1      22.053  -0.162  53.203  1.00  0.00     0.041 A 
ENDROOT
BRANCH   1  11
HETATM   11  N1  UNL     1      24.224   0.790  52.515  1.00  0.00    -0.371 N 
HETATM   12  H7  UNL     1      24.542   0.533  51.567  1.00  0.00     0.161 HD
BRANCH  11  13
HETATM   13  C6  UNL     1      24.663   2.084  53.020  1.00  0.00     0.148 C 
BRANCH  13  14
HETATM   14  C5  UNL     1      26.014   2.018  53.637  1.00  0.00    -0.005 C 
BRANCH  14  15
HETATM   15  C4  UNL     1      27.045   1.366  53.128  1.00  0.00     0.030 C 
BRANCH  15  16
HETATM   16  C3  UNL     1      27.716   0.248  53.697  1.00  0.00     0.074 C 
HETATM   17 CL1  UNL     1      28.858   0.178  54.973  1.00  0.00    -0.075 Cl
BRANCH  16  18
HETATM   18  C2  UNL     1      27.338  -0.863  53.085  1.00  0.00    -0.131 C 
HETATM   19  C1  UNL     1      26.775  -1.828  52.392  1.00  0.00     0.098 C 
ENDBRANCH  16  18
ENDBRANCH  15  16
ENDBRANCH  14  15
ENDBRANCH  13  14
ENDBRANCH  11  13
ENDBRANCH   1  11
BRANCH   8  20
HETATM   20  O2  UNL     1      19.360   0.935  50.887  1.00  0.00    -0.353 OA
HETATM   21  C14 UNL     1      19.942   1.307  49.651  1.00  0.00     0.210 C 
ENDBRANCH   8  20
BRANCH   7  22
HETATM   22  O1  UNL     1      17.904  -0.592  52.584  1.00  0.00    -0.353 OA
HETATM   23  C12 UNL     1      17.295  -1.751  53.079  1.00  0.00     0.210 C 
ENDBRANCH   7  22
TORSDOF 8
ENDMDL
MODEL 6
REMARK VINA RESULT:      -6.3      2.934      4.213
REMARK  8 active torsions:
REMARK  status: ('A' for Active; 'I' for Inactive)
REMARK    1  A    between atoms: C2_2  and  C3_3 
REMARK    2  A    between atoms: C3_3  and  C4_5 
REMARK    3  A    between atoms: C4_5  and  C5_6 
REMARK    4  A    between atoms: C5_6  and  C6_7 
REMARK    5  A    between atoms: C6_7  and  N1_8 
REMARK    6  A    between atoms: N1_8  and  C7_9 
REMARK    7  A    between atoms: C11_15  and  O1_16 
REMARK    8  A    between atoms: C13_18  and  O2_19 
ROOT
HETATM    1  C7  UNL     1      26.576   2.299  51.965  1.00  0.00     0.137 A 
HETATM    2  N2  UNL     1      27.781   1.959  52.433  1.00  0.00    -0.224 NA
HETATM    3  C8  UNL     1      28.036   0.898  53.213  1.00  0.00     0.235 A 
HETATM    4  N3  UNL     1      27.039   0.054  53.599  1.00  0.00    -0.241 NA
HETATM    5  C9  UNL     1      25.781   0.324  53.170  1.00  0.00     0.075 A 
HETATM    6  C10 UNL     1      24.754  -0.515  53.548  1.00  0.00     0.072 A 
HETATM    7  C11 UNL     1      23.451  -0.269  53.126  1.00  0.00     0.103 A 
HETATM    8  C13 UNL     1      23.237   0.835  52.325  1.00  0.00     0.102 A 
HETATM    9  C15 UNL     1      24.289   1.651  51.967  1.00  0.00     0.057 A 
HETATM   10  C16 UNL     1      25.583   1.432  52.370  1.00  0.00     0.041 A 
ENDROOT
BRANCH   1  11
HETATM   11  N1  UNL     1      26.370   3.427  51.149  1.00  0.00    -0.371 N 
HETATM   12  H7  UNL     1      26.087   4.368  51.468  1.00  0.00     0.161 HD
BRANCH  11  13
HETATM   13  C6  UNL     1      26.573   3.259  49.717  1.00  0.00     0.148 C 
BRANCH  13  14
HETATM   14  C5  UNL     1      26.792   4.556  49.024  1.00  0.00    -0.005 C 
BRANCH  14  15
HETATM   15  C4  UNL     1      27.957   4.980  48.566  1.00  0.00     0.030 C 
BRANCH  15  16
HETATM   16  C3  UNL     1      28.276   6.295  48.128  1.00  0.00     0.074 C 
HETATM   17 CL1  UNL     1      29.799   7.017  47.819  1.00  0.00    -0.075 Cl
BRANCH  16  18
HETATM   18  C2  UNL     1      27.165   6.994  47.959  1.00  0.00    -0.131 C 
HETATM   19  C1  UNL     1      26.209   7.886  47.819  1.00  0.00     0.098 C 
ENDBRANCH  16  18
ENDBRANCH  15  16
ENDBRANCH  14  15
ENDBRANCH  13  14
ENDBRANCH  11  13
ENDBRANCH   1  11
BRANCH   8  20
HETATM   20  O2  UNL     1      21.913   1.013  51.947  1.00  0.00    -0.353 OA
HETATM   21  C14 UNL     1      21.398   0.672  50.673  1.00  0.00     0.210 C 
ENDBRANCH   8  20
BRANCH   7  22
HETATM   22  O1  UNL     1      22.435  -1.128  53.520  1.00  0.00    -0.353 OA
HETATM   23  C12 UNL     1      21.957  -1.042  54.834  1.00  0.00     0.210 C 
ENDBRANCH   7  22
TORSDOF 8
ENDMDL
MODEL 7
REMARK VINA RESULT:      -6.2      3.268      5.515
REMARK  8 active torsions:
REMARK  status: ('A' for Active; 'I' for Inactive)
REMARK    1  A    between atoms: C2_2  and  C3_3 
REMARK    2  A    between atoms: C3_3  and  C4_5 
REMARK    3  A    between atoms: C4_5  and  C5_6 
REMARK    4  A    between atoms: C5_6  and  C6_7 
REMARK    5  A    between atoms: C6_7  and  N1_8 
REMARK    6  A    between atoms: N1_8  and  C7_9 
REMARK    7  A    between atoms: C11_15  and  O1_16 
REMARK    8  A    between atoms: C13_18  and  O2_19 
ROOT
HETATM    1  C7  UNL     1      22.998  -0.471  53.492  1.00  0.00     0.137 A 
HETATM    2  N2  UNL     1      22.309  -1.491  54.015  1.00  0.00    -0.224 NA
HETATM    3  C8  UNL     1      20.981  -1.511  54.200  1.00  0.00     0.235 A 
HETATM    4  N3  UNL     1      20.207  -0.446  53.852  1.00  0.00    -0.241 NA
HETATM    5  C9  UNL     1      20.824   0.635  53.312  1.00  0.00     0.075 A 
HETATM    6  C10 UNL     1      20.062   1.726  52.951  1.00  0.00     0.072 A 
HETATM    7  C11 UNL     1      20.662   2.851  52.395  1.00  0.00     0.103 A 
HETATM    8  C13 UNL     1      22.032   2.826  52.224  1.00  0.00     0.102 A 
HETATM    9  C15 UNL     1      22.760   1.717  52.597  1.00  0.00     0.057 A 
HETATM   10  C16 UNL     1      22.194   0.595  53.148  1.00  0.00     0.041 A 
ENDROOT
BRANCH   1  11
HETATM   11  N1  UNL     1      24.395  -0.509  53.323  1.00  0.00    -0.371 N 
HETATM   12  H7  UNL     1      24.907  -0.365  52.438  1.00  0.00     0.161 HD
BRANCH  11  13
HETATM   13  C6  UNL     1      25.202  -0.777  54.506  1.00  0.00     0.148 C 
BRANCH  13  14
HETATM   14  C5  UNL     1      26.374   0.133  54.605  1.00  0.00    -0.005 C 
BRANCH  14  15
HETATM   15  C4  UNL     1      26.379   1.401  54.233  1.00  0.00     0.030 C 
BRANCH  15  16
HETATM   16  C3  UNL     1      27.299   2.030  53.349  1.00  0.00     0.074 C 
HETATM   17 CL1  UNL     1      28.872   2.642  53.645  1.00  0.00    -0.075 Cl
BRANCH  16  18
HETATM   18  C2  UNL     1      26.775   2.109  52.136  1.00  0.00    -0.131 C 
HETATM   19  C1  UNL     1      26.425   2.363  50.894  1.00  0.00     0.098 C 
ENDBRANCH  16  18
ENDBRANCH  15  16
ENDBRANCH  14  15
ENDBRANCH  13  14
ENDBRANCH  11  13
ENDBRANCH   1  11
BRANCH   8  20
HETATM   20  O2  UNL     1      22.554   3.985  51.665  1.00  0.00    -0.353 OA
HETATM   21  C14 UNL     1      23.615   4.732  52.232  1.00  0.00     0.210 C 
ENDBRANCH   8  20
BRANCH   7  22
HETATM   22  O1  UNL     1      19.874   3.937  52.040  1.00  0.00    -0.353 OA
HETATM   23  C12 UNL     1      18.990   3.797  50.963  1.00  0.00     0.210 C 
ENDBRANCH   7  22
TORSDOF 8
ENDMDL
MODEL 8
REMARK VINA RESULT:      -6.2      2.234      2.776
REMARK  8 active torsions:
REMARK  status: ('A' for Active; 'I' for Inactive)
REMARK    1  A    between atoms: C2_2  and  C3_3 
REMARK    2  A    between atoms: C3_3  and  C4_5 
REMARK    3  A    between atoms: C4_5  and  C5_6 
REMARK    4  A    between atoms: C5_6  and  C6_7 
REMARK    5  A    between atoms: C6_7  and  N1_8 
REMARK    6  A    between atoms: N1_8  and  C7_9 
REMARK    7  A    between atoms: C11_15  and  O1_16 
REMARK    8  A    between atoms: C13_18  and  O2_19 
ROOT
HETATM    1  C7  UNL     1      25.289   2.942  51.022  1.00  0.00     0.137 A 
HETATM    2  N2  UNL     1      24.148   2.905  50.326  1.00  0.00    -0.224 NA
HETATM    3  C8  UNL     1      23.132   2.059  50.552  1.00  0.00     0.235 A 
HETATM    4  N3  UNL     1      23.195   1.137  51.553  1.00  0.00    -0.241 NA
HETATM    5  C9  UNL     1      24.319   1.104  52.312  1.00  0.00     0.075 A 
HETATM    6  C10 UNL     1      24.407   0.180  53.331  1.00  0.00     0.072 A 
HETATM    7  C11 UNL     1      25.545   0.117  54.130  1.00  0.00     0.103 A 
HETATM    8  C13 UNL     1      26.565   1.008  53.859  1.00  0.00     0.102 A 
HETATM    9  C15 UNL     1      26.441   1.918  52.831  1.00  0.00     0.057 A 
HETATM   10  C16 UNL     1      25.330   2.001  52.029  1.00  0.00     0.041 A 
ENDROOT
BRANCH   1  11
HETATM   11  N1  UNL     1      26.322   3.855  50.736  1.00  0.00    -0.371 N 
HETATM   12  H7  UNL     1      26.750   4.520  51.400  1.00  0.00     0.161 HD
BRANCH  11  13
HETATM   13  C6  UNL     1      26.840   3.869  49.375  1.00  0.00     0.148 C 
BRANCH  13  14
HETATM   14  C5  UNL     1      26.938   5.247  48.825  1.00  0.00    -0.005 C 
BRANCH  14  15
HETATM   15  C4  UNL     1      28.035   5.781  48.318  1.00  0.00     0.030 C 
BRANCH  15  16
HETATM   16  C3  UNL     1      28.217   7.130  47.906  1.00  0.00     0.074 C 
HETATM   17 CL1  UNL     1      28.797   7.763  46.423  1.00  0.00    -0.075 Cl
BRANCH  16  18
HETATM   18  C2  UNL     1      27.858   7.951  48.881  1.00  0.00    -0.131 C 
HETATM   19  C1  UNL     1      27.332   8.847  49.687  1.00  0.00     0.098 C 
ENDBRANCH  16  18
ENDBRANCH  15  16
ENDBRANCH  14  15
ENDBRANCH  13  14
ENDBRANCH  11  13
ENDBRANCH   1  11
BRANCH   8  20
HETATM   20  O2  UNL     1      27.665   0.882  54.697  1.00  0.00    -0.353 OA
HETATM   21  C14 UNL     1      28.996   0.723  54.242  1.00  0.00     0.210 C 
ENDBRANCH   8  20
BRANCH   7  22
HETATM   22  O1  UNL     1      25.610  -0.821  55.150  1.00  0.00    -0.353 OA
HETATM   23  C12 UNL     1      24.413  -1.297  55.699  1.00  0.00     0.210 C 
ENDBRANCH   7  22
TORSDOF 8
ENDMDL
MODEL 9
REMARK VINA RESULT:      -6.1      3.507      6.783
REMARK  8 active torsions:
REMARK  status: ('A' for Active; 'I' for Inactive)
REMARK    1  A    between atoms: C2_2  and  C3_3 
REMARK    2  A    between atoms: C3_3  and  C4_5 
REMARK    3  A    between atoms: C4_5  and  C5_6 
REMARK    4  A    between atoms: C5_6  and  C6_7 
REMARK    5  A    between atoms: C6_7  and  N1_8 
REMARK    6  A    between atoms: N1_8  and  C7_9 
REMARK    7  A    between atoms: C11_15  and  O1_16 
REMARK    8  A    between atoms: C13_18  and  O2_19 
ROOT
HETATM    1  C7  UNL     1      25.039  -0.434  53.235  1.00  0.00     0.137 A 
HETATM    2  N2  UNL     1      26.150  -0.976  53.744  1.00  0.00    -0.224 NA
HETATM    3  C8  UNL     1      27.391  -0.498  53.573  1.00  0.00     0.235 A 
HETATM    4  N3  UNL     1      27.616   0.626  52.836  1.00  0.00    -0.241 NA
HETATM    5  C9  UNL     1      26.543   1.243  52.281  1.00  0.00     0.075 A 
HETATM    6  C10 UNL     1      26.744   2.381  51.530  1.00  0.00     0.072 A 
HETATM    7  C11 UNL     1      25.667   3.040  50.946  1.00  0.00     0.103 A 
HETATM    8  C13 UNL     1      24.408   2.510  51.150  1.00  0.00     0.102 A 
HETATM    9  C15 UNL     1      24.246   1.370  51.907  1.00  0.00     0.057 A 
HETATM   10  C16 UNL     1      25.291   0.701  52.493  1.00  0.00     0.041 A 
ENDROOT
BRANCH   1  11
HETATM   11  N1  UNL     1      23.761  -0.984  53.449  1.00  0.00    -0.371 N 
HETATM   12  H7  UNL     1      23.124  -1.349  52.723  1.00  0.00     0.161 HD
BRANCH  11  13
HETATM   13  C6  UNL     1      23.285  -1.046  54.824  1.00  0.00     0.148 C 
BRANCH  13  14
HETATM   14  C5  UNL     1      21.807  -0.908  54.914  1.00  0.00    -0.005 C 
BRANCH  14  15
HETATM   15  C4  UNL     1      20.966  -1.136  53.920  1.00  0.00     0.030 C 
BRANCH  15  16
HETATM   16  C3  UNL     1      20.035  -0.217  53.360  1.00  0.00     0.074 C 
HETATM   17 CL1  UNL     1      20.257   1.402  52.842  1.00  0.00    -0.075 Cl
BRANCH  16  18
HETATM   18  C2  UNL     1      18.845  -0.786  53.262  1.00  0.00    -0.131 C 
HETATM   19  C1  UNL     1      17.753  -1.454  52.958  1.00  0.00     0.098 C 
ENDBRANCH  16  18
ENDBRANCH  15  16
ENDBRANCH  14  15
ENDBRANCH  13  14
ENDBRANCH  11  13
ENDBRANCH   1  11
BRANCH   8  20
HETATM   20  O2  UNL     1      23.387   3.223  50.536  1.00  0.00    -0.353 OA
HETATM   21  C14 UNL     1      22.485   4.071  51.223  1.00  0.00     0.210 C 
ENDBRANCH   8  20
BRANCH   7  22
HETATM   22  O1  UNL     1      25.895   4.185  50.196  1.00  0.00    -0.353 OA
HETATM   23  C12 UNL     1      26.916   4.164  49.237  1.00  0.00     0.210 C 
ENDBRANCH   7  22
TORSDOF 8
ENDMDL
