MODEL 1
REMARK VINA RESULT:      -6.7      0.000      0.000
REMARK  8 active torsions:
REMARK  status: ('A' for Active; 'I' for Inactive)
REMARK    1  A    between atoms: O1_2  and  C2_3 
REMARK    2  A    between atoms: C6_9  and  N3_10 
REMARK    3  A    between atoms: N3_10  and  C8_12 
REMARK    4  A    between atoms: C8_12  and  C11_16 
REMARK    5  A    between atoms: C9_13  and  C10_14 
REMARK    6  A    between atoms: C11_16  and  N4_17 
REMARK    7  A    between atoms: N4_17  and  C12_18 
REMARK    8  A    between atoms: C15_22  and  O3_23 
ROOT
HETATM    1  C2  UNL     1      20.952  -0.206  52.912  1.00  0.00     0.103 A 
HETATM    2  C3  UNL     1      21.275  -0.807  54.102  1.00  0.00     0.072 A 
HETATM    3  C4  UNL     1      22.596  -0.903  54.487  1.00  0.00     0.075 A 
HETATM    4  N1  UNL     1      22.858  -1.506  55.672  1.00  0.00    -0.241 NA
HETATM    5  C5  UNL     1      24.149  -1.594  56.041  1.00  0.00     0.236 A 
HETATM    6  N2  UNL     1      25.159  -1.118  55.295  1.00  0.00    -0.223 NA
HETATM    7  C6  UNL     1      24.975  -0.509  54.111  1.00  0.00     0.143 A 
HETATM    8  C13 UNL     1      23.639  -0.419  53.733  1.00  0.00     0.042 A 
HETATM    9  C14 UNL     1      23.249   0.171  52.555  1.00  0.00     0.057 A 
HETATM   10  C15 UNL     1      21.957   0.299  52.112  1.00  0.00     0.102 A 
ENDROOT
BRANCH   7  11
HETATM   11  N3  UNL     1      25.992   0.020  53.269  1.00  0.00    -0.338 N 
HETATM   12  C7  UNL     1      26.547  -0.386  51.989  1.00  0.00     0.158 C 
BRANCH  11  13
HETATM   13  C8  UNL     1      26.632   1.198  53.735  1.00  0.00     0.028 C 
HETATM   14  C9  UNL     1      27.819   1.093  54.299  1.00  0.00     0.015 C 
BRANCH  14  15
HETATM   15  C10 UNL     1      28.524  -0.194  54.471  1.00  0.00     0.143 C 
HETATM   16 CL1  UNL     1      30.008  -0.140  53.458  1.00  0.00    -0.126 Cl
ENDBRANCH  14  15
BRANCH  13  17
HETATM   17  C11 UNL     1      25.831   2.397  53.500  1.00  0.00     0.178 C 
BRANCH  17  18
HETATM   18  N4  UNL     1      25.991   3.023  52.226  1.00  0.00    -0.363 N 
HETATM   19  H14 UNL     1      26.909   3.326  51.783  1.00  0.00     0.162 HD
BRANCH  18  20
HETATM   20  C12 UNL     1      24.906   3.332  51.358  1.00  0.00     0.348 C 
HETATM   21  O2  UNL     1      24.772   2.760  50.246  1.00  0.00    -0.284 OA
ENDBRANCH  18  20
ENDBRANCH  17  18
ENDBRANCH  13  17
ENDBRANCH  11  13
ENDBRANCH   7  11
BRANCH  10  22
HETATM   22  O3  UNL     1      21.631   0.909  50.904  1.00  0.00    -0.353 OA
HETATM   23  C16 UNL     1      21.371   2.298  50.906  1.00  0.00     0.210 C 
ENDBRANCH  10  22
BRANCH   1  24
HETATM   24  O1  UNL     1      19.635  -0.090  52.488  1.00  0.00    -0.353 OA
HETATM   25  C1  UNL     1      18.610  -0.876  53.067  1.00  0.00     0.210 C 
ENDBRANCH   1  24
TORSDOF 8
ENDMDL
MODEL 2
REMARK VINA RESULT:      -6.5      3.105      5.735
REMARK  8 active torsions:
REMARK  status: ('A' for Active; 'I' for Inactive)
REMARK    1  A    between atoms: O1_2  and  C2_3 
REMARK    2  A    between atoms: C6_9  and  N3_10 
REMARK    3  A    between atoms: N3_10  and  C8_12 
REMARK    4  A    between atoms: C8_12  and  C11_16 
REMARK    5  A    between atoms: C9_13  and  C10_14 
REMARK    6  A    between atoms: C11_16  and  N4_17 
REMARK    7  A    between atoms: N4_17  and  C12_18 
REMARK    8  A    between atoms: C15_22  and  O3_23 
ROOT
HETATM    1  C2  UNL     1      26.487   0.320  54.276  1.00  0.00     0.103 A 
HETATM    2  C3  UNL     1      25.375  -0.427  53.976  1.00  0.00     0.072 A 
HETATM    3  C4  UNL     1      24.295   0.166  53.358  1.00  0.00     0.075 A 
HETATM    4  N1  UNL     1      23.224  -0.619  53.085  1.00  0.00    -0.241 NA
HETATM    5  C5  UNL     1      22.174  -0.033  52.482  1.00  0.00     0.236 A 
HETATM    6  N2  UNL     1      22.151   1.269  52.151  1.00  0.00    -0.223 NA
HETATM    7  C6  UNL     1      23.174   2.107  52.390  1.00  0.00     0.143 A 
HETATM    8  C13 UNL     1      24.259   1.497  53.014  1.00  0.00     0.042 A 
HETATM    9  C14 UNL     1      25.400   2.189  53.340  1.00  0.00     0.057 A 
HETATM   10  C15 UNL     1      26.509   1.663  53.954  1.00  0.00     0.102 A 
ENDROOT
BRANCH   7  11
HETATM   11  N3  UNL     1      23.222   3.491  52.069  1.00  0.00    -0.338 N 
HETATM   12  C7  UNL     1      23.545   4.688  52.828  1.00  0.00     0.158 C 
BRANCH  11  13
HETATM   13  C8  UNL     1      22.894   3.828  50.729  1.00  0.00     0.028 C 
HETATM   14  C9  UNL     1      23.813   3.681  49.796  1.00  0.00     0.015 C 
BRANCH  14  15
HETATM   15  C10 UNL     1      25.175   3.180  50.071  1.00  0.00     0.143 C 
HETATM   16 CL1  UNL     1      26.336   4.296  49.274  1.00  0.00    -0.126 Cl
ENDBRANCH  14  15
BRANCH  13  17
HETATM   17  C11 UNL     1      21.519   4.306  50.596  1.00  0.00     0.178 C 
BRANCH  17  18
HETATM   18  N4  UNL     1      20.523   3.307  50.377  1.00  0.00    -0.363 N 
HETATM   19  H14 UNL     1      20.524   2.572  49.607  1.00  0.00     0.162 HD
BRANCH  18  20
HETATM   20  C12 UNL     1      19.362   3.161  51.188  1.00  0.00     0.348 C 
HETATM   21  O2  UNL     1      19.397   3.368  52.428  1.00  0.00    -0.284 OA
ENDBRANCH  18  20
ENDBRANCH  17  18
ENDBRANCH  13  17
ENDBRANCH  11  13
ENDBRANCH   7  11
BRANCH  10  22
HETATM   22  O3  UNL     1      27.634   2.422  54.258  1.00  0.00    -0.353 OA
HETATM   23  C16 UNL     1      28.619   2.586  53.258  1.00  0.00     0.210 C 
ENDBRANCH  10  22
BRANCH   1  24
HETATM   24  O1  UNL     1      27.595  -0.239  54.897  1.00  0.00    -0.353 OA
HETATM   25  C1  UNL     1      28.661  -0.780  54.139  1.00  0.00     0.210 C 
ENDBRANCH   1  24
TORSDOF 8
ENDMDL
MODEL 3
REMARK VINA RESULT:      -6.4      3.674      5.806
REMARK  8 active torsions:
REMARK  status: ('A' for Active; 'I' for Inactive)
REMARK    1  A    between atoms: O1_2  and  C2_3 
REMARK    2  A    between atoms: C6_9  and  N3_10 
REMARK    3  A    between atoms: N3_10  and  C8_12 
REMARK    4  A    between atoms: C8_12  and  C11_16 
REMARK    5  A    between atoms: C9_13  and  C10_14 
REMARK    6  A    between atoms: C11_16  and  N4_17 
REMARK    7  A    between atoms: N4_17  and  C12_18 
REMARK    8  A    between atoms: C15_22  and  O3_23 
ROOT
HETATM    1  C2  UNL     1      26.873  -0.087  53.667  1.00  0.00     0.103 A 
HETATM    2  C3  UNL     1      25.686  -0.715  53.948  1.00  0.00     0.072 A 
HETATM    3  C4  UNL     1      24.504  -0.206  53.453  1.00  0.00     0.075 A 
HETATM    4  N1  UNL     1      23.362  -0.867  53.762  1.00  0.00    -0.241 NA
HETATM    5  C5  UNL     1      22.213  -0.364  53.274  1.00  0.00     0.236 A 
HETATM    6  N2  UNL     1      22.162   0.740  52.512  1.00  0.00    -0.223 NA
HETATM    7  C6  UNL     1      23.252   1.446  52.165  1.00  0.00     0.143 A 
HETATM    8  C13 UNL     1      24.438   0.923  52.671  1.00  0.00     0.042 A 
HETATM    9  C14 UNL     1      25.658   1.505  52.425  1.00  0.00     0.057 A 
HETATM   10  C15 UNL     1      26.869   1.052  52.887  1.00  0.00     0.102 A 
ENDROOT
BRANCH   7  11
HETATM   11  N3  UNL     1      23.275   2.621  51.363  1.00  0.00    -0.338 N 
HETATM   12  C7  UNL     1      23.739   2.908  50.016  1.00  0.00     0.158 C 
BRANCH  11  13
HETATM   13  C8  UNL     1      22.738   3.791  51.961  1.00  0.00     0.028 C 
HETATM   14  C9  UNL     1      21.476   4.096  51.734  1.00  0.00     0.015 C 
BRANCH  14  15
HETATM   15  C10 UNL     1      20.584   3.279  50.886  1.00  0.00     0.143 C 
HETATM   16 CL1  UNL     1      19.255   2.666  51.930  1.00  0.00    -0.126 Cl
ENDBRANCH  14  15
BRANCH  13  17
HETATM   17  C11 UNL     1      23.722   4.502  52.775  1.00  0.00     0.178 C 
BRANCH  17  18
HETATM   18  N4  UNL     1      23.876   5.895  52.502  1.00  0.00    -0.363 N 
HETATM   19  H14 UNL     1      23.844   6.685  53.214  1.00  0.00     0.162 HD
BRANCH  18  20
HETATM   20  C12 UNL     1      24.099   6.424  51.199  1.00  0.00     0.348 C 
HETATM   21  O2  UNL     1      25.136   6.142  50.545  1.00  0.00    -0.284 OA
ENDBRANCH  18  20
ENDBRANCH  17  18
ENDBRANCH  13  17
ENDBRANCH  11  13
ENDBRANCH   7  11
BRANCH  10  22
HETATM   22  O3  UNL     1      28.072   1.691  52.600  1.00  0.00    -0.353 OA
HETATM   23  C16 UNL     1      28.628   2.539  53.584  1.00  0.00     0.210 C 
ENDBRANCH  10  22
BRANCH   1  24
HETATM   24  O1  UNL     1      28.083  -0.567  54.146  1.00  0.00    -0.353 OA
HETATM   25  C1  UNL     1      28.884  -1.436  53.368  1.00  0.00     0.210 C 
ENDBRANCH   1  24
TORSDOF 8
ENDMDL
MODEL 4
REMARK VINA RESULT:      -6.3      3.752      5.776
REMARK  8 active torsions:
REMARK  status: ('A' for Active; 'I' for Inactive)
REMARK    1  A    between atoms: O1_2  and  C2_3 
REMARK    2  A    between atoms: C6_9  and  N3_10 
REMARK    3  A    between atoms: N3_10  and  C8_12 
REMARK    4  A    between atoms: C8_12  and  C11_16 
REMARK    5  A    between atoms: C9_13  and  C10_14 
REMARK    6  A    between atoms: C11_16  and  N4_17 
REMARK    7  A    between atoms: N4_17  and  C12_18 
REMARK    8  A    between atoms: C15_22  and  O3_23 
ROOT
HETATM    1  C2  UNL     1      26.011  -0.419  53.719  1.00  0.00     0.103 A 
HETATM    2  C3  UNL     1      24.967  -0.874  54.484  1.00  0.00     0.072 A 
HETATM    3  C4  UNL     1      23.678  -0.483  54.190  1.00  0.00     0.075 A 
HETATM    4  N1  UNL     1      22.685  -0.962  54.978  1.00  0.00    -0.241 NA
HETATM    5  C5  UNL     1      21.430  -0.576  54.684  1.00  0.00     0.236 A 
HETATM    6  N2  UNL     1      21.136   0.246  53.664  1.00  0.00    -0.223 NA
HETATM    7  C6  UNL     1      22.067   0.760  52.841  1.00  0.00     0.143 A 
HETATM    8  C13 UNL     1      23.364   0.358  53.149  1.00  0.00     0.042 A 
HETATM    9  C14 UNL     1      24.451   0.778  52.422  1.00  0.00     0.057 A 
HETATM   10  C15 UNL     1      25.757   0.428  52.659  1.00  0.00     0.102 A 
ENDROOT
BRANCH   7  11
HETATM   11  N3  UNL     1      21.831   1.633  51.744  1.00  0.00    -0.338 N 
HETATM   12  C7  UNL     1      21.888   1.470  50.301  1.00  0.00     0.158 C 
BRANCH  11  13
HETATM   13  C8  UNL     1      21.456   2.961  52.077  1.00  0.00     0.028 C 
HETATM   14  C9  UNL     1      20.176   3.276  52.078  1.00  0.00     0.015 C 
BRANCH  14  15
HETATM   15  C10 UNL     1      19.104   2.313  51.751  1.00  0.00     0.143 C 
HETATM   16 CL1  UNL     1      17.564   3.234  51.640  1.00  0.00    -0.126 Cl
ENDBRANCH  14  15
BRANCH  13  17
HETATM   17  C11 UNL     1      22.609   3.806  52.382  1.00  0.00     0.178 C 
BRANCH  17  18
HETATM   18  N4  UNL     1      22.403   5.215  52.277  1.00  0.00    -0.363 N 
HETATM   19  H14 UNL     1      21.834   5.821  52.941  1.00  0.00     0.162 HD
BRANCH  18  20
HETATM   20  C12 UNL     1      22.949   6.016  51.234  1.00  0.00     0.348 C 
HETATM   21  O2  UNL     1      24.158   6.365  51.240  1.00  0.00    -0.284 OA
ENDBRANCH  18  20
ENDBRANCH  17  18
ENDBRANCH  13  17
ENDBRANCH  11  13
ENDBRANCH   7  11
BRANCH  10  22
HETATM   22  O3  UNL     1      26.815   0.891  51.882  1.00  0.00    -0.353 OA
HETATM   23  C16 UNL     1      27.106   2.273  51.906  1.00  0.00     0.210 C 
ENDBRANCH  10  22
BRANCH   1  24
HETATM   24  O1  UNL     1      27.322  -0.790  53.982  1.00  0.00    -0.353 OA
HETATM   25  C1  UNL     1      28.157   0.009  54.798  1.00  0.00     0.210 C 
ENDBRANCH   1  24
TORSDOF 8
ENDMDL
MODEL 5
REMARK VINA RESULT:      -6.2      3.160      4.892
REMARK  8 active torsions:
REMARK  status: ('A' for Active; 'I' for Inactive)
REMARK    1  A    between atoms: O1_2  and  C2_3 
REMARK    2  A    between atoms: C6_9  and  N3_10 
REMARK    3  A    between atoms: N3_10  and  C8_12 
REMARK    4  A    between atoms: C8_12  and  C11_16 
REMARK    5  A    between atoms: C9_13  and  C10_14 
REMARK    6  A    between atoms: C11_16  and  N4_17 
REMARK    7  A    between atoms: N4_17  and  C12_18 
REMARK    8  A    between atoms: C15_22  and  O3_23 
ROOT
HETATM    1  C2  UNL     1      23.001  -0.318  52.904  1.00  0.00     0.103 A 
HETATM    2  C3  UNL     1      24.351  -0.169  53.108  1.00  0.00     0.072 A 
HETATM    3  C4  UNL     1      25.035   0.839  52.463  1.00  0.00     0.075 A 
HETATM    4  N1  UNL     1      26.366   0.941  52.701  1.00  0.00    -0.241 NA
HETATM    5  C5  UNL     1      27.027   1.928  52.069  1.00  0.00     0.236 A 
HETATM    6  N2  UNL     1      26.430   2.791  51.231  1.00  0.00    -0.223 NA
HETATM    7  C6  UNL     1      25.116   2.751  50.947  1.00  0.00     0.143 A 
HETATM    8  C13 UNL     1      24.436   1.730  51.604  1.00  0.00     0.042 A 
HETATM    9  C14 UNL     1      23.086   1.528  51.442  1.00  0.00     0.057 A 
HETATM   10  C15 UNL     1      22.345   0.547  52.051  1.00  0.00     0.102 A 
ENDROOT
BRANCH   7  11
HETATM   11  N3  UNL     1      24.416   3.629  50.075  1.00  0.00    -0.338 N 
HETATM   12  C7  UNL     1      23.468   3.424  48.992  1.00  0.00     0.158 C 
BRANCH  11  13
HETATM   13  C8  UNL     1      24.660   5.015  50.263  1.00  0.00     0.028 C 
HETATM   14  C9  UNL     1      24.037   5.640  51.242  1.00  0.00     0.015 C 
BRANCH  14  15
HETATM   15  C10 UNL     1      23.093   4.971  52.161  1.00  0.00     0.143 C 
HETATM   16 CL1  UNL     1      21.445   5.145  51.468  1.00  0.00    -0.126 Cl
ENDBRANCH  14  15
BRANCH  13  17
HETATM   17  C11 UNL     1      25.612   5.550  49.292  1.00  0.00     0.178 C 
BRANCH  17  18
HETATM   18  N4  UNL     1      26.992   5.291  49.554  1.00  0.00    -0.363 N 
HETATM   19  H14 UNL     1      27.476   5.348  50.499  1.00  0.00     0.162 HD
BRANCH  18  20
HETATM   20  C12 UNL     1      27.927   4.912  48.549  1.00  0.00     0.348 C 
HETATM   21  O2  UNL     1      29.116   5.320  48.573  1.00  0.00    -0.284 OA
ENDBRANCH  18  20
ENDBRANCH  17  18
ENDBRANCH  13  17
ENDBRANCH  11  13
ENDBRANCH   7  11
BRANCH  10  22
HETATM   22  O3  UNL     1      20.977   0.397  51.843  1.00  0.00    -0.353 OA
HETATM   23  C16 UNL     1      20.281   1.444  51.199  1.00  0.00     0.210 C 
ENDBRANCH  10  22
BRANCH   1  24
HETATM   24  O1  UNL     1      22.276  -1.319  53.534  1.00  0.00    -0.353 OA
HETATM   25  C1  UNL     1      21.773  -1.142  54.844  1.00  0.00     0.210 C 
ENDBRANCH   1  24
TORSDOF 8
ENDMDL
MODEL 6
REMARK VINA RESULT:      -6.1      3.577      6.263
REMARK  8 active torsions:
REMARK  status: ('A' for Active; 'I' for Inactive)
REMARK    1  A    between atoms: O1_2  and  C2_3 
REMARK    2  A    between atoms: C6_9  and  N3_10 
REMARK    3  A    between atoms: N3_10  and  C8_12 
REMARK    4  A    between atoms: C8_12  and  C11_16 
REMARK    5  A    between atoms: C9_13  and  C10_14 
REMARK    6  A    between atoms: C11_16  and  N4_17 
REMARK    7  A    between atoms: N4_17  and  C12_18 
REMARK    8  A    between atoms: C15_22  and  O3_23 
ROOT
HETATM    1  C2  UNL     1      27.146  -0.095  53.600  1.00  0.00     0.103 A 
HETATM    2  C3  UNL     1      27.496   0.856  52.674  1.00  0.00     0.072 A 
HETATM    3  C4  UNL     1      26.517   1.595  52.044  1.00  0.00     0.075 A 
HETATM    4  N1  UNL     1      26.920   2.520  51.139  1.00  0.00    -0.241 NA
HETATM    5  C5  UNL     1      25.959   3.238  50.529  1.00  0.00     0.236 A 
HETATM    6  N2  UNL     1      24.650   3.072  50.780  1.00  0.00    -0.223 NA
HETATM    7  C6  UNL     1      24.177   2.176  51.662  1.00  0.00     0.143 A 
HETATM    8  C13 UNL     1      25.174   1.436  52.292  1.00  0.00     0.042 A 
HETATM    9  C14 UNL     1      24.889   0.470  53.227  1.00  0.00     0.057 A 
HETATM   10  C15 UNL     1      25.812  -0.300  53.890  1.00  0.00     0.102 A 
ENDROOT
BRANCH   7  11
HETATM   11  N3  UNL     1      22.810   1.946  51.980  1.00  0.00    -0.338 N 
HETATM   12  C7  UNL     1      22.119   0.947  52.778  1.00  0.00     0.158 C 
BRANCH  11  13
HETATM   13  C8  UNL     1      21.881   2.863  51.422  1.00  0.00     0.028 C 
HETATM   14  C9  UNL     1      21.422   2.640  50.207  1.00  0.00     0.015 C 
BRANCH  14  15
HETATM   15  C10 UNL     1      21.824   1.477  49.390  1.00  0.00     0.143 C 
HETATM   16 CL1  UNL     1      22.624   2.105  47.908  1.00  0.00    -0.126 Cl
ENDBRANCH  14  15
BRANCH  13  17
HETATM   17  C11 UNL     1      21.568   3.962  52.334  1.00  0.00     0.178 C 
BRANCH  17  18
HETATM   18  N4  UNL     1      22.442   5.090  52.285  1.00  0.00    -0.363 N 
HETATM   19  H14 UNL     1      23.129   5.389  53.040  1.00  0.00     0.162 HD
BRANCH  18  20
HETATM   20  C12 UNL     1      22.509   5.989  51.183  1.00  0.00     0.348 C 
HETATM   21  O2  UNL     1      21.737   6.980  51.098  1.00  0.00    -0.284 OA
ENDBRANCH  18  20
ENDBRANCH  17  18
ENDBRANCH  13  17
ENDBRANCH  11  13
ENDBRANCH   7  11
BRANCH  10  22
HETATM   22  O3  UNL     1      25.454  -1.264  54.828  1.00  0.00    -0.353 OA
HETATM   23  C16 UNL     1      24.126  -1.267  55.309  1.00  0.00     0.210 C 
ENDBRANCH  10  22
BRANCH   1  24
HETATM   24  O1  UNL     1      28.100  -0.859  54.256  1.00  0.00    -0.353 OA
HETATM   25  C1  UNL     1      29.456  -0.837  53.854  1.00  0.00     0.210 C 
ENDBRANCH   1  24
TORSDOF 8
ENDMDL
MODEL 7
REMARK VINA RESULT:      -6.1      2.308      3.213
REMARK  8 active torsions:
REMARK  status: ('A' for Active; 'I' for Inactive)
REMARK    1  A    between atoms: O1_2  and  C2_3 
REMARK    2  A    between atoms: C6_9  and  N3_10 
REMARK    3  A    between atoms: N3_10  and  C8_12 
REMARK    4  A    between atoms: C8_12  and  C11_16 
REMARK    5  A    between atoms: C9_13  and  C10_14 
REMARK    6  A    between atoms: C11_16  and  N4_17 
REMARK    7  A    between atoms: N4_17  and  C12_18 
REMARK    8  A    between atoms: C15_22  and  O3_23 
ROOT
HETATM    1  C2  UNL     1      20.874   0.801  51.281  1.00  0.00     0.103 A 
HETATM    2  C3  UNL     1      20.926  -0.178  52.242  1.00  0.00     0.072 A 
HETATM    3  C4  UNL     1      22.068  -0.342  52.995  1.00  0.00     0.075 A 
HETATM    4  N1  UNL     1      22.064  -1.324  53.929  1.00  0.00    -0.241 NA
HETATM    5  C5  UNL     1      23.182  -1.478  54.661  1.00  0.00     0.236 A 
HETATM    6  N2  UNL     1      24.274  -0.712  54.501  1.00  0.00    -0.223 NA
HETATM    7  C6  UNL     1      24.351   0.278  53.596  1.00  0.00     0.143 A 
HETATM    8  C13 UNL     1      23.192   0.435  52.841  1.00  0.00     0.042 A 
HETATM    9  C14 UNL     1      23.078   1.395  51.866  1.00  0.00     0.057 A 
HETATM   10  C15 UNL     1      21.973   1.613  51.081  1.00  0.00     0.102 A 
ENDROOT
BRANCH   7  11
HETATM   11  N3  UNL     1      25.469   1.128  53.371  1.00  0.00    -0.338 N 
HETATM   12  C7  UNL     1      25.859   2.432  53.882  1.00  0.00     0.158 C 
BRANCH  11  13
HETATM   13  C8  UNL     1      26.444   0.643  52.460  1.00  0.00     0.028 C 
HETATM   14  C9  UNL     1      26.712   1.353  51.382  1.00  0.00     0.015 C 
BRANCH  14  15
HETATM   15  C10 UNL     1      26.050   2.637  51.071  1.00  0.00     0.143 C 
HETATM   16 CL1  UNL     1      26.647   3.180  49.465  1.00  0.00    -0.126 Cl
ENDBRANCH  14  15
BRANCH  13  17
HETATM   17  C11 UNL     1      27.021  -0.630  52.887  1.00  0.00     0.178 C 
BRANCH  17  18
HETATM   18  N4  UNL     1      27.552  -0.667  54.212  1.00  0.00    -0.363 N 
HETATM   19  H14 UNL     1      27.099  -1.119  55.061  1.00  0.00     0.162 HD
BRANCH  18  20
HETATM   20  C12 UNL     1      28.798  -0.084  54.579  1.00  0.00     0.348 C 
HETATM   21  O2  UNL     1      28.862   1.074  55.066  1.00  0.00    -0.284 OA
ENDBRANCH  18  20
ENDBRANCH  17  18
ENDBRANCH  13  17
ENDBRANCH  11  13
ENDBRANCH   7  11
BRANCH  10  22
HETATM   22  O3  UNL     1      21.924   2.606  50.108  1.00  0.00    -0.353 OA
HETATM   23  C16 UNL     1      22.678   2.422  48.927  1.00  0.00     0.210 C 
ENDBRANCH  10  22
BRANCH   1  24
HETATM   24  O1  UNL     1      19.743   0.999  50.502  1.00  0.00    -0.353 OA
HETATM   25  C1  UNL     1      18.451   0.721  51.007  1.00  0.00     0.210 C 
ENDBRANCH   1  24
TORSDOF 8
ENDMDL
MODEL 8
REMARK VINA RESULT:      -6.0      3.072      5.835
REMARK  8 active torsions:
REMARK  status: ('A' for Active; 'I' for Inactive)
REMARK    1  A    between atoms: O1_2  and  C2_3 
REMARK    2  A    between atoms: C6_9  and  N3_10 
REMARK    3  A    between atoms: N3_10  and  C8_12 
REMARK    4  A    between atoms: C8_12  and  C11_16 
REMARK    5  A    between atoms: C9_13  and  C10_14 
REMARK    6  A    between atoms: C11_16  and  N4_17 
REMARK    7  A    between atoms: N4_17  and  C12_18 
REMARK    8  A    between atoms: C15_22  and  O3_23 
ROOT
HETATM    1  C2  UNL     1      26.995   0.860  52.994  1.00  0.00     0.103 A 
HETATM    2  C3  UNL     1      26.252   0.038  53.803  1.00  0.00     0.072 A 
HETATM    3  C4  UNL     1      24.881  -0.011  53.659  1.00  0.00     0.075 A 
HETATM    4  N1  UNL     1      24.197  -0.840  54.484  1.00  0.00    -0.241 NA
HETATM    5  C5  UNL     1      22.860  -0.883  54.338  1.00  0.00     0.236 A 
HETATM    6  N2  UNL     1      22.199  -0.151  53.427  1.00  0.00    -0.223 NA
HETATM    7  C6  UNL     1      22.810   0.692  52.576  1.00  0.00     0.143 A 
HETATM    8  C13 UNL     1      24.193   0.733  52.731  1.00  0.00     0.042 A 
HETATM    9  C14 UNL     1      24.993   1.535  51.953  1.00  0.00     0.057 A 
HETATM   10  C15 UNL     1      26.359   1.632  52.042  1.00  0.00     0.102 A 
ENDROOT
BRANCH   7  11
HETATM   11  N3  UNL     1      22.178   1.496  51.588  1.00  0.00    -0.338 N 
HETATM   12  C7  UNL     1      22.286   1.578  50.141  1.00  0.00     0.158 C 
BRANCH  11  13
HETATM   13  C8  UNL     1      21.228   2.436  52.067  1.00  0.00     0.028 C 
HETATM   14  C9  UNL     1      21.580   3.703  52.154  1.00  0.00     0.015 C 
BRANCH  14  15
HETATM   15  C10 UNL     1      22.918   4.202  51.775  1.00  0.00     0.143 C 
HETATM   16 CL1  UNL     1      23.767   4.677  53.286  1.00  0.00    -0.126 Cl
ENDBRANCH  14  15
BRANCH  13  17
HETATM   17  C11 UNL     1      19.949   1.813  52.402  1.00  0.00     0.178 C 
BRANCH  17  18
HETATM   18  N4  UNL     1      18.938   1.869  51.395  1.00  0.00    -0.363 N 
HETATM   19  H14 UNL     1      18.659   1.081  50.737  1.00  0.00     0.162 HD
BRANCH  18  20
HETATM   20  C12 UNL     1      18.149   3.024  51.133  1.00  0.00     0.348 C 
HETATM   21  O2  UNL     1      17.754   3.774  52.063  1.00  0.00    -0.284 OA
ENDBRANCH  18  20
ENDBRANCH  17  18
ENDBRANCH  13  17
ENDBRANCH  11  13
ENDBRANCH   7  11
BRANCH  10  22
HETATM   22  O3  UNL     1      27.110   2.467  51.221  1.00  0.00    -0.353 OA
HETATM   23  C16 UNL     1      26.430   3.247  50.260  1.00  0.00     0.210 C 
ENDBRANCH  10  22
BRANCH   1  24
HETATM   24  O1  UNL     1      28.376   0.938  53.106  1.00  0.00    -0.353 OA
HETATM   25  C1  UNL     1      28.992   1.262  54.338  1.00  0.00     0.210 C 
ENDBRANCH   1  24
TORSDOF 8
ENDMDL
MODEL 9
REMARK VINA RESULT:      -6.0      2.733      4.512
REMARK  8 active torsions:
REMARK  status: ('A' for Active; 'I' for Inactive)
REMARK    1  A    between atoms: O1_2  and  C2_3 
REMARK    2  A    between atoms: C6_9  and  N3_10 
REMARK    3  A    between atoms: N3_10  and  C8_12 
REMARK    4  A    between atoms: C8_12  and  C11_16 
REMARK    5  A    between atoms: C9_13  and  C10_14 
REMARK    6  A    between atoms: C11_16  and  N4_17 
REMARK    7  A    between atoms: N4_17  and  C12_18 
REMARK    8  A    between atoms: C15_22  and  O3_23 
ROOT
HETATM    1  C2  UNL     1      20.219  -0.249  52.839  1.00  0.00     0.103 A 
HETATM    2  C3  UNL     1      20.120   0.120  51.521  1.00  0.00     0.072 A 
HETATM    3  C4  UNL     1      21.105   0.895  50.949  1.00  0.00     0.075 A 
HETATM    4  N1  UNL     1      20.956   1.230  49.643  1.00  0.00    -0.241 NA
HETATM    5  C5  UNL     1      21.923   1.986  49.091  1.00  0.00     0.236 A 
HETATM    6  N2  UNL     1      23.000   2.410  49.772  1.00  0.00    -0.223 NA
HETATM    7  C6  UNL     1      23.214   2.119  51.066  1.00  0.00     0.143 A 
HETATM    8  C13 UNL     1      22.213   1.336  51.634  1.00  0.00     0.042 A 
HETATM    9  C14 UNL     1      22.254   0.933  52.947  1.00  0.00     0.057 A 
HETATM   10  C15 UNL     1      21.309   0.163  53.579  1.00  0.00     0.102 A 
ENDROOT
BRANCH   7  11
HETATM   11  N3  UNL     1      24.328   2.530  51.849  1.00  0.00    -0.338 N 
HETATM   12  C7  UNL     1      24.486   3.443  52.969  1.00  0.00     0.158 C 
BRANCH  11  13
HETATM   13  C8  UNL     1      25.577   1.951  51.503  1.00  0.00     0.028 C 
HETATM   14  C9  UNL     1      26.386   2.620  50.706  1.00  0.00     0.015 C 
BRANCH  14  15
HETATM   15  C10 UNL     1      26.060   3.950  50.151  1.00  0.00     0.143 C 
HETATM   16 CL1  UNL     1      27.325   4.357  48.941  1.00  0.00    -0.126 Cl
ENDBRANCH  14  15
BRANCH  13  17
HETATM   17  C11 UNL     1      25.774   0.641  52.120  1.00  0.00     0.178 C 
BRANCH  17  18
HETATM   18  N4  UNL     1      26.023   0.638  53.526  1.00  0.00    -0.363 N 
HETATM   19  H14 UNL     1      25.357   0.972  54.286  1.00  0.00     0.162 HD
BRANCH  18  20
HETATM   20  C12 UNL     1      27.235   0.173  54.112  1.00  0.00     0.348 C 
HETATM   21  O2  UNL     1      27.905   0.896  54.894  1.00  0.00    -0.284 OA
ENDBRANCH  18  20
ENDBRANCH  17  18
ENDBRANCH  13  17
ENDBRANCH  11  13
ENDBRANCH   7  11
BRANCH  10  22
HETATM   22  O3  UNL     1      21.412  -0.209  54.915  1.00  0.00    -0.353 OA
HETATM   23  C16 UNL     1      22.376  -1.180  55.267  1.00  0.00     0.210 C 
ENDBRANCH  10  22
BRANCH   1  24
HETATM   24  O1  UNL     1      19.249  -1.029  53.453  1.00  0.00    -0.353 OA
HETATM   25  C1  UNL     1      17.944  -1.128  52.915  1.00  0.00     0.210 C 
ENDBRANCH   1  24
TORSDOF 8
ENDMDL
