MODEL 1
REMARK VINA RESULT:      -7.1      0.000      0.000
REMARK  8 active torsions:
REMARK  status: ('A' for Active; 'I' for Inactive)
REMARK    1  A    between atoms: N1_2  and  C2_3 
REMARK    2  A    between atoms: C2_3  and  C3_4 
REMARK    3  A    between atoms: C3_4  and  O1_5 
REMARK    4  A    between atoms: O1_5  and  C4_6 
REMARK    5  A    between atoms: C4_6  and  C5_7 
REMARK    6  A    between atoms: C5_7  and  O2_8 
REMARK    7  A    between atoms: O2_8  and  C6_9 
REMARK    8  A    between atoms: C6_9  and  C7_10 
ROOT
HETATM    1  C7  UNL     1      23.689   2.806  51.547  1.00  0.00     0.069 C 
HETATM    2  C8  UNL     1      23.853   3.862  52.557  1.00  0.00     0.003 C 
HETATM    3  C9  UNL     1      22.844   4.731  52.721  1.00  0.00     0.106 C 
HETATM    4  N2  UNL     1      21.739   4.449  51.831  1.00  0.00    -0.289 N 
HETATM    5  N3  UNL     1      20.582   3.697  52.073  1.00  0.00    -0.167 NA
HETATM    6  C10 UNL     1      20.162   2.743  51.315  1.00  0.00     0.279 C 
HETATM    7  N4  UNL     1      20.757   2.257  50.102  1.00  0.00    -0.141 NA
HETATM    8  N5  UNL     1      21.693   1.378  50.128  1.00  0.00    -0.149 NA
HETATM    9  C11 UNL     1      22.073   0.945  51.438  1.00  0.00     0.087 A 
HETATM   10  C12 UNL     1      21.405  -0.168  51.906  1.00  0.00     0.050 A 
HETATM   11  C13 UNL     1      21.701  -0.662  53.161  1.00  0.00     0.022 A 
HETATM   12  C14 UNL     1      21.218  -1.734  53.896  1.00  0.00     0.161 A 
HETATM   13  N6  UNL     1      21.912  -1.684  55.046  1.00  0.00    -0.140 NA
HETATM   14  O3  UNL     1      22.739  -0.683  55.027  1.00  0.00    -0.213 OA
HETATM   15  C15 UNL     1      22.675  -0.007  53.911  1.00  0.00     0.113 A 
HETATM   16  C16 UNL     1      23.328   1.103  53.425  1.00  0.00     0.050 A 
HETATM   17  C17 UNL     1      23.039   1.601  52.174  1.00  0.00    -0.015 A 
HETATM   18  H18 UNL     1      21.644   4.777  50.842  1.00  0.00     0.188 HD
ENDROOT
BRANCH   1  19
HETATM   19  C6  UNL     1      24.887   2.452  50.755  1.00  0.00     0.181 C 
BRANCH  19  20
HETATM   20  O2  UNL     1      26.122   2.772  51.186  1.00  0.00    -0.388 OA
BRANCH  20  21
HETATM   21  C5  UNL     1      26.869   1.744  51.722  1.00  0.00     0.193 C 
BRANCH  21  22
HETATM   22  C4  UNL     1      27.526   2.169  53.027  1.00  0.00     0.193 C 
BRANCH  22  23
HETATM   23  O1  UNL     1      26.773   1.882  54.133  1.00  0.00    -0.387 OA
BRANCH  23  24
HETATM   24  C3  UNL     1      26.804   0.562  54.517  1.00  0.00     0.197 C 
BRANCH  24  25
HETATM   25  C2  UNL     1      28.260   0.192  54.849  1.00  0.00     0.295 C 
BRANCH  25  26
HETATM   26  N1  UNL     1      28.599  -0.995  54.109  1.00  0.00     0.081 N 
HETATM   27  C1  UNL     1      29.930  -0.749  53.530  1.00  0.00     0.306 C 
HETATM   28  H4  UNL     1      27.938  -1.095  53.319  1.00  0.00     0.315 HD
ENDBRANCH  25  26
ENDBRANCH  24  25
ENDBRANCH  23  24
ENDBRANCH  22  23
ENDBRANCH  21  22
ENDBRANCH  20  21
ENDBRANCH  19  20
ENDBRANCH   1  19
TORSDOF 8
ENDMDL
MODEL 2
REMARK VINA RESULT:      -6.8      2.608      5.982
REMARK  8 active torsions:
REMARK  status: ('A' for Active; 'I' for Inactive)
REMARK    1  A    between atoms: N1_2  and  C2_3 
REMARK    2  A    between atoms: C2_3  and  C3_4 
REMARK    3  A    between atoms: C3_4  and  O1_5 
REMARK    4  A    between atoms: O1_5  and  C4_6 
REMARK    5  A    between atoms: C4_6  and  C5_7 
REMARK    6  A    between atoms: C5_7  and  O2_8 
REMARK    7  A    between atoms: O2_8  and  C6_9 
REMARK    8  A    between atoms: C6_9  and  C7_10 
ROOT
HETATM    1  C7  UNL     1      21.884   1.995  51.726  1.00  0.00     0.069 C 
HETATM    2  C8  UNL     1      21.672   1.079  50.596  1.00  0.00     0.003 C 
HETATM    3  C9  UNL     1      22.204   1.415  49.410  1.00  0.00     0.106 C 
HETATM    4  N2  UNL     1      22.916   2.672  49.476  1.00  0.00    -0.289 N 
HETATM    5  N3  UNL     1      24.282   2.902  49.688  1.00  0.00    -0.167 NA
HETATM    6  C10 UNL     1      24.756   3.707  50.576  1.00  0.00     0.279 C 
HETATM    7  N4  UNL     1      24.023   4.517  51.508  1.00  0.00    -0.141 NA
HETATM    8  N5  UNL     1      23.625   4.041  52.632  1.00  0.00    -0.149 NA
HETATM    9  C11 UNL     1      23.969   2.670  52.858  1.00  0.00     0.087 A 
HETATM   10  C12 UNL     1      25.163   2.465  53.519  1.00  0.00     0.050 A 
HETATM   11  C13 UNL     1      25.582   1.176  53.783  1.00  0.00     0.022 A 
HETATM   12  C14 UNL     1      26.702   0.653  54.412  1.00  0.00     0.161 A 
HETATM   13  N6  UNL     1      26.524  -0.678  54.349  1.00  0.00    -0.140 NA
HETATM   14  O3  UNL     1      25.408  -0.952  53.743  1.00  0.00    -0.213 OA
HETATM   15  C15 UNL     1      24.771   0.123  53.365  1.00  0.00     0.113 A 
HETATM   16  C16 UNL     1      23.584   0.351  52.706  1.00  0.00     0.050 A 
HETATM   17  C17 UNL     1      23.159   1.634  52.440  1.00  0.00    -0.015 A 
HETATM   18  H18 UNL     1      22.497   3.626  49.374  1.00  0.00     0.188 HD
ENDROOT
BRANCH   1  19
HETATM   19  C6  UNL     1      20.749   2.177  52.656  1.00  0.00     0.181 C 
BRANCH  19  20
HETATM   20  O2  UNL     1      19.986   3.286  52.611  1.00  0.00    -0.388 OA
BRANCH  20  21
HETATM   21  C5  UNL     1      19.450   3.610  51.381  1.00  0.00     0.193 C 
BRANCH  21  22
HETATM   22  C4  UNL     1      19.977   4.951  50.893  1.00  0.00     0.193 C 
BRANCH  22  23
HETATM   23  O1  UNL     1      20.934   4.838  49.922  1.00  0.00    -0.387 OA
BRANCH  23  24
HETATM   24  C3  UNL     1      21.525   6.027  49.563  1.00  0.00     0.197 C 
BRANCH  24  25
HETATM   25  C2  UNL     1      21.451   6.983  50.766  1.00  0.00     0.295 C 
BRANCH  25  26
HETATM   26  N1  UNL     1      22.777   7.126  51.306  1.00  0.00     0.081 N 
HETATM   27  C1  UNL     1      23.518   7.970  50.354  1.00  0.00     0.306 C 
HETATM   28  H4  UNL     1      23.236   6.198  51.310  1.00  0.00     0.315 HD
ENDBRANCH  25  26
ENDBRANCH  24  25
ENDBRANCH  23  24
ENDBRANCH  22  23
ENDBRANCH  21  22
ENDBRANCH  20  21
ENDBRANCH  19  20
ENDBRANCH   1  19
TORSDOF 8
ENDMDL
MODEL 3
REMARK VINA RESULT:      -6.8      3.414      7.414
REMARK  8 active torsions:
REMARK  status: ('A' for Active; 'I' for Inactive)
REMARK    1  A    between atoms: N1_2  and  C2_3 
REMARK    2  A    between atoms: C2_3  and  C3_4 
REMARK    3  A    between atoms: C3_4  and  O1_5 
REMARK    4  A    between atoms: O1_5  and  C4_6 
REMARK    5  A    between atoms: C4_6  and  C5_7 
REMARK    6  A    between atoms: C5_7  and  O2_8 
REMARK    7  A    between atoms: O2_8  and  C6_9 
REMARK    8  A    between atoms: C6_9  and  C7_10 
ROOT
HETATM    1  C7  UNL     1      21.638   1.897  51.707  1.00  0.00     0.069 C 
HETATM    2  C8  UNL     1      21.419   0.938  50.614  1.00  0.00     0.003 C 
HETATM    3  C9  UNL     1      21.891   1.257  49.399  1.00  0.00     0.106 C 
HETATM    4  N2  UNL     1      22.554   2.542  49.399  1.00  0.00    -0.289 N 
HETATM    5  N3  UNL     1      23.917   2.831  49.549  1.00  0.00    -0.167 NA
HETATM    6  C10 UNL     1      24.392   3.682  50.393  1.00  0.00     0.279 C 
HETATM    7  N4  UNL     1      23.664   4.492  51.328  1.00  0.00    -0.141 NA
HETATM    8  N5  UNL     1      23.329   4.036  52.481  1.00  0.00    -0.149 NA
HETATM    9  C11 UNL     1      23.737   2.688  52.734  1.00  0.00     0.087 A 
HETATM   10  C12 UNL     1      24.962   2.550  53.353  1.00  0.00     0.050 A 
HETATM   11  C13 UNL     1      25.443   1.287  53.638  1.00  0.00     0.022 A 
HETATM   12  C14 UNL     1      26.606   0.829  54.237  1.00  0.00     0.161 A 
HETATM   13  N6  UNL     1      26.479  -0.510  54.222  1.00  0.00    -0.140 NA
HETATM   14  O3  UNL     1      25.353  -0.846  53.670  1.00  0.00    -0.213 OA
HETATM   15  C15 UNL     1      24.659   0.192  53.285  1.00  0.00     0.113 A 
HETATM   16  C16 UNL     1      23.439   0.352  52.667  1.00  0.00     0.050 A 
HETATM   17  C17 UNL     1      22.953   1.608  52.380  1.00  0.00    -0.015 A 
HETATM   18  H18 UNL     1      22.094   3.475  49.284  1.00  0.00     0.188 HD
ENDROOT
BRANCH   1  19
HETATM   19  C6  UNL     1      20.533   2.064  52.676  1.00  0.00     0.181 C 
BRANCH  19  20
HETATM   20  O2  UNL     1      19.797   3.191  52.700  1.00  0.00    -0.388 OA
BRANCH  20  21
HETATM   21  C5  UNL     1      19.581   3.808  51.485  1.00  0.00     0.193 C 
BRANCH  21  22
HETATM   22  C4  UNL     1      18.097   3.859  51.155  1.00  0.00     0.193 C 
BRANCH  22  23
HETATM   23  O1  UNL     1      17.295   3.920  52.261  1.00  0.00    -0.387 OA
BRANCH  23  24
HETATM   24  C3  UNL     1      15.949   3.835  51.995  1.00  0.00     0.197 C 
BRANCH  24  25
HETATM   25  C2  UNL     1      15.182   4.332  53.232  1.00  0.00     0.295 C 
BRANCH  25  26
HETATM   26  N1  UNL     1      14.129   3.392  53.513  1.00  0.00     0.081 N 
HETATM   27  C1  UNL     1      12.956   4.195  53.896  1.00  0.00     0.306 C 
HETATM   28  H4  UNL     1      14.396   2.831  54.341  1.00  0.00     0.315 HD
ENDBRANCH  25  26
ENDBRANCH  24  25
ENDBRANCH  23  24
ENDBRANCH  22  23
ENDBRANCH  21  22
ENDBRANCH  20  21
ENDBRANCH  19  20
ENDBRANCH   1  19
TORSDOF 8
ENDMDL
MODEL 4
REMARK VINA RESULT:      -6.5      3.676      6.177
REMARK  8 active torsions:
REMARK  status: ('A' for Active; 'I' for Inactive)
REMARK    1  A    between atoms: N1_2  and  C2_3 
REMARK    2  A    between atoms: C2_3  and  C3_4 
REMARK    3  A    between atoms: C3_4  and  O1_5 
REMARK    4  A    between atoms: O1_5  and  C4_6 
REMARK    5  A    between atoms: C4_6  and  C5_7 
REMARK    6  A    between atoms: C5_7  and  O2_8 
REMARK    7  A    between atoms: O2_8  and  C6_9 
REMARK    8  A    between atoms: C6_9  and  C7_10 
ROOT
HETATM    1  C7  UNL     1      23.933   4.109  50.382  1.00  0.00     0.069 C 
HETATM    2  C8  UNL     1      23.677   2.869  49.635  1.00  0.00     0.003 C 
HETATM    3  C9  UNL     1      22.865   2.939  48.569  1.00  0.00     0.106 C 
HETATM    4  N2  UNL     1      22.377   4.283  48.350  1.00  0.00    -0.289 N 
HETATM    5  N3  UNL     1      22.887   5.280  47.509  1.00  0.00    -0.167 NA
HETATM    6  C10 UNL     1      23.150   6.485  47.885  1.00  0.00     0.279 C 
HETATM    7  N4  UNL     1      22.986   7.053  49.193  1.00  0.00    -0.141 NA
HETATM    8  N5  UNL     1      23.896   6.928  50.091  1.00  0.00    -0.149 NA
HETATM    9  C11 UNL     1      25.050   6.191  49.675  1.00  0.00     0.087 A 
HETATM   10  C12 UNL     1      26.075   6.951  49.149  1.00  0.00     0.050 A 
HETATM   11  C13 UNL     1      27.231   6.331  48.719  1.00  0.00     0.022 A 
HETATM   12  C14 UNL     1      28.408   6.803  48.159  1.00  0.00     0.161 A 
HETATM   13  N6  UNL     1      29.147   5.697  47.963  1.00  0.00    -0.140 NA
HETATM   14  O3  UNL     1      28.494   4.646  48.361  1.00  0.00    -0.213 OA
HETATM   15  C15 UNL     1      27.315   4.945  48.836  1.00  0.00     0.113 A 
HETATM   16  C16 UNL     1      26.280   4.206  49.363  1.00  0.00     0.050 A 
HETATM   17  C17 UNL     1      25.124   4.818  49.795  1.00  0.00    -0.015 A 
HETATM   18  H18 UNL     1      21.543   4.719  48.808  1.00  0.00     0.188 HD
ENDROOT
BRANCH   1  19
HETATM   19  C6  UNL     1      24.017   3.992  51.855  1.00  0.00     0.181 C 
BRANCH  19  20
HETATM   20  O2  UNL     1      23.646   2.860  52.482  1.00  0.00    -0.388 OA
BRANCH  20  21
HETATM   21  C5  UNL     1      24.658   2.120  53.058  1.00  0.00     0.193 C 
BRANCH  21  22
HETATM   22  C4  UNL     1      24.571   0.659  52.642  1.00  0.00     0.193 C 
BRANCH  22  23
HETATM   23  O1  UNL     1      25.585  -0.111  53.141  1.00  0.00    -0.387 OA
BRANCH  23  24
HETATM   24  C3  UNL     1      26.669  -0.238  52.304  1.00  0.00     0.197 C 
BRANCH  24  25
HETATM   25  C2  UNL     1      27.812  -0.895  53.095  1.00  0.00     0.295 C 
BRANCH  25  26
HETATM   26  N1  UNL     1      27.657  -0.543  54.482  1.00  0.00     0.081 N 
HETATM   27  C1  UNL     1      28.697   0.458  54.768  1.00  0.00     0.306 C 
HETATM   28  H4  UNL     1      27.869  -1.374  55.062  1.00  0.00     0.315 HD
ENDBRANCH  25  26
ENDBRANCH  24  25
ENDBRANCH  23  24
ENDBRANCH  22  23
ENDBRANCH  21  22
ENDBRANCH  20  21
ENDBRANCH  19  20
ENDBRANCH   1  19
TORSDOF 8
ENDMDL
MODEL 5
REMARK VINA RESULT:      -6.5      3.256      4.699
REMARK  8 active torsions:
REMARK  status: ('A' for Active; 'I' for Inactive)
REMARK    1  A    between atoms: N1_2  and  C2_3 
REMARK    2  A    between atoms: C2_3  and  C3_4 
REMARK    3  A    between atoms: C3_4  and  O1_5 
REMARK    4  A    between atoms: O1_5  and  C4_6 
REMARK    5  A    between atoms: C4_6  and  C5_7 
REMARK    6  A    between atoms: C5_7  and  O2_8 
REMARK    7  A    between atoms: O2_8  and  C6_9 
REMARK    8  A    between atoms: C6_9  and  C7_10 
ROOT
HETATM    1  C7  UNL     1      23.085   3.237  50.838  1.00  0.00     0.069 C 
HETATM    2  C8  UNL     1      22.919   4.575  51.423  1.00  0.00     0.003 C 
HETATM    3  C9  UNL     1      21.796   4.819  52.117  1.00  0.00     0.106 C 
HETATM    4  N2  UNL     1      20.926   3.664  52.156  1.00  0.00    -0.289 N 
HETATM    5  N3  UNL     1      20.824   2.669  53.137  1.00  0.00    -0.167 NA
HETATM    6  C10 UNL     1      20.874   1.404  52.899  1.00  0.00     0.279 C 
HETATM    7  N4  UNL     1      21.037   0.755  51.629  1.00  0.00    -0.141 NA
HETATM    8  N5  UNL     1      22.204   0.559  51.128  1.00  0.00    -0.149 NA
HETATM    9  C11 UNL     1      23.288   1.035  51.931  1.00  0.00     0.087 A 
HETATM   10  C12 UNL     1      23.822   0.111  52.805  1.00  0.00     0.050 A 
HETATM   11  C13 UNL     1      24.873   0.477  53.624  1.00  0.00     0.022 A 
HETATM   12  C14 UNL     1      25.607  -0.203  54.583  1.00  0.00     0.161 A 
HETATM   13  N6  UNL     1      26.494   0.706  55.024  1.00  0.00    -0.140 NA
HETATM   14  O3  UNL     1      26.326   1.834  54.403  1.00  0.00    -0.213 OA
HETATM   15  C15 UNL     1      25.355   1.780  53.530  1.00  0.00     0.113 A 
HETATM   16  C16 UNL     1      24.807   2.686  52.651  1.00  0.00     0.050 A 
HETATM   17  C17 UNL     1      23.759   2.328  51.830  1.00  0.00    -0.015 A 
HETATM   18  H18 UNL     1      20.223   3.396  51.429  1.00  0.00     0.188 HD
ENDROOT
BRANCH   1  19
HETATM   19  C6  UNL     1      23.709   3.171  49.498  1.00  0.00     0.181 C 
BRANCH  19  20
HETATM   20  O2  UNL     1      24.614   4.089  49.110  1.00  0.00    -0.388 OA
BRANCH  20  21
HETATM   21  C5  UNL     1      25.938   3.781  49.344  1.00  0.00     0.193 C 
BRANCH  21  22
HETATM   22  C4  UNL     1      26.841   4.961  49.012  1.00  0.00     0.193 C 
BRANCH  22  23
HETATM   23  O1  UNL     1      28.101   4.591  48.631  1.00  0.00    -0.387 OA
BRANCH  23  24
HETATM   24  C3  UNL     1      28.922   5.639  48.285  1.00  0.00     0.197 C 
BRANCH  24  25
HETATM   25  C2  UNL     1      28.083   6.928  48.284  1.00  0.00     0.295 C 
BRANCH  25  26
HETATM   26  N1  UNL     1      28.679   7.850  49.214  1.00  0.00     0.081 N 
HETATM   27  C1  UNL     1      30.025   8.143  48.693  1.00  0.00     0.306 C 
HETATM   28  H4  UNL     1      28.804   7.371  50.123  1.00  0.00     0.315 HD
ENDBRANCH  25  26
ENDBRANCH  24  25
ENDBRANCH  23  24
ENDBRANCH  22  23
ENDBRANCH  21  22
ENDBRANCH  20  21
ENDBRANCH  19  20
ENDBRANCH   1  19
TORSDOF 8
ENDMDL
MODEL 6
REMARK VINA RESULT:      -6.3      9.379     12.987
REMARK  8 active torsions:
REMARK  status: ('A' for Active; 'I' for Inactive)
REMARK    1  A    between atoms: N1_2  and  C2_3 
REMARK    2  A    between atoms: C2_3  and  C3_4 
REMARK    3  A    between atoms: C3_4  and  O1_5 
REMARK    4  A    between atoms: O1_5  and  C4_6 
REMARK    5  A    between atoms: C4_6  and  C5_7 
REMARK    6  A    between atoms: C5_7  and  O2_8 
REMARK    7  A    between atoms: O2_8  and  C6_9 
REMARK    8  A    between atoms: C6_9  and  C7_10 
ROOT
HETATM    1  C7  UNL     1      32.995   5.634  48.153  1.00  0.00     0.069 C 
HETATM    2  C8  UNL     1      34.158   6.196  48.855  1.00  0.00     0.003 C 
HETATM    3  C9  UNL     1      35.186   5.374  49.118  1.00  0.00     0.106 C 
HETATM    4  N2  UNL     1      34.939   4.032  48.638  1.00  0.00    -0.289 N 
HETATM    5  N3  UNL     1      35.320   3.447  47.423  1.00  0.00    -0.167 NA
HETATM    6  C10 UNL     1      34.514   2.829  46.629  1.00  0.00     0.279 C 
HETATM    7  N4  UNL     1      33.106   2.611  46.801  1.00  0.00    -0.141 NA
HETATM    8  N5  UNL     1      32.248   3.498  46.446  1.00  0.00    -0.149 NA
HETATM    9  C11 UNL     1      32.812   4.686  45.882  1.00  0.00     0.087 A 
HETATM   10  C12 UNL     1      32.947   4.679  44.510  1.00  0.00     0.050 A 
HETATM   11  C13 UNL     1      33.483   5.781  43.872  1.00  0.00     0.022 A 
HETATM   12  C14 UNL     1      33.741   6.073  42.542  1.00  0.00     0.161 A 
HETATM   13  N6  UNL     1      34.267   7.311  42.573  1.00  0.00    -0.140 NA
HETATM   14  O3  UNL     1      34.329   7.740  43.797  1.00  0.00    -0.213 OA
HETATM   15  C15 UNL     1      33.869   6.867  44.654  1.00  0.00     0.113 A 
HETATM   16  C16 UNL     1      33.727   6.852  46.023  1.00  0.00     0.050 A 
HETATM   17  C17 UNL     1      33.193   5.757  46.665  1.00  0.00    -0.015 A 
HETATM   18  H18 UNL     1      34.421   3.279  49.147  1.00  0.00     0.188 HD
ENDROOT
BRANCH   1  19
HETATM   19  C6  UNL     1      31.664   6.111  48.586  1.00  0.00     0.181 C 
BRANCH  19  20
HETATM   20  O2  UNL     1      30.630   5.257  48.713  1.00  0.00    -0.388 OA
BRANCH  20  21
HETATM   21  C5  UNL     1      29.423   5.675  48.192  1.00  0.00     0.193 C 
BRANCH  21  22
HETATM   22  C4  UNL     1      29.609   6.882  47.284  1.00  0.00     0.193 C 
BRANCH  22  23
HETATM   23  O1  UNL     1      28.471   7.621  47.122  1.00  0.00    -0.387 OA
BRANCH  23  24
HETATM   24  C3  UNL     1      27.980   8.175  48.281  1.00  0.00     0.197 C 
BRANCH  24  25
HETATM   25  C2  UNL     1      29.021   9.173  48.815  1.00  0.00     0.295 C 
BRANCH  25  26
HETATM   26  N1  UNL     1      28.679   9.491  50.176  1.00  0.00     0.081 N 
HETATM   27  C1  UNL     1      27.242   9.200  50.314  1.00  0.00     0.306 C 
HETATM   28  H4  UNL     1      28.797  10.509  50.320  1.00  0.00     0.315 HD
ENDBRANCH  25  26
ENDBRANCH  24  25
ENDBRANCH  23  24
ENDBRANCH  22  23
ENDBRANCH  21  22
ENDBRANCH  20  21
ENDBRANCH  19  20
ENDBRANCH   1  19
TORSDOF 8
ENDMDL
MODEL 7
REMARK VINA RESULT:      -6.3      2.518      5.476
REMARK  8 active torsions:
REMARK  status: ('A' for Active; 'I' for Inactive)
REMARK    1  A    between atoms: N1_2  and  C2_3 
REMARK    2  A    between atoms: C2_3  and  C3_4 
REMARK    3  A    between atoms: C3_4  and  O1_5 
REMARK    4  A    between atoms: O1_5  and  C4_6 
REMARK    5  A    between atoms: C4_6  and  C5_7 
REMARK    6  A    between atoms: C5_7  and  O2_8 
REMARK    7  A    between atoms: O2_8  and  C6_9 
REMARK    8  A    between atoms: C6_9  and  C7_10 
ROOT
HETATM    1  C7  UNL     1      21.922   2.805  50.793  1.00  0.00     0.069 C 
HETATM    2  C8  UNL     1      21.905   2.031  49.542  1.00  0.00     0.003 C 
HETATM    3  C9  UNL     1      22.678   2.459  48.532  1.00  0.00     0.106 C 
HETATM    4  N2  UNL     1      23.413   3.654  48.885  1.00  0.00    -0.289 N 
HETATM    5  N3  UNL     1      24.716   3.771  49.386  1.00  0.00    -0.167 NA
HETATM    6  C10 UNL     1      25.034   4.444  50.438  1.00  0.00     0.279 C 
HETATM    7  N4  UNL     1      24.163   5.193  51.298  1.00  0.00    -0.141 NA
HETATM    8  N5  UNL     1      23.527   4.625  52.258  1.00  0.00    -0.149 NA
HETATM    9  C11 UNL     1      23.762   3.219  52.383  1.00  0.00     0.087 A 
HETATM   10  C12 UNL     1      24.789   2.868  53.235  1.00  0.00     0.050 A 
HETATM   11  C13 UNL     1      25.093   1.533  53.421  1.00  0.00     0.022 A 
HETATM   12  C14 UNL     1      26.041   0.876  54.190  1.00  0.00     0.161 A 
HETATM   13  N6  UNL     1      25.825  -0.427  53.937  1.00  0.00    -0.140 NA
HETATM   14  O3  UNL     1      24.844  -0.562  53.096  1.00  0.00    -0.213 OA
HETATM   15  C15 UNL     1      24.341   0.586  52.731  1.00  0.00     0.113 A 
HETATM   16  C16 UNL     1      23.322   0.959  51.884  1.00  0.00     0.050 A 
HETATM   17  C17 UNL     1      23.011   2.288  51.694  1.00  0.00    -0.015 A 
HETATM   18  H18 UNL     1      23.063   4.637  48.816  1.00  0.00     0.188 HD
ENDROOT
BRANCH   1  19
HETATM   19  C6  UNL     1      20.631   2.956  51.498  1.00  0.00     0.181 C 
BRANCH  19  20
HETATM   20  O2  UNL     1      19.464   2.757  50.857  1.00  0.00    -0.388 OA
BRANCH  20  21
HETATM   21  C5  UNL     1      18.586   1.870  51.446  1.00  0.00     0.193 C 
BRANCH  21  22
HETATM   22  C4  UNL     1      19.235   0.507  51.640  1.00  0.00     0.193 C 
BRANCH  22  23
HETATM   23  O1  UNL     1      18.626  -0.254  52.598  1.00  0.00    -0.387 OA
BRANCH  23  24
HETATM   24  C3  UNL     1      19.489  -0.844  53.492  1.00  0.00     0.197 C 
BRANCH  24  25
HETATM   25  C2  UNL     1      20.402   0.250  54.071  1.00  0.00     0.295 C 
BRANCH  25  26
HETATM   26  N1  UNL     1      21.327  -0.375  54.980  1.00  0.00     0.081 N 
HETATM   27  C1  UNL     1      21.686  -1.667  54.372  1.00  0.00     0.306 C 
HETATM   28  H4  UNL     1      20.834  -0.583  55.866  1.00  0.00     0.315 HD
ENDBRANCH  25  26
ENDBRANCH  24  25
ENDBRANCH  23  24
ENDBRANCH  22  23
ENDBRANCH  21  22
ENDBRANCH  20  21
ENDBRANCH  19  20
ENDBRANCH   1  19
TORSDOF 8
ENDMDL
MODEL 8
REMARK VINA RESULT:      -6.1      3.079      5.798
REMARK  8 active torsions:
REMARK  status: ('A' for Active; 'I' for Inactive)
REMARK    1  A    between atoms: N1_2  and  C2_3 
REMARK    2  A    between atoms: C2_3  and  C3_4 
REMARK    3  A    between atoms: C3_4  and  O1_5 
REMARK    4  A    between atoms: O1_5  and  C4_6 
REMARK    5  A    between atoms: C4_6  and  C5_7 
REMARK    6  A    between atoms: C5_7  and  O2_8 
REMARK    7  A    between atoms: O2_8  and  C6_9 
REMARK    8  A    between atoms: C6_9  and  C7_10 
ROOT
HETATM    1  C7  UNL     1      23.558   3.259  50.110  1.00  0.00     0.069 C 
HETATM    2  C8  UNL     1      23.321   2.805  48.732  1.00  0.00     0.003 C 
HETATM    3  C9  UNL     1      22.208   3.234  48.116  1.00  0.00     0.106 C 
HETATM    4  N2  UNL     1      21.420   4.098  48.967  1.00  0.00    -0.289 N 
HETATM    5  N3  UNL     1      21.419   5.497  49.043  1.00  0.00    -0.167 NA
HETATM    6  C10 UNL     1      21.547   6.166  50.137  1.00  0.00     0.279 C 
HETATM    7  N4  UNL     1      21.711   5.652  51.468  1.00  0.00    -0.141 NA
HETATM    8  N5  UNL     1      22.871   5.331  51.917  1.00  0.00    -0.149 NA
HETATM    9  C11 UNL     1      23.947   5.529  50.995  1.00  0.00     0.087 A 
HETATM   10  C12 UNL     1      24.571   6.756  51.073  1.00  0.00     0.050 A 
HETATM   11  C13 UNL     1      25.621   7.042  50.222  1.00  0.00     0.022 A 
HETATM   12  C14 UNL     1      26.432   8.154  50.057  1.00  0.00     0.161 A 
HETATM   13  N6  UNL     1      27.269   7.807  49.064  1.00  0.00    -0.140 NA
HETATM   14  O3  UNL     1      27.003   6.604  48.654  1.00  0.00    -0.213 OA
HETATM   15  C15 UNL     1      26.011   6.064  49.310  1.00  0.00     0.113 A 
HETATM   16  C16 UNL     1      25.373   4.846  49.248  1.00  0.00     0.050 A 
HETATM   17  C17 UNL     1      24.325   4.554  50.094  1.00  0.00    -0.015 A 
HETATM   18  H18 UNL     1      20.713   3.791  49.674  1.00  0.00     0.188 HD
ENDROOT
BRANCH   1  19
HETATM   19  C6  UNL     1      24.140   2.271  51.044  1.00  0.00     0.181 C 
BRANCH  19  20
HETATM   20  O2  UNL     1      23.384   1.291  51.576  1.00  0.00    -0.388 OA
BRANCH  20  21
HETATM   21  C5  UNL     1      23.409   1.178  52.951  1.00  0.00     0.193 C 
BRANCH  21  22
HETATM   22  C4  UNL     1      23.883  -0.204  53.377  1.00  0.00     0.193 C 
BRANCH  22  23
HETATM   23  O1  UNL     1      25.024  -0.179  54.131  1.00  0.00    -0.387 OA
BRANCH  23  24
HETATM   24  C3  UNL     1      26.149  -0.626  53.478  1.00  0.00     0.197 C 
BRANCH  24  25
HETATM   25  C2  UNL     1      27.034   0.590  53.158  1.00  0.00     0.295 C 
BRANCH  25  26
HETATM   26  N1  UNL     1      27.531   1.120  54.400  1.00  0.00     0.081 N 
HETATM   27  C1  UNL     1      28.550   0.168  54.872  1.00  0.00     0.306 C 
HETATM   28  H4  UNL     1      26.765   1.113  55.095  1.00  0.00     0.315 HD
ENDBRANCH  25  26
ENDBRANCH  24  25
ENDBRANCH  23  24
ENDBRANCH  22  23
ENDBRANCH  21  22
ENDBRANCH  20  21
ENDBRANCH  19  20
ENDBRANCH   1  19
TORSDOF 8
ENDMDL
MODEL 9
REMARK VINA RESULT:      -6.1      3.192      6.948
REMARK  8 active torsions:
REMARK  status: ('A' for Active; 'I' for Inactive)
REMARK    1  A    between atoms: N1_2  and  C2_3 
REMARK    2  A    between atoms: C2_3  and  C3_4 
REMARK    3  A    between atoms: C3_4  and  O1_5 
REMARK    4  A    between atoms: O1_5  and  C4_6 
REMARK    5  A    between atoms: C4_6  and  C5_7 
REMARK    6  A    between atoms: C5_7  and  O2_8 
REMARK    7  A    between atoms: O2_8  and  C6_9 
REMARK    8  A    between atoms: C6_9  and  C7_10 
ROOT
HETATM    1  C7  UNL     1      21.897   1.867  51.702  1.00  0.00     0.069 C 
HETATM    2  C8  UNL     1      21.739   1.047  50.493  1.00  0.00     0.003 C 
HETATM    3  C9  UNL     1      22.235   1.528  49.342  1.00  0.00     0.106 C 
HETATM    4  N2  UNL     1      22.858   2.821  49.523  1.00  0.00    -0.289 N 
HETATM    5  N3  UNL     1      24.206   3.125  49.751  1.00  0.00    -0.167 NA
HETATM    6  C10 UNL     1      24.631   3.876  50.709  1.00  0.00     0.279 C 
HETATM    7  N4  UNL     1      23.853   4.542  51.715  1.00  0.00    -0.141 NA
HETATM    8  N5  UNL     1      23.500   3.937  52.791  1.00  0.00    -0.149 NA
HETATM    9  C11 UNL     1      23.941   2.579  52.887  1.00  0.00     0.087 A 
HETATM   10  C12 UNL     1      25.153   2.397  53.522  1.00  0.00     0.050 A 
HETATM   11  C13 UNL     1      25.664   1.122  53.663  1.00  0.00     0.022 A 
HETATM   12  C14 UNL     1      26.823   0.624  54.236  1.00  0.00     0.161 A 
HETATM   13  N6  UNL     1      26.738  -0.705  54.051  1.00  0.00    -0.140 NA
HETATM   14  O3  UNL     1      25.638  -1.000  53.425  1.00  0.00    -0.213 OA
HETATM   15  C15 UNL     1      24.924   0.059  53.151  1.00  0.00     0.113 A 
HETATM   16  C16 UNL     1      23.718   0.262  52.520  1.00  0.00     0.050 A 
HETATM   17  C17 UNL     1      23.201   1.531  52.376  1.00  0.00    -0.015 A 
HETATM   18  H18 UNL     1      22.373   3.748  49.511  1.00  0.00     0.188 HD
ENDROOT
BRANCH   1  19
HETATM   19  C6  UNL     1      20.761   1.881  52.650  1.00  0.00     0.181 C 
BRANCH  19  20
HETATM   20  O2  UNL     1      20.677   0.976  53.643  1.00  0.00    -0.388 OA
BRANCH  20  21
HETATM   21  C5  UNL     1      19.888  -0.129  53.399  1.00  0.00     0.193 C 
BRANCH  21  22
HETATM   22  C4  UNL     1      18.765   0.206  52.428  1.00  0.00     0.193 C 
BRANCH  22  23
HETATM   23  O1  UNL     1      18.082  -0.893  51.986  1.00  0.00    -0.387 OA
BRANCH  23  24
HETATM   24  C3  UNL     1      16.932  -1.170  52.687  1.00  0.00     0.197 C 
BRANCH  24  25
HETATM   25  C2  UNL     1      15.955   0.001  52.489  1.00  0.00     0.295 C 
BRANCH  25  26
HETATM   26  N1  UNL     1      14.803  -0.232  53.320  1.00  0.00     0.081 N 
HETATM   27  C1  UNL     1      13.815  -0.912  52.466  1.00  0.00     0.306 C 
HETATM   28  H4  UNL     1      14.395   0.681  53.586  1.00  0.00     0.315 HD
ENDBRANCH  25  26
ENDBRANCH  24  25
ENDBRANCH  23  24
ENDBRANCH  22  23
ENDBRANCH  21  22
ENDBRANCH  20  21
ENDBRANCH  19  20
ENDBRANCH   1  19
TORSDOF 8
ENDMDL
