MODEL 1
REMARK VINA RESULT:      -8.8      0.000      0.000
REMARK  3 active torsions:
REMARK  status: ('A' for Active; 'I' for Inactive)
REMARK    1  A    between atoms: O1_2  and  C2_3 
REMARK    2  A    between atoms: C6_9  and  N3_10 
REMARK    3  A    between atoms: N3_10  and  C8_12 
ROOT
HETATM    1  C2  UNL     1      19.292  -0.715  53.032  1.00  0.00     0.051 C 
HETATM    2  C3  UNL     1      20.063  -1.381  53.844  1.00  0.00     0.065 C 
HETATM    3  C4  UNL     1      21.472  -1.147  54.123  1.00  0.00     0.074 A 
HETATM    4  N1  UNL     1      21.937  -1.655  55.280  1.00  0.00    -0.241 NA
HETATM    5  C5  UNL     1      23.244  -1.478  55.615  1.00  0.00     0.236 A 
HETATM    6  N2  UNL     1      24.129  -0.806  54.838  1.00  0.00    -0.223 NA
HETATM    7  C6  UNL     1      23.686  -0.290  53.676  1.00  0.00     0.143 A 
HETATM    8  C15 UNL     1      22.360  -0.463  53.325  1.00  0.00     0.039 A 
HETATM    9  C16 UNL     1      22.135   0.185  52.022  1.00  0.00     0.014 C 
HETATM   10  C17 UNL     1      20.909   0.538  51.608  1.00  0.00    -0.019 C 
HETATM   11  C18 UNL     1      19.579   0.439  52.172  1.00  0.00     0.091 C 
ENDROOT
BRANCH   7  12
HETATM   12  N3  UNL     1      24.667   0.409  52.916  1.00  0.00    -0.335 N 
HETATM   13  C7  UNL     1      24.429   1.475  51.963  1.00  0.00     0.158 C 
BRANCH  12  14
HETATM   14  C8  UNL     1      26.029   0.031  53.100  1.00  0.00     0.035 A 
HETATM   15  C9  UNL     1      26.946   0.828  53.777  1.00  0.00     0.030 A 
HETATM   16  C10 UNL     1      28.269   0.480  53.963  1.00  0.00     0.009 A 
HETATM   17  C11 UNL     1      28.723  -0.716  53.461  1.00  0.00    -0.062 A 
HETATM   18  C12 UNL     1      30.153  -1.060  53.680  1.00  0.00     0.048 C 
HETATM   19  C13 UNL     1      27.864  -1.548  52.782  1.00  0.00     0.009 A 
HETATM   20  C14 UNL     1      26.570  -1.148  52.630  1.00  0.00     0.030 A 
ENDBRANCH  12  14
ENDBRANCH   7  12
BRANCH   1  21
HETATM   21  O1  UNL     1      17.967  -1.200  52.990  1.00  0.00    -0.360 OA
HETATM   22  C1  UNL     1      17.614  -2.441  53.526  1.00  0.00     0.209 C 
ENDBRANCH   1  21
TORSDOF 3
ENDMDL
MODEL 2
REMARK VINA RESULT:      -8.5      4.109      5.870
REMARK  3 active torsions:
REMARK  status: ('A' for Active; 'I' for Inactive)
REMARK    1  A    between atoms: O1_2  and  C2_3 
REMARK    2  A    between atoms: C6_9  and  N3_10 
REMARK    3  A    between atoms: N3_10  and  C8_12 
ROOT
HETATM    1  C2  UNL     1      22.441  -0.033  52.546  1.00  0.00     0.051 C 
HETATM    2  C3  UNL     1      21.816   0.171  51.422  1.00  0.00     0.065 C 
HETATM    3  C4  UNL     1      22.020   1.259  50.476  1.00  0.00     0.074 A 
HETATM    4  N1  UNL     1      21.592   1.037  49.219  1.00  0.00    -0.241 NA
HETATM    5  C5  UNL     1      21.749   2.004  48.275  1.00  0.00     0.236 A 
HETATM    6  N2  UNL     1      22.323   3.206  48.527  1.00  0.00    -0.223 NA
HETATM    7  C6  UNL     1      22.758   3.451  49.777  1.00  0.00     0.143 A 
HETATM    8  C15 UNL     1      22.605   2.476  50.745  1.00  0.00     0.039 A 
HETATM    9  C16 UNL     1      23.152   2.987  52.012  1.00  0.00     0.014 C 
HETATM   10  C17 UNL     1      23.515   2.168  53.010  1.00  0.00    -0.019 C 
HETATM   11  C18 UNL     1      23.510   0.733  53.199  1.00  0.00     0.091 C 
ENDROOT
BRANCH   7  12
HETATM   12  N3  UNL     1      23.356   4.728  49.966  1.00  0.00    -0.335 N 
HETATM   13  C7  UNL     1      22.736   5.899  50.557  1.00  0.00     0.158 C 
BRANCH  12  14
HETATM   14  C8  UNL     1      24.705   4.890  49.534  1.00  0.00     0.035 A 
HETATM   15  C9  UNL     1      25.163   6.051  48.918  1.00  0.00     0.030 A 
HETATM   16  C10 UNL     1      26.464   6.226  48.491  1.00  0.00     0.009 A 
HETATM   17  C11 UNL     1      27.371   5.210  48.676  1.00  0.00    -0.062 A 
HETATM   18  C12 UNL     1      28.764   5.431  48.205  1.00  0.00     0.048 C 
HETATM   19  C13 UNL     1      26.978   4.037  49.278  1.00  0.00     0.009 A 
HETATM   20  C14 UNL     1      25.680   3.925  49.678  1.00  0.00     0.030 A 
ENDBRANCH  12  14
ENDBRANCH   7  12
BRANCH   1  21
HETATM   21  O1  UNL     1      22.003  -1.186  53.232  1.00  0.00    -0.360 OA
HETATM   22  C1  UNL     1      21.937  -1.241  54.626  1.00  0.00     0.209 C 
ENDBRANCH   1  21
TORSDOF 3
ENDMDL
MODEL 3
REMARK VINA RESULT:      -8.4      4.624      7.180
REMARK  3 active torsions:
REMARK  status: ('A' for Active; 'I' for Inactive)
REMARK    1  A    between atoms: O1_2  and  C2_3 
REMARK    2  A    between atoms: C6_9  and  N3_10 
REMARK    3  A    between atoms: N3_10  and  C8_12 
ROOT
HETATM    1  C2  UNL     1      26.586   5.916  48.818  1.00  0.00     0.051 C 
HETATM    2  C3  UNL     1      25.513   6.233  49.487  1.00  0.00     0.065 C 
HETATM    3  C4  UNL     1      24.831   5.440  50.499  1.00  0.00     0.074 A 
HETATM    4  N1  UNL     1      24.032   6.120  51.344  1.00  0.00    -0.241 NA
HETATM    5  C5  UNL     1      23.361   5.451  52.320  1.00  0.00     0.236 A 
HETATM    6  N2  UNL     1      23.447   4.110  52.499  1.00  0.00    -0.223 NA
HETATM    7  C6  UNL     1      24.239   3.409  51.666  1.00  0.00     0.143 A 
HETATM    8  C15 UNL     1      24.927   4.078  50.671  1.00  0.00     0.039 A 
HETATM    9  C16 UNL     1      25.709   3.094  49.904  1.00  0.00     0.014 C 
HETATM   10  C17 UNL     1      26.763   3.453  49.157  1.00  0.00    -0.019 C 
HETATM   11  C18 UNL     1      27.420   4.710  48.865  1.00  0.00     0.091 C 
ENDROOT
BRANCH   7  12
HETATM   12  N3  UNL     1      24.287   2.009  51.919  1.00  0.00    -0.335 N 
HETATM   13  C7  UNL     1      23.227   1.048  51.684  1.00  0.00     0.158 C 
BRANCH  12  14
HETATM   14  C8  UNL     1      25.496   1.483  52.461  1.00  0.00     0.035 A 
HETATM   15  C9  UNL     1      26.036   0.267  52.055  1.00  0.00     0.030 A 
HETATM   16  C10 UNL     1      27.204  -0.260  52.569  1.00  0.00     0.009 A 
HETATM   17  C11 UNL     1      27.885   0.441  53.535  1.00  0.00    -0.062 A 
HETATM   18  C12 UNL     1      29.140  -0.154  54.066  1.00  0.00     0.048 C 
HETATM   19  C13 UNL     1      27.401   1.650  53.979  1.00  0.00     0.009 A 
HETATM   20  C14 UNL     1      26.243   2.116  53.433  1.00  0.00     0.030 A 
ENDBRANCH  12  14
ENDBRANCH   7  12
BRANCH   1  21
HETATM   21  O1  UNL     1      26.993   6.913  47.906  1.00  0.00    -0.360 OA
HETATM   22  C1  UNL     1      28.337   7.121  47.585  1.00  0.00     0.209 C 
ENDBRANCH   1  21
TORSDOF 3
ENDMDL
MODEL 4
REMARK VINA RESULT:      -8.4      3.516      6.633
REMARK  3 active torsions:
REMARK  status: ('A' for Active; 'I' for Inactive)
REMARK    1  A    between atoms: O1_2  and  C2_3 
REMARK    2  A    between atoms: C6_9  and  N3_10 
REMARK    3  A    between atoms: N3_10  and  C8_12 
ROOT
HETATM    1  C2  UNL     1      26.703  -0.677  53.004  1.00  0.00     0.051 C 
HETATM    2  C3  UNL     1      25.559  -0.755  53.624  1.00  0.00     0.065 C 
HETATM    3  C4  UNL     1      24.363   0.039  53.384  1.00  0.00     0.074 A 
HETATM    4  N1  UNL     1      23.204  -0.491  53.822  1.00  0.00    -0.241 NA
HETATM    5  C5  UNL     1      22.041   0.188  53.633  1.00  0.00     0.236 A 
HETATM    6  N2  UNL     1      21.972   1.394  53.018  1.00  0.00    -0.223 NA
HETATM    7  C6  UNL     1      23.118   1.944  52.573  1.00  0.00     0.143 A 
HETATM    8  C15 UNL     1      24.307   1.263  52.758  1.00  0.00     0.039 A 
HETATM    9  C16 UNL     1      25.399   2.071  52.191  1.00  0.00     0.014 C 
HETATM   10  C17 UNL     1      26.580   1.531  51.856  1.00  0.00    -0.019 C 
HETATM   11  C18 UNL     1      27.139   0.197  51.909  1.00  0.00     0.091 C 
ENDROOT
BRANCH   7  12
HETATM   12  N3  UNL     1      22.969   3.205  51.931  1.00  0.00    -0.335 N 
HETATM   13  C7  UNL     1      23.020   4.511  52.560  1.00  0.00     0.158 C 
BRANCH  12  14
HETATM   14  C8  UNL     1      22.745   3.202  50.523  1.00  0.00     0.035 A 
HETATM   15  C9  UNL     1      22.926   4.330  49.729  1.00  0.00     0.030 A 
HETATM   16  C10 UNL     1      22.713   4.346  48.366  1.00  0.00     0.009 A 
HETATM   17  C11 UNL     1      22.300   3.194  47.739  1.00  0.00    -0.062 A 
HETATM   18  C12 UNL     1      22.080   3.246  46.270  1.00  0.00     0.048 C 
HETATM   19  C13 UNL     1      22.103   2.046  48.471  1.00  0.00     0.009 A 
HETATM   20  C14 UNL     1      22.330   2.094  49.813  1.00  0.00     0.030 A 
ENDBRANCH  12  14
ENDBRANCH   7  12
BRANCH   1  21
HETATM   21  O1  UNL     1      27.664  -1.594  53.481  1.00  0.00    -0.360 OA
HETATM   22  C1  UNL     1      29.035  -1.335  53.413  1.00  0.00     0.209 C 
ENDBRANCH   1  21
TORSDOF 3
ENDMDL
MODEL 5
REMARK VINA RESULT:      -8.4      1.628      3.631
REMARK  3 active torsions:
REMARK  status: ('A' for Active; 'I' for Inactive)
REMARK    1  A    between atoms: O1_2  and  C2_3 
REMARK    2  A    between atoms: C6_9  and  N3_10 
REMARK    3  A    between atoms: N3_10  and  C8_12 
ROOT
HETATM    1  C2  UNL     1      19.832  -0.996  53.483  1.00  0.00     0.051 C 
HETATM    2  C3  UNL     1      20.740  -1.538  54.244  1.00  0.00     0.065 C 
HETATM    3  C4  UNL     1      22.149  -1.181  54.338  1.00  0.00     0.074 A 
HETATM    4  N1  UNL     1      22.780  -1.559  55.466  1.00  0.00    -0.241 NA
HETATM    5  C5  UNL     1      24.097  -1.261  55.631  1.00  0.00     0.236 A 
HETATM    6  N2  UNL     1      24.831  -0.591  54.710  1.00  0.00    -0.223 NA
HETATM    7  C6  UNL     1      24.221  -0.203  53.574  1.00  0.00     0.143 A 
HETATM    8  C15 UNL     1      22.883  -0.500  53.395  1.00  0.00     0.039 A 
HETATM    9  C16 UNL     1      22.462   0.025  52.085  1.00  0.00     0.014 C 
HETATM   10  C17 UNL     1      21.173   0.253  51.794  1.00  0.00    -0.019 C 
HETATM   11  C18 UNL     1      19.927   0.103  52.515  1.00  0.00     0.091 C 
ENDROOT
BRANCH   7  12
HETATM   12  N3  UNL     1      25.051   0.502  52.657  1.00  0.00    -0.335 N 
HETATM   13  C7  UNL     1      26.259   0.010  52.024  1.00  0.00     0.158 C 
BRANCH  12  14
HETATM   14  C8  UNL     1      24.668   1.833  52.317  1.00  0.00     0.035 A 
HETATM   15  C9  UNL     1      24.640   2.296  51.005  1.00  0.00     0.030 A 
HETATM   16  C10 UNL     1      24.274   3.580  50.657  1.00  0.00     0.009 A 
HETATM   17  C11 UNL     1      23.913   4.465  51.645  1.00  0.00    -0.062 A 
HETATM   18  C12 UNL     1      23.523   5.839  51.235  1.00  0.00     0.048 C 
HETATM   19  C13 UNL     1      23.920   4.066  52.962  1.00  0.00     0.009 A 
HETATM   20  C14 UNL     1      24.291   2.785  53.242  1.00  0.00     0.030 A 
ENDBRANCH  12  14
ENDBRANCH   7  12
BRANCH   1  21
HETATM   21  O1  UNL     1      18.555  -1.578  53.632  1.00  0.00    -0.360 OA
HETATM   22  C1  UNL     1      17.478  -1.227  52.813  1.00  0.00     0.209 C 
ENDBRANCH   1  21
TORSDOF 3
ENDMDL
MODEL 6
REMARK VINA RESULT:      -8.4      1.927      3.099
REMARK  3 active torsions:
REMARK  status: ('A' for Active; 'I' for Inactive)
REMARK    1  A    between atoms: O1_2  and  C2_3 
REMARK    2  A    between atoms: C6_9  and  N3_10 
REMARK    3  A    between atoms: N3_10  and  C8_12 
ROOT
HETATM    1  C2  UNL     1      19.081  -0.544  52.584  1.00  0.00     0.051 C 
HETATM    2  C3  UNL     1      19.336   0.087  51.473  1.00  0.00     0.065 C 
HETATM    3  C4  UNL     1      20.585   0.724  51.080  1.00  0.00     0.074 A 
HETATM    4  N1  UNL     1      20.757   0.922  49.758  1.00  0.00    -0.241 NA
HETATM    5  C5  UNL     1      21.899   1.510  49.310  1.00  0.00     0.236 A 
HETATM    6  N2  UNL     1      22.899   1.919  50.129  1.00  0.00    -0.223 NA
HETATM    7  C6  UNL     1      22.749   1.732  51.454  1.00  0.00     0.143 A 
HETATM    8  C15 UNL     1      21.593   1.135  51.922  1.00  0.00     0.039 A 
HETATM    9  C16 UNL     1      21.674   1.050  53.390  1.00  0.00     0.014 C 
HETATM   10  C17 UNL     1      20.925   0.188  54.093  1.00  0.00    -0.019 C 
HETATM   11  C18 UNL     1      19.931  -0.807  53.751  1.00  0.00     0.091 C 
ENDROOT
BRANCH   7  12
HETATM   12  N3  UNL     1      23.840   2.177  52.252  1.00  0.00    -0.335 N 
HETATM   13  C7  UNL     1      23.983   3.476  52.881  1.00  0.00     0.158 C 
BRANCH  12  14
HETATM   14  C8  UNL     1      24.914   1.263  52.462  1.00  0.00     0.035 A 
HETATM   15  C9  UNL     1      26.139   1.379  51.813  1.00  0.00     0.030 A 
HETATM   16  C10 UNL     1      27.189   0.504  52.002  1.00  0.00     0.009 A 
HETATM   17  C11 UNL     1      27.036  -0.546  52.876  1.00  0.00    -0.062 A 
HETATM   18  C12 UNL     1      28.187  -1.470  53.057  1.00  0.00     0.048 C 
HETATM   19  C13 UNL     1      25.847  -0.714  53.548  1.00  0.00     0.009 A 
HETATM   20  C14 UNL     1      24.848   0.183  53.318  1.00  0.00     0.030 A 
ENDBRANCH  12  14
ENDBRANCH   7  12
BRANCH   1  21
HETATM   21  O1  UNL     1      17.765  -1.048  52.653  1.00  0.00    -0.360 OA
HETATM   22  C1  UNL     1      17.439  -2.171  53.419  1.00  0.00     0.209 C 
ENDBRANCH   1  21
TORSDOF 3
ENDMDL
MODEL 7
REMARK VINA RESULT:      -8.3      3.550      6.545
REMARK  3 active torsions:
REMARK  status: ('A' for Active; 'I' for Inactive)
REMARK    1  A    between atoms: O1_2  and  C2_3 
REMARK    2  A    between atoms: C6_9  and  N3_10 
REMARK    3  A    between atoms: N3_10  and  C8_12 
ROOT
HETATM    1  C2  UNL     1      26.454  -0.207  53.645  1.00  0.00     0.051 C 
HETATM    2  C3  UNL     1      25.241  -0.198  54.121  1.00  0.00     0.065 C 
HETATM    3  C4  UNL     1      24.016   0.162  53.422  1.00  0.00     0.074 A 
HETATM    4  N1  UNL     1      22.872  -0.309  53.955  1.00  0.00    -0.241 NA
HETATM    5  C5  UNL     1      21.684  -0.019  53.359  1.00  0.00     0.236 A 
HETATM    6  N2  UNL     1      21.576   0.732  52.235  1.00  0.00    -0.223 NA
HETATM    7  C6  UNL     1      22.707   1.213  51.685  1.00  0.00     0.143 A 
HETATM    8  C15 UNL     1      23.920   0.925  52.281  1.00  0.00     0.039 A 
HETATM    9  C16 UNL     1      24.988   1.565  51.495  1.00  0.00     0.014 C 
HETATM   10  C17 UNL     1      26.264   1.157  51.568  1.00  0.00    -0.019 C 
HETATM   11  C18 UNL     1      26.960   0.126  52.308  1.00  0.00     0.091 C 
ENDROOT
BRANCH   7  12
HETATM   12  N3  UNL     1      22.519   1.985  50.504  1.00  0.00    -0.335 N 
HETATM   13  C7  UNL     1      22.097   1.496  49.205  1.00  0.00     0.158 C 
BRANCH  12  14
HETATM   14  C8  UNL     1      22.768   3.386  50.590  1.00  0.00     0.035 A 
HETATM   15  C9  UNL     1      23.464   4.088  49.611  1.00  0.00     0.030 A 
HETATM   16  C10 UNL     1      23.716   5.444  49.677  1.00  0.00     0.009 A 
HETATM   17  C11 UNL     1      23.262   6.156  50.762  1.00  0.00    -0.062 A 
HETATM   18  C12 UNL     1      23.550   7.614  50.802  1.00  0.00     0.048 C 
HETATM   19  C13 UNL     1      22.567   5.518  51.763  1.00  0.00     0.009 A 
HETATM   20  C14 UNL     1      22.350   4.178  51.640  1.00  0.00     0.030 A 
ENDBRANCH  12  14
ENDBRANCH   7  12
BRANCH   1  21
HETATM   21  O1  UNL     1      27.424  -0.607  54.589  1.00  0.00    -0.360 OA
HETATM   22  C1  UNL     1      28.615   0.099  54.776  1.00  0.00     0.209 C 
ENDBRANCH   1  21
TORSDOF 3
ENDMDL
MODEL 8
REMARK VINA RESULT:      -8.1      3.947      5.638
REMARK  3 active torsions:
REMARK  status: ('A' for Active; 'I' for Inactive)
REMARK    1  A    between atoms: O1_2  and  C2_3 
REMARK    2  A    between atoms: C6_9  and  N3_10 
REMARK    3  A    between atoms: N3_10  and  C8_12 
ROOT
HETATM    1  C2  UNL     1      22.230   3.912  47.551  1.00  0.00     0.051 C 
HETATM    2  C3  UNL     1      22.323   4.716  48.572  1.00  0.00     0.065 C 
HETATM    3  C4  UNL     1      22.693   4.378  49.939  1.00  0.00     0.074 A 
HETATM    4  N1  UNL     1      23.140   5.397  50.699  1.00  0.00    -0.241 NA
HETATM    5  C5  UNL     1      23.508   5.162  51.988  1.00  0.00     0.236 A 
HETATM    6  N2  UNL     1      23.452   3.938  52.569  1.00  0.00    -0.223 NA
HETATM    7  C6  UNL     1      23.009   2.905  51.828  1.00  0.00     0.143 A 
HETATM    8  C15 UNL     1      22.632   3.131  50.517  1.00  0.00     0.039 A 
HETATM    9  C16 UNL     1      22.187   1.854  49.934  1.00  0.00     0.014 C 
HETATM   10  C17 UNL     1      22.144   1.656  48.608  1.00  0.00    -0.019 C 
HETATM   11  C18 UNL     1      22.459   2.466  47.450  1.00  0.00     0.091 C 
ENDROOT
BRANCH   7  12
HETATM   12  N3  UNL     1      22.985   1.651  52.499  1.00  0.00    -0.335 N 
HETATM   13  C7  UNL     1      21.826   0.994  53.073  1.00  0.00     0.158 C 
BRANCH  12  14
HETATM   14  C8  UNL     1      24.222   0.955  52.631  1.00  0.00     0.035 A 
HETATM   15  C9  UNL     1      24.420  -0.059  53.564  1.00  0.00     0.030 A 
HETATM   16  C10 UNL     1      25.611  -0.742  53.708  1.00  0.00     0.009 A 
HETATM   17  C11 UNL     1      26.670  -0.419  52.894  1.00  0.00    -0.062 A 
HETATM   18  C12 UNL     1      27.937  -1.175  53.074  1.00  0.00     0.048 C 
HETATM   19  C13 UNL     1      26.536   0.575  51.952  1.00  0.00     0.009 A 
HETATM   20  C14 UNL     1      25.336   1.213  51.859  1.00  0.00     0.030 A 
ENDBRANCH  12  14
ENDBRANCH   7  12
BRANCH   1  21
HETATM   21  O1  UNL     1      21.846   4.560  46.358  1.00  0.00    -0.360 OA
HETATM   22  C1  UNL     1      21.493   3.851  45.207  1.00  0.00     0.209 C 
ENDBRANCH   1  21
TORSDOF 3
ENDMDL
MODEL 9
REMARK VINA RESULT:      -8.1      5.981      8.734
REMARK  3 active torsions:
REMARK  status: ('A' for Active; 'I' for Inactive)
REMARK    1  A    between atoms: O1_2  and  C2_3 
REMARK    2  A    between atoms: C6_9  and  N3_10 
REMARK    3  A    between atoms: N3_10  and  C8_12 
ROOT
HETATM    1  C2  UNL     1      28.040   7.246  48.473  1.00  0.00     0.051 C 
HETATM    2  C3  UNL     1      26.918   7.693  48.959  1.00  0.00     0.065 C 
HETATM    3  C4  UNL     1      25.916   6.950  49.710  1.00  0.00     0.074 A 
HETATM    4  N1  UNL     1      25.079   7.685  50.467  1.00  0.00    -0.241 NA
HETATM    5  C5  UNL     1      24.116   7.064  51.201  1.00  0.00     0.236 A 
HETATM    6  N2  UNL     1      23.941   5.720  51.218  1.00  0.00    -0.223 NA
HETATM    7  C6  UNL     1      24.766   4.965  50.467  1.00  0.00     0.143 A 
HETATM    8  C15 UNL     1      25.748   5.584  49.718  1.00  0.00     0.039 A 
HETATM    9  C16 UNL     1      26.503   4.547  48.994  1.00  0.00     0.014 C 
HETATM   10  C17 UNL     1      27.736   4.772  48.515  1.00  0.00    -0.019 C 
HETATM   11  C18 UNL     1      28.636   5.905  48.520  1.00  0.00     0.091 C 
ENDROOT
BRANCH   7  12
HETATM   12  N3  UNL     1      24.529   3.563  50.540  1.00  0.00    -0.335 N 
HETATM   13  C7  UNL     1      23.631   2.790  49.705  1.00  0.00     0.158 C 
BRANCH  12  14
HETATM   14  C8  UNL     1      25.241   2.829  51.534  1.00  0.00     0.035 A 
HETATM   15  C9  UNL     1      26.375   2.076  51.245  1.00  0.00     0.030 A 
HETATM   16  C10 UNL     1      27.077   1.359  52.192  1.00  0.00     0.009 A 
HETATM   17  C11 UNL     1      26.649   1.377  53.498  1.00  0.00    -0.062 A 
HETATM   18  C12 UNL     1      27.427   0.594  54.493  1.00  0.00     0.048 C 
HETATM   19  C13 UNL     1      25.533   2.103  53.846  1.00  0.00     0.009 A 
HETATM   20  C14 UNL     1      24.883   2.791  52.866  1.00  0.00     0.030 A 
ENDBRANCH  12  14
ENDBRANCH   7  12
BRANCH   1  21
HETATM   21  O1  UNL     1      28.789   8.230  47.793  1.00  0.00    -0.360 OA
HETATM   22  C1  UNL     1      29.907   8.841  48.367  1.00  0.00     0.209 C 
ENDBRANCH   1  21
TORSDOF 3
ENDMDL
