MODEL 1
REMARK VINA RESULT:      -8.8      0.000      0.000
REMARK  6 active torsions:
REMARK  status: ('A' for Active; 'I' for Inactive)
REMARK    1  A    between atoms: C1_2  and  C2_3 
REMARK    2  A    between atoms: C7_9  and  N2_10 
REMARK    3  A    between atoms: N2_10  and  C8_11 
REMARK    4  A    between atoms: C11_14  and  O2_15 
REMARK    5  A    between atoms: O2_15  and  C12_16 
REMARK    6  A    between atoms: C12_16  and  C13_17 
ROOT
HETATM    1  C2  UNL     1      28.062  11.449  48.156  1.00  0.00     0.334 C 
HETATM    2  N1  UNL     1      29.073  10.975  47.155  1.00  0.00     0.114 N 
HETATM    3  C3  UNL     1      29.016   9.554  47.353  1.00  0.00     0.289 C 
HETATM    4  C4  UNL     1      29.712   8.645  46.491  1.00  0.00     0.010 C 
HETATM    5  C5  UNL     1      29.210   7.417  46.845  1.00  0.00    -0.018 C 
HETATM    6  C6  UNL     1      28.316   6.562  47.667  1.00  0.00     0.166 C 
HETATM    7  C7  UNL     1      27.396   6.719  48.663  1.00  0.00     0.111 C 
HETATM    8  N3  UNL     1      26.506   7.249  49.684  1.00  0.00    -0.256 NA
HETATM    9  C21 UNL     1      26.115   8.502  49.670  1.00  0.00     0.229 C 
HETATM   10  N4  UNL     1      26.326   9.641  48.846  1.00  0.00    -0.244 NA
HETATM   11  C22 UNL     1      27.476  10.272  48.849  1.00  0.00     0.077 C 
HETATM   12  C23 UNL     1      28.582   9.793  49.718  1.00  0.00     0.051 C 
HETATM   13  C24 UNL     1      29.425   9.306  48.782  1.00  0.00     0.050 C 
HETATM   14 CL1  UNL     1      30.830   8.483  49.380  1.00  0.00    -0.086 Cl
HETATM   15  H3  UNL     1      28.729  11.228  46.203  1.00  0.00     0.318 HD
ENDROOT
BRANCH   7  16
HETATM   16  N2  UNL     1      27.046   5.322  48.830  1.00  0.00    -0.366 N 
HETATM   17  H8  UNL     1      27.584   4.493  48.427  1.00  0.00     0.162 HD
BRANCH  16  18
HETATM   18  C8  UNL     1      26.070   4.462  49.459  1.00  0.00     0.029 A 
HETATM   19  C9  UNL     1      24.699   4.533  49.307  1.00  0.00     0.032 A 
HETATM   20  C10 UNL     1      23.924   3.611  50.000  1.00  0.00     0.039 A 
HETATM   21  C11 UNL     1      24.542   2.686  50.790  1.00  0.00     0.069 A 
HETATM   22  C19 UNL     1      25.895   2.572  50.975  1.00  0.00     0.039 A 
HETATM   23  C20 UNL     1      26.667   3.508  50.272  1.00  0.00     0.032 A 
BRANCH  21  24
HETATM   24  O2  UNL     1      23.766   1.774  51.482  1.00  0.00    -0.347 OA
BRANCH  24  25
HETATM   25  C12 UNL     1      24.174   1.058  52.612  1.00  0.00     0.214 C 
BRANCH  25  26
HETATM   26  C13 UNL     1      23.060   0.235  53.153  1.00  0.00    -0.031 A 
HETATM   27  C14 UNL     1      23.208  -0.720  54.153  1.00  0.00     0.009 A 
HETATM   28  C15 UNL     1      22.084  -1.400  54.566  1.00  0.00     0.004 A 
HETATM   29  C16 UNL     1      20.798  -1.200  54.052  1.00  0.00     0.042 A 
HETATM   30  C17 UNL     1      20.685  -0.233  53.049  1.00  0.00     0.117 A 
HETATM   31  F1  UNL     1      19.427  -0.051  52.566  1.00  0.00    -0.206 F 
HETATM   32  C18 UNL     1      21.789   0.462  52.614  1.00  0.00     0.051 A 
ENDBRANCH  25  26
ENDBRANCH  24  25
ENDBRANCH  21  24
ENDBRANCH  16  18
ENDBRANCH   7  16
BRANCH   1  33
HETATM   33  C1  UNL     1      28.733  12.403  49.045  1.00  0.00     0.273 C 
HETATM   34  O1  UNL     1      27.959  13.330  49.260  1.00  0.00    -0.304 OA
ENDBRANCH   1  33
TORSDOF 6
ENDMDL
MODEL 2
REMARK VINA RESULT:      -8.8      2.956      3.761
REMARK  6 active torsions:
REMARK  status: ('A' for Active; 'I' for Inactive)
REMARK    1  A    between atoms: C1_2  and  C2_3 
REMARK    2  A    between atoms: C7_9  and  N2_10 
REMARK    3  A    between atoms: N2_10  and  C8_11 
REMARK    4  A    between atoms: C11_14  and  O2_15 
REMARK    5  A    between atoms: O2_15  and  C12_16 
REMARK    6  A    between atoms: C12_16  and  C13_17 
ROOT
HETATM    1  C2  UNL     1      29.805  11.321  47.979  1.00  0.00     0.334 C 
HETATM    2  N1  UNL     1      29.791  10.739  46.597  1.00  0.00     0.114 N 
HETATM    3  C3  UNL     1      28.971   9.577  46.794  1.00  0.00     0.289 C 
HETATM    4  C4  UNL     1      28.536   8.768  45.694  1.00  0.00     0.010 C 
HETATM    5  C5  UNL     1      27.596   7.939  46.256  1.00  0.00    -0.018 C 
HETATM    6  C6  UNL     1      26.809   7.462  47.421  1.00  0.00     0.166 C 
HETATM    7  C7  UNL     1      26.691   7.747  48.751  1.00  0.00     0.111 C 
HETATM    8  N3  UNL     1      26.829   8.304  50.087  1.00  0.00    -0.256 NA
HETATM    9  C21 UNL     1      27.319   9.508  50.280  1.00  0.00     0.229 C 
HETATM   10  N4  UNL     1      27.814  10.564  49.469  1.00  0.00    -0.244 NA
HETATM   11  C22 UNL     1      28.979  10.469  48.874  1.00  0.00     0.077 C 
HETATM   12  C23 UNL     1      29.797   9.241  49.040  1.00  0.00     0.051 C 
HETATM   13  C24 UNL     1      29.688   8.714  47.801  1.00  0.00     0.050 C 
HETATM   14 CL1  UNL     1      30.390   7.143  47.578  1.00  0.00    -0.086 Cl
HETATM   15  H3  UNL     1      29.318  11.420  45.965  1.00  0.00     0.318 HD
ENDROOT
BRANCH   7  16
HETATM   16  N2  UNL     1      25.674   6.765  49.073  1.00  0.00    -0.366 N 
HETATM   17  H8  UNL     1      24.638   6.837  48.825  1.00  0.00     0.162 HD
BRANCH  16  18
HETATM   18  C8  UNL     1      25.495   5.482  49.713  1.00  0.00     0.029 A 
HETATM   19  C9  UNL     1      24.467   5.131  50.567  1.00  0.00     0.032 A 
HETATM   20  C10 UNL     1      24.469   3.841  51.083  1.00  0.00     0.039 A 
HETATM   21  C11 UNL     1      25.473   2.987  50.730  1.00  0.00     0.069 A 
HETATM   22  C19 UNL     1      26.513   3.284  49.890  1.00  0.00     0.039 A 
HETATM   23  C20 UNL     1      26.501   4.588  49.375  1.00  0.00     0.032 A 
BRANCH  21  24
HETATM   24  O2  UNL     1      25.473   1.706  51.251  1.00  0.00    -0.347 OA
BRANCH  24  25
HETATM   25  C12 UNL     1      25.536   1.386  52.611  1.00  0.00     0.214 C 
BRANCH  25  26
HETATM   26  C13 UNL     1      26.927   1.060  53.020  1.00  0.00    -0.031 A 
HETATM   27  C14 UNL     1      27.834   1.988  53.520  1.00  0.00     0.009 A 
HETATM   28  C15 UNL     1      29.088   1.540  53.870  1.00  0.00     0.004 A 
HETATM   29  C16 UNL     1      29.520   0.214  53.761  1.00  0.00     0.042 A 
HETATM   30  C17 UNL     1      28.584  -0.693  53.255  1.00  0.00     0.117 A 
HETATM   31  F1  UNL     1      29.022  -1.976  53.160  1.00  0.00    -0.206 F 
HETATM   32  C18 UNL     1      27.324  -0.276  52.895  1.00  0.00     0.051 A 
ENDBRANCH  25  26
ENDBRANCH  24  25
ENDBRANCH  21  24
ENDBRANCH  16  18
ENDBRANCH   7  16
BRANCH   1  33
HETATM   33  C1  UNL     1      31.207  11.451  48.390  1.00  0.00     0.273 C 
HETATM   34  O1  UNL     1      31.889  11.581  47.379  1.00  0.00    -0.304 OA
ENDBRANCH   1  33
TORSDOF 6
ENDMDL
MODEL 3
REMARK VINA RESULT:      -8.7      4.839     10.434
REMARK  6 active torsions:
REMARK  status: ('A' for Active; 'I' for Inactive)
REMARK    1  A    between atoms: C1_2  and  C2_3 
REMARK    2  A    between atoms: C7_9  and  N2_10 
REMARK    3  A    between atoms: N2_10  and  C8_11 
REMARK    4  A    between atoms: C11_14  and  O2_15 
REMARK    5  A    between atoms: O2_15  and  C12_16 
REMARK    6  A    between atoms: C12_16  and  C13_17 
ROOT
HETATM    1  C2  UNL     1      21.846   0.382  52.555  1.00  0.00     0.334 C 
HETATM    2  N1  UNL     1      21.347   0.015  51.190  1.00  0.00     0.114 N 
HETATM    3  C3  UNL     1      21.751   1.162  50.428  1.00  0.00     0.289 C 
HETATM    4  C4  UNL     1      21.625   1.201  49.001  1.00  0.00     0.010 C 
HETATM    5  C5  UNL     1      22.335   2.322  48.645  1.00  0.00    -0.018 C 
HETATM    6  C6  UNL     1      23.162   3.506  48.992  1.00  0.00     0.166 C 
HETATM    7  C7  UNL     1      23.671   4.094  50.114  1.00  0.00     0.111 C 
HETATM    8  N3  UNL     1      24.038   4.436  51.478  1.00  0.00    -0.256 NA
HETATM    9  C21 UNL     1      24.039   3.535  52.434  1.00  0.00     0.229 C 
HETATM   10  N4  UNL     1      23.754   2.147  52.547  1.00  0.00    -0.244 NA
HETATM   11  C22 UNL     1      22.521   1.705  52.486  1.00  0.00     0.077 C 
HETATM   12  C23 UNL     1      21.400   2.659  52.292  1.00  0.00     0.051 C 
HETATM   13  C24 UNL     1      21.038   2.347  51.029  1.00  0.00     0.050 C 
HETATM   14 CL1  UNL     1      19.819   3.355  50.316  1.00  0.00    -0.086 Cl
HETATM   15  H3  UNL     1      21.862  -0.836  50.875  1.00  0.00     0.318 HD
ENDROOT
BRANCH   7  16
HETATM   16  N2  UNL     1      24.345   5.202  49.466  1.00  0.00    -0.366 N 
HETATM   17  H8  UNL     1      23.884   6.112  49.151  1.00  0.00     0.162 HD
BRANCH  16  18
HETATM   18  C8  UNL     1      25.647   5.630  49.006  1.00  0.00     0.029 A 
HETATM   19  C9  UNL     1      25.993   6.904  48.602  1.00  0.00     0.032 A 
HETATM   20  C10 UNL     1      27.303   7.118  48.192  1.00  0.00     0.039 A 
HETATM   21  C11 UNL     1      28.181   6.073  48.207  1.00  0.00     0.069 A 
HETATM   22  C19 UNL     1      27.891   4.793  48.598  1.00  0.00     0.039 A 
HETATM   23  C20 UNL     1      26.565   4.589  49.009  1.00  0.00     0.032 A 
BRANCH  21  24
HETATM   24  O2  UNL     1      29.483   6.290  47.794  1.00  0.00    -0.347 OA
BRANCH  24  25
HETATM   25  C12 UNL     1      30.595   6.377  48.637  1.00  0.00     0.214 C 
BRANCH  25  26
HETATM   26  C13 UNL     1      31.782   5.726  48.024  1.00  0.00    -0.031 A 
HETATM   27  C14 UNL     1      33.058   6.279  48.011  1.00  0.00     0.009 A 
HETATM   28  C15 UNL     1      34.069   5.557  47.417  1.00  0.00     0.004 A 
HETATM   29  C16 UNL     1      33.906   4.301  46.822  1.00  0.00     0.042 A 
HETATM   30  C17 UNL     1      32.611   3.774  46.852  1.00  0.00     0.117 A 
HETATM   31  F1  UNL     1      32.476   2.552  46.272  1.00  0.00    -0.206 F 
HETATM   32  C18 UNL     1      31.581   4.472  47.438  1.00  0.00     0.051 A 
ENDBRANCH  25  26
ENDBRANCH  24  25
ENDBRANCH  21  24
ENDBRANCH  16  18
ENDBRANCH   7  16
BRANCH   1  33
HETATM   33  C1  UNL     1      20.703   0.332  53.472  1.00  0.00     0.273 C 
HETATM   34  O1  UNL     1      21.137   0.226  54.614  1.00  0.00    -0.304 OA
ENDBRANCH   1  33
TORSDOF 6
ENDMDL
MODEL 4
REMARK VINA RESULT:      -8.6      8.028     11.468
REMARK  6 active torsions:
REMARK  status: ('A' for Active; 'I' for Inactive)
REMARK    1  A    between atoms: C1_2  and  C2_3 
REMARK    2  A    between atoms: C7_9  and  N2_10 
REMARK    3  A    between atoms: N2_10  and  C8_11 
REMARK    4  A    between atoms: C11_14  and  O2_15 
REMARK    5  A    between atoms: O2_15  and  C12_16 
REMARK    6  A    between atoms: C12_16  and  C13_17 
ROOT
HETATM    1  C2  UNL     1      14.693   3.070  52.043  1.00  0.00     0.334 C 
HETATM    2  N1  UNL     1      14.299   1.705  52.521  1.00  0.00     0.114 N 
HETATM    3  C3  UNL     1      15.493   0.958  52.244  1.00  0.00     0.289 C 
HETATM    4  C4  UNL     1      15.652  -0.398  52.683  1.00  0.00     0.010 C 
HETATM    5  C5  UNL     1      16.981  -0.656  52.455  1.00  0.00    -0.018 C 
HETATM    6  C6  UNL     1      18.328  -0.242  51.985  1.00  0.00     0.166 C 
HETATM    7  C7  UNL     1      18.919   0.866  51.450  1.00  0.00     0.111 C 
HETATM    8  N3  UNL     1      19.203   2.187  50.911  1.00  0.00    -0.256 NA
HETATM    9  C21 UNL     1      18.435   3.218  51.183  1.00  0.00     0.229 C 
HETATM   10  N4  UNL     1      17.261   3.459  51.947  1.00  0.00    -0.244 NA
HETATM   11  C22 UNL     1      16.092   3.025  51.543  1.00  0.00     0.077 C 
HETATM   12  C23 UNL     1      15.983   2.264  50.271  1.00  0.00     0.051 C 
HETATM   13  C24 UNL     1      15.708   1.033  50.754  1.00  0.00     0.050 C 
HETATM   14 CL1  UNL     1      15.648  -0.246  49.584  1.00  0.00    -0.086 Cl
HETATM   15  H3  UNL     1      14.128   1.758  53.548  1.00  0.00     0.318 HD
ENDROOT
BRANCH   7  16
HETATM   16  N2  UNL     1      20.260   0.330  51.320  1.00  0.00    -0.366 N 
HETATM   17  H8  UNL     1      20.508  -0.653  50.986  1.00  0.00     0.162 HD
BRANCH  16  18
HETATM   18  C8  UNL     1      21.649   0.688  51.492  1.00  0.00     0.029 A 
HETATM   19  C9  UNL     1      22.373   1.559  50.700  1.00  0.00     0.032 A 
HETATM   20  C10 UNL     1      23.706   1.775  51.030  1.00  0.00     0.039 A 
HETATM   21  C11 UNL     1      24.236   1.127  52.107  1.00  0.00     0.069 A 
HETATM   22  C19 UNL     1      23.564   0.256  52.924  1.00  0.00     0.039 A 
HETATM   23  C20 UNL     1      22.220   0.045  52.582  1.00  0.00     0.032 A 
BRANCH  21  24
HETATM   24  O2  UNL     1      25.564   1.342  52.428  1.00  0.00    -0.347 OA
BRANCH  24  25
HETATM   25  C12 UNL     1      26.132   1.149  53.691  1.00  0.00     0.214 C 
BRANCH  25  26
HETATM   26  C13 UNL     1      27.431   0.435  53.589  1.00  0.00    -0.031 A 
HETATM   27  C14 UNL     1      28.670   1.028  53.809  1.00  0.00     0.009 A 
HETATM   28  C15 UNL     1      29.792   0.239  53.692  1.00  0.00     0.004 A 
HETATM   29  C16 UNL     1      29.780  -1.121  53.366  1.00  0.00     0.042 A 
HETATM   30  C17 UNL     1      28.519  -1.686  53.151  1.00  0.00     0.117 A 
HETATM   31  F1  UNL     1      28.529  -3.009  52.840  1.00  0.00    -0.206 F 
HETATM   32  C18 UNL     1      27.379  -0.924  53.260  1.00  0.00     0.051 A 
ENDBRANCH  25  26
ENDBRANCH  24  25
ENDBRANCH  21  24
ENDBRANCH  16  18
ENDBRANCH   7  16
BRANCH   1  33
HETATM   33  C1  UNL     1      13.706   3.492  51.044  1.00  0.00     0.273 C 
HETATM   34  O1  UNL     1      12.807   4.088  51.627  1.00  0.00    -0.304 OA
ENDBRANCH   1  33
TORSDOF 6
ENDMDL
MODEL 5
REMARK VINA RESULT:      -8.5      4.446     11.012
REMARK  6 active torsions:
REMARK  status: ('A' for Active; 'I' for Inactive)
REMARK    1  A    between atoms: C1_2  and  C2_3 
REMARK    2  A    between atoms: C7_9  and  N2_10 
REMARK    3  A    between atoms: N2_10  and  C8_11 
REMARK    4  A    between atoms: C11_14  and  O2_15 
REMARK    5  A    between atoms: O2_15  and  C12_16 
REMARK    6  A    between atoms: C12_16  and  C13_17 
ROOT
HETATM    1  C2  UNL     1      23.002  -0.029  52.873  1.00  0.00     0.334 C 
HETATM    2  N1  UNL     1      21.913   0.399  51.936  1.00  0.00     0.114 N 
HETATM    3  C3  UNL     1      22.590   1.402  51.163  1.00  0.00     0.289 C 
HETATM    4  C4  UNL     1      21.983   2.002  50.012  1.00  0.00     0.010 C 
HETATM    5  C5  UNL     1      23.016   2.692  49.427  1.00  0.00    -0.018 C 
HETATM    6  C6  UNL     1      24.435   3.128  49.387  1.00  0.00     0.166 C 
HETATM    7  C7  UNL     1      25.570   2.959  50.127  1.00  0.00     0.111 C 
HETATM    8  N3  UNL     1      26.550   2.573  51.129  1.00  0.00    -0.256 NA
HETATM    9  C21 UNL     1      26.381   1.508  51.879  1.00  0.00     0.229 C 
HETATM   10  N4  UNL     1      25.402   0.487  52.017  1.00  0.00    -0.244 NA
HETATM   11  C22 UNL     1      24.238   0.738  52.566  1.00  0.00     0.077 C 
HETATM   12  C23 UNL     1      23.927   2.108  53.049  1.00  0.00     0.051 C 
HETATM   13  C24 UNL     1      23.007   2.479  52.132  1.00  0.00     0.050 C 
HETATM   14 CL1  UNL     1      22.461   4.123  52.226  1.00  0.00    -0.086 Cl
HETATM   15  H3  UNL     1      21.661  -0.418  51.339  1.00  0.00     0.318 HD
ENDROOT
BRANCH   7  16
HETATM   16  N2  UNL     1      26.459   3.761  49.309  1.00  0.00    -0.366 N 
HETATM   17  H8  UNL     1      27.103   3.391  48.542  1.00  0.00     0.162 HD
BRANCH  16  18
HETATM   18  C8  UNL     1      26.879   5.126  49.089  1.00  0.00     0.029 A 
HETATM   19  C9  UNL     1      26.162   6.264  49.407  1.00  0.00     0.032 A 
HETATM   20  C10 UNL     1      26.740   7.493  49.114  1.00  0.00     0.039 A 
HETATM   21  C11 UNL     1      27.973   7.525  48.533  1.00  0.00     0.069 A 
HETATM   22  C19 UNL     1      28.725   6.430  48.198  1.00  0.00     0.039 A 
HETATM   23  C20 UNL     1      28.133   5.194  48.497  1.00  0.00     0.032 A 
BRANCH  21  24
HETATM   24  O2  UNL     1      28.541   8.751  48.239  1.00  0.00    -0.347 OA
BRANCH  24  25
HETATM   25  C12 UNL     1      29.351   9.495  49.104  1.00  0.00     0.214 C 
BRANCH  25  26
HETATM   26  C13 UNL     1      30.590   9.946  48.418  1.00  0.00    -0.031 A 
HETATM   27  C14 UNL     1      30.946  11.279  48.243  1.00  0.00     0.009 A 
HETATM   28  C15 UNL     1      32.133  11.550  47.600  1.00  0.00     0.004 A 
HETATM   29  C16 UNL     1      33.011  10.580  47.105  1.00  0.00     0.042 A 
HETATM   30  C17 UNL     1      32.623   9.251  47.298  1.00  0.00     0.117 A 
HETATM   31  F1  UNL     1      33.492   8.324  46.814  1.00  0.00    -0.206 F 
HETATM   32  C18 UNL     1      31.444   8.947  47.937  1.00  0.00     0.051 A 
ENDBRANCH  25  26
ENDBRANCH  24  25
ENDBRANCH  21  24
ENDBRANCH  16  18
ENDBRANCH   7  16
BRANCH   1  33
HETATM   33  C1  UNL     1      22.504   0.146  54.241  1.00  0.00     0.273 C 
HETATM   34  O1  UNL     1      21.279   0.109  54.207  1.00  0.00    -0.304 OA
ENDBRANCH   1  33
TORSDOF 6
ENDMDL
MODEL 6
REMARK VINA RESULT:      -8.5      2.316      3.168
REMARK  6 active torsions:
REMARK  status: ('A' for Active; 'I' for Inactive)
REMARK    1  A    between atoms: C1_2  and  C2_3 
REMARK    2  A    between atoms: C7_9  and  N2_10 
REMARK    3  A    between atoms: N2_10  and  C8_11 
REMARK    4  A    between atoms: C11_14  and  O2_15 
REMARK    5  A    between atoms: O2_15  and  C12_16 
REMARK    6  A    between atoms: C12_16  and  C13_17 
ROOT
HETATM    1  C2  UNL     1      32.419   8.886  48.181  1.00  0.00     0.334 C 
HETATM    2  N1  UNL     1      31.392   9.969  48.042  1.00  0.00     0.114 N 
HETATM    3  C3  UNL     1      30.188   9.195  47.925  1.00  0.00     0.289 C 
HETATM    4  C4  UNL     1      28.894   9.812  47.927  1.00  0.00     0.010 C 
HETATM    5  C5  UNL     1      28.032   8.751  48.054  1.00  0.00    -0.018 C 
HETATM    6  C6  UNL     1      27.766   7.296  48.189  1.00  0.00     0.166 C 
HETATM    7  C7  UNL     1      28.483   6.136  48.255  1.00  0.00     0.111 C 
HETATM    8  N3  UNL     1      29.536   5.135  48.291  1.00  0.00    -0.256 NA
HETATM    9  C21 UNL     1      30.767   5.446  48.628  1.00  0.00     0.229 C 
HETATM   10  N4  UNL     1      31.465   6.620  49.023  1.00  0.00    -0.244 NA
HETATM   11  C22 UNL     1      31.740   7.564  48.156  1.00  0.00     0.077 C 
HETATM   12  C23 UNL     1      31.316   7.417  46.740  1.00  0.00     0.051 C 
HETATM   13  C24 UNL     1      30.341   8.351  46.686  1.00  0.00     0.050 C 
HETATM   14 CL1  UNL     1      29.437   8.421  45.207  1.00  0.00    -0.086 Cl
HETATM   15  H3  UNL     1      31.388  10.526  48.924  1.00  0.00     0.318 HD
ENDROOT
BRANCH   7  16
HETATM   16  N2  UNL     1      27.364   5.221  48.383  1.00  0.00    -0.366 N 
HETATM   17  H8  UNL     1      26.972   4.605  47.604  1.00  0.00     0.162 HD
BRANCH  16  18
HETATM   18  C8  UNL     1      26.406   4.725  49.343  1.00  0.00     0.029 A 
HETATM   19  C9  UNL     1      25.268   5.380  49.775  1.00  0.00     0.032 A 
HETATM   20  C10 UNL     1      24.468   4.733  50.709  1.00  0.00     0.039 A 
HETATM   21  C11 UNL     1      24.833   3.496  51.153  1.00  0.00     0.069 A 
HETATM   22  C19 UNL     1      25.948   2.805  50.758  1.00  0.00     0.039 A 
HETATM   23  C20 UNL     1      26.749   3.466  49.816  1.00  0.00     0.032 A 
BRANCH  21  24
HETATM   24  O2  UNL     1      24.035   2.860  52.087  1.00  0.00    -0.347 OA
BRANCH  24  25
HETATM   25  C12 UNL     1      23.144   1.817  51.811  1.00  0.00     0.214 C 
BRANCH  25  26
HETATM   26  C13 UNL     1      23.217   0.763  52.857  1.00  0.00    -0.031 A 
HETATM   27  C14 UNL     1      24.403   0.279  53.398  1.00  0.00     0.009 A 
HETATM   28  C15 UNL     1      24.319  -0.691  54.371  1.00  0.00     0.004 A 
HETATM   29  C16 UNL     1      23.123  -1.229  54.859  1.00  0.00     0.042 A 
HETATM   30  C17 UNL     1      21.950  -0.720  54.294  1.00  0.00     0.117 A 
HETATM   31  F1  UNL     1      20.799  -1.253  54.784  1.00  0.00    -0.206 F 
HETATM   32  C18 UNL     1      22.001   0.249  53.319  1.00  0.00     0.051 A 
ENDBRANCH  25  26
ENDBRANCH  24  25
ENDBRANCH  21  24
ENDBRANCH  16  18
ENDBRANCH   7  16
BRANCH   1  33
HETATM   33  C1  UNL     1      33.411   9.077  47.119  1.00  0.00     0.273 C 
HETATM   34  O1  UNL     1      33.483  10.278  46.877  1.00  0.00    -0.304 OA
ENDBRANCH   1  33
TORSDOF 6
ENDMDL
MODEL 7
REMARK VINA RESULT:      -8.5      4.379     10.848
REMARK  6 active torsions:
REMARK  status: ('A' for Active; 'I' for Inactive)
REMARK    1  A    between atoms: C1_2  and  C2_3 
REMARK    2  A    between atoms: C7_9  and  N2_10 
REMARK    3  A    between atoms: N2_10  and  C8_11 
REMARK    4  A    between atoms: C11_14  and  O2_15 
REMARK    5  A    between atoms: O2_15  and  C12_16 
REMARK    6  A    between atoms: C12_16  and  C13_17 
ROOT
HETATM    1  C2  UNL     1      22.959  -0.064  52.704  1.00  0.00     0.334 C 
HETATM    2  N1  UNL     1      21.993   0.429  51.670  1.00  0.00     0.114 N 
HETATM    3  C3  UNL     1      22.769   1.453  51.029  1.00  0.00     0.289 C 
HETATM    4  C4  UNL     1      22.308   2.118  49.846  1.00  0.00     0.010 C 
HETATM    5  C5  UNL     1      23.411   2.814  49.418  1.00  0.00    -0.018 C 
HETATM    6  C6  UNL     1      24.832   3.223  49.562  1.00  0.00     0.166 C 
HETATM    7  C7  UNL     1      25.870   2.998  50.419  1.00  0.00     0.111 C 
HETATM    8  N3  UNL     1      26.721   2.547  51.508  1.00  0.00    -0.256 NA
HETATM    9  C21 UNL     1      26.452   1.451  52.180  1.00  0.00     0.229 C 
HETATM   10  N4  UNL     1      25.449   0.444  52.156  1.00  0.00    -0.244 NA
HETATM   11  C22 UNL     1      24.233   0.692  52.578  1.00  0.00     0.077 C 
HETATM   12  C23 UNL     1      23.887   2.044  53.088  1.00  0.00     0.051 C 
HETATM   13  C24 UNL     1      23.085   2.475  52.090  1.00  0.00     0.050 C 
HETATM   14 CL1  UNL     1      22.556   4.124  52.200  1.00  0.00    -0.086 Cl
HETATM   15  H3  UNL     1      21.799  -0.354  51.008  1.00  0.00     0.318 HD
ENDROOT
BRANCH   7  16
HETATM   16  N2  UNL     1      26.860   3.820  49.750  1.00  0.00    -0.366 N 
HETATM   17  H8  UNL     1      27.889   3.570  49.617  1.00  0.00     0.162 HD
BRANCH  16  18
HETATM   18  C8  UNL     1      27.011   5.078  49.055  1.00  0.00     0.029 A 
HETATM   19  C9  UNL     1      26.038   6.045  48.894  1.00  0.00     0.032 A 
HETATM   20  C10 UNL     1      26.380   7.193  48.190  1.00  0.00     0.039 A 
HETATM   21  C11 UNL     1      27.645   7.315  47.694  1.00  0.00     0.069 A 
HETATM   22  C19 UNL     1      28.645   6.389  47.825  1.00  0.00     0.039 A 
HETATM   23  C20 UNL     1      28.289   5.234  48.537  1.00  0.00     0.032 A 
BRANCH  21  24
HETATM   24  O2  UNL     1      27.978   8.458  46.990  1.00  0.00    -0.347 OA
BRANCH  24  25
HETATM   25  C12 UNL     1      27.396   9.717  47.170  1.00  0.00     0.214 C 
BRANCH  25  26
HETATM   26  C13 UNL     1      28.362  10.670  47.775  1.00  0.00    -0.031 A 
HETATM   27  C14 UNL     1      29.523  10.291  48.440  1.00  0.00     0.009 A 
HETATM   28  C15 UNL     1      30.334  11.285  48.941  1.00  0.00     0.004 A 
HETATM   29  C16 UNL     1      30.075  12.655  48.830  1.00  0.00     0.042 A 
HETATM   30  C17 UNL     1      28.900  13.002  48.156  1.00  0.00     0.117 A 
HETATM   31  F1  UNL     1      28.669  14.338  48.055  1.00  0.00    -0.206 F 
HETATM   32  C18 UNL     1      28.070  12.032  47.645  1.00  0.00     0.051 A 
ENDBRANCH  25  26
ENDBRANCH  24  25
ENDBRANCH  21  24
ENDBRANCH  16  18
ENDBRANCH   7  16
BRANCH   1  33
HETATM   33  C1  UNL     1      22.309   0.058  54.012  1.00  0.00     0.273 C 
HETATM   34  O1  UNL     1      22.715  -0.853  54.725  1.00  0.00    -0.304 OA
ENDBRANCH   1  33
TORSDOF 6
ENDMDL
MODEL 8
REMARK VINA RESULT:      -8.4      4.442     11.068
REMARK  6 active torsions:
REMARK  status: ('A' for Active; 'I' for Inactive)
REMARK    1  A    between atoms: C1_2  and  C2_3 
REMARK    2  A    between atoms: C7_9  and  N2_10 
REMARK    3  A    between atoms: N2_10  and  C8_11 
REMARK    4  A    between atoms: C11_14  and  O2_15 
REMARK    5  A    between atoms: O2_15  and  C12_16 
REMARK    6  A    between atoms: C12_16  and  C13_17 
ROOT
HETATM    1  C2  UNL     1      22.512  -0.817  53.391  1.00  0.00     0.334 C 
HETATM    2  N1  UNL     1      21.358  -0.791  52.434  1.00  0.00     0.114 N 
HETATM    3  C3  UNL     1      21.721   0.314  51.592  1.00  0.00     0.289 C 
HETATM    4  C4  UNL     1      20.981   0.632  50.407  1.00  0.00     0.010 C 
HETATM    5  C5  UNL     1      21.773   1.556  49.771  1.00  0.00    -0.018 C 
HETATM    6  C6  UNL     1      23.002   2.387  49.693  1.00  0.00     0.166 C 
HETATM    7  C7  UNL     1      24.125   2.608  50.436  1.00  0.00     0.111 C 
HETATM    8  N3  UNL     1      25.161   2.594  51.457  1.00  0.00    -0.256 NA
HETATM    9  C21 UNL     1      25.302   1.578  52.276  1.00  0.00     0.229 C 
HETATM   10  N4  UNL     1      24.665   0.325  52.489  1.00  0.00    -0.244 NA
HETATM   11  C22 UNL     1      23.471   0.258  53.026  1.00  0.00     0.077 C 
HETATM   12  C23 UNL     1      22.764   1.504  53.418  1.00  0.00     0.051 C 
HETATM   13  C24 UNL     1      21.789   1.527  52.484  1.00  0.00     0.050 C 
HETATM   14 CL1  UNL     1      20.783   2.940  52.471  1.00  0.00    -0.086 Cl
HETATM   15  H3  UNL     1      21.365  -1.683  51.894  1.00  0.00     0.318 HD
ENDROOT
BRANCH   7  16
HETATM   16  N2  UNL     1      24.751   3.582  49.562  1.00  0.00    -0.366 N 
HETATM   17  H8  UNL     1      24.914   3.462  48.514  1.00  0.00     0.162 HD
BRANCH  16  18
HETATM   18  C8  UNL     1      25.339   4.901  49.566  1.00  0.00     0.029 A 
HETATM   19  C9  UNL     1      26.438   5.309  48.835  1.00  0.00     0.032 A 
HETATM   20  C10 UNL     1      26.854   6.627  48.976  1.00  0.00     0.039 A 
HETATM   21  C11 UNL     1      26.169   7.452  49.820  1.00  0.00     0.069 A 
HETATM   22  C19 UNL     1      25.076   7.100  50.566  1.00  0.00     0.039 A 
HETATM   23  C20 UNL     1      24.665   5.767  50.416  1.00  0.00     0.032 A 
BRANCH  21  24
HETATM   24  O2  UNL     1      26.591   8.762  49.960  1.00  0.00    -0.347 OA
BRANCH  24  25
HETATM   25  C12 UNL     1      26.744   9.678  48.914  1.00  0.00     0.214 C 
BRANCH  25  26
HETATM   26  C13 UNL     1      28.081  10.324  48.963  1.00  0.00    -0.031 A 
HETATM   27  C14 UNL     1      28.304  11.679  48.737  1.00  0.00     0.009 A 
HETATM   28  C15 UNL     1      29.597  12.143  48.827  1.00  0.00     0.004 A 
HETATM   29  C16 UNL     1      30.709  11.350  49.131  1.00  0.00     0.042 A 
HETATM   30  C17 UNL     1      30.450   9.994  49.352  1.00  0.00     0.117 A 
HETATM   31  F1  UNL     1      31.543   9.243  49.649  1.00  0.00    -0.206 F 
HETATM   32  C18 UNL     1      29.170   9.500  49.268  1.00  0.00     0.051 A 
ENDBRANCH  25  26
ENDBRANCH  24  25
ENDBRANCH  21  24
ENDBRANCH  16  18
ENDBRANCH   7  16
BRANCH   1  33
HETATM   33  C1  UNL     1      21.965  -0.706  54.747  1.00  0.00     0.273 C 
HETATM   34  O1  UNL     1      22.652  -1.397  55.492  1.00  0.00    -0.304 OA
ENDBRANCH   1  33
TORSDOF 6
ENDMDL
MODEL 9
REMARK VINA RESULT:      -8.4      2.738      3.877
REMARK  6 active torsions:
REMARK  status: ('A' for Active; 'I' for Inactive)
REMARK    1  A    between atoms: C1_2  and  C2_3 
REMARK    2  A    between atoms: C7_9  and  N2_10 
REMARK    3  A    between atoms: N2_10  and  C8_11 
REMARK    4  A    between atoms: C11_14  and  O2_15 
REMARK    5  A    between atoms: O2_15  and  C12_16 
REMARK    6  A    between atoms: C12_16  and  C13_17 
ROOT
HETATM    1  C2  UNL     1      33.036  10.100  46.866  1.00  0.00     0.334 C 
HETATM    2  N1  UNL     1      32.697   9.512  45.530  1.00  0.00     0.114 N 
HETATM    3  C3  UNL     1      31.464   8.839  45.827  1.00  0.00     0.289 C 
HETATM    4  C4  UNL     1      30.662   8.246  44.798  1.00  0.00     0.010 C 
HETATM    5  C5  UNL     1      29.486   7.945  45.439  1.00  0.00    -0.018 C 
HETATM    6  C6  UNL     1      28.632   7.923  46.654  1.00  0.00     0.166 C 
HETATM    7  C7  UNL     1      28.720   8.301  47.962  1.00  0.00     0.111 C 
HETATM    8  N3  UNL     1      29.158   8.811  49.252  1.00  0.00    -0.256 NA
HETATM    9  C21 UNL     1      30.133   9.685  49.349  1.00  0.00     0.229 C 
HETATM   10  N4  UNL     1      30.996  10.373  48.454  1.00  0.00    -0.244 NA
HETATM   11  C22 UNL     1      31.969   9.746  47.839  1.00  0.00     0.077 C 
HETATM   12  C23 UNL     1      32.177   8.293  48.070  1.00  0.00     0.051 C 
HETATM   13  C24 UNL     1      31.784   7.803  46.875  1.00  0.00     0.050 C 
HETATM   14 CL1  UNL     1      31.717   6.075  46.746  1.00  0.00    -0.086 Cl
HETATM   15  H3  UNL     1      32.536  10.297  44.862  1.00  0.00     0.318 HD
ENDROOT
BRANCH   7  16
HETATM   16  N2  UNL     1      27.395   7.883  48.378  1.00  0.00    -0.366 N 
HETATM   17  H8  UNL     1      26.501   8.457  48.273  1.00  0.00     0.162 HD
BRANCH  16  18
HETATM   18  C8  UNL     1      26.689   6.778  48.982  1.00  0.00     0.029 A 
HETATM   19  C9  UNL     1      26.921   5.435  48.751  1.00  0.00     0.032 A 
HETATM   20  C10 UNL     1      26.132   4.517  49.434  1.00  0.00     0.039 A 
HETATM   21  C11 UNL     1      25.174   4.974  50.291  1.00  0.00     0.069 A 
HETATM   22  C19 UNL     1      24.904   6.291  50.556  1.00  0.00     0.039 A 
HETATM   23  C20 UNL     1      25.706   7.208  49.862  1.00  0.00     0.032 A 
BRANCH  21  24
HETATM   24  O2  UNL     1      24.388   4.056  50.964  1.00  0.00    -0.347 OA
BRANCH  24  25
HETATM   25  C12 UNL     1      24.120   2.753  50.533  1.00  0.00     0.214 C 
BRANCH  25  26
HETATM   26  C13 UNL     1      24.649   1.753  51.498  1.00  0.00    -0.031 A 
HETATM   27  C14 UNL     1      25.997   1.441  51.641  1.00  0.00     0.009 A 
HETATM   28  C15 UNL     1      26.344   0.502  52.586  1.00  0.00     0.004 A 
HETATM   29  C16 UNL     1      25.438  -0.166  53.416  1.00  0.00     0.042 A 
HETATM   30  C17 UNL     1      24.092   0.171  53.247  1.00  0.00     0.117 A 
HETATM   31  F1  UNL     1      23.228  -0.485  54.066  1.00  0.00    -0.206 F 
HETATM   32  C18 UNL     1      23.713   1.105  52.311  1.00  0.00     0.051 A 
ENDBRANCH  25  26
ENDBRANCH  24  25
ENDBRANCH  21  24
ENDBRANCH  16  18
ENDBRANCH   7  16
BRANCH   1  33
HETATM   33  C1  UNL     1      34.373   9.623  47.233  1.00  0.00     0.273 C 
HETATM   34  O1  UNL     1      35.067   9.620  46.222  1.00  0.00    -0.304 OA
ENDBRANCH   1  33
TORSDOF 6
ENDMDL
