MODEL 1
REMARK VINA RESULT:      -7.6      0.000      0.000
REMARK  5 active torsions:
REMARK  status: ('A' for Active; 'I' for Inactive)
REMARK    1  A    between atoms: C3_4  and  N2_5 
REMARK    2  A    between atoms: C4_6  and  C5_7 
REMARK    3  A    between atoms: C4_6  and  C14_18 
REMARK    4  A    between atoms: C5_7  and  N3_8 
REMARK    5  A    between atoms: N3_8  and  C6_9 
ROOT
HETATM    1  C1  UNL     1      29.848  -0.868  53.612  1.00  0.00     0.039 C 
HETATM    2  C2  UNL     1      28.820  -1.434  53.292  1.00  0.00     0.025 C 
HETATM    3  N1  UNL     1      27.649  -2.105  52.922  1.00  0.00    -0.192 NA
HETATM    4  C3  UNL     1      26.602  -1.455  52.540  1.00  0.00     0.244 C 
ENDROOT
BRANCH   4   5
HETATM    5  N2  UNL     1      26.337  -0.072  52.394  1.00  0.00    -0.246 NA
HETATM    6  C4  UNL     1      25.181   0.399  52.808  1.00  0.00     0.062 C 
BRANCH   6   7
HETATM    7  C5  UNL     1      24.953   1.855  52.633  1.00  0.00     0.177 C 
BRANCH   7   8
HETATM    8  N3  UNL     1      24.569   2.084  51.271  1.00  0.00    -0.384 N 
HETATM    9  H5  UNL     1      23.861   1.612  50.668  1.00  0.00     0.160 HD
BRANCH   8  10
HETATM   10  C6  UNL     1      25.233   3.123  50.527  1.00  0.00     0.029 A 
HETATM   11  C7  UNL     1      26.489   3.030  49.916  1.00  0.00     0.030 A 
HETATM   12  C8  UNL     1      27.012   4.103  49.229  1.00  0.00     0.010 A 
HETATM   13  C9  UNL     1      26.337   5.300  49.112  1.00  0.00    -0.041 A 
HETATM   14  C10 UNL     1      26.916   6.447  48.368  1.00  0.00     0.049 C 
HETATM   15  C11 UNL     1      25.094   5.457  49.691  1.00  0.00     0.052 A 
HETATM   16  C12 UNL     1      24.320   6.663  49.622  1.00  0.00     0.100 C 
HETATM   17  C13 UNL     1      24.610   4.360  50.367  1.00  0.00     0.052 A 
HETATM   18  N4  UNL     1      23.709   7.649  49.558  1.00  0.00    -0.191 NA
ENDBRANCH   8  10
ENDBRANCH   7   8
ENDBRANCH   6   7
BRANCH   6  19
HETATM   19  C14 UNL     1      24.201  -0.505  53.403  1.00  0.00     0.194 C 
HETATM   20  C15 UNL     1      22.793  -0.393  52.954  1.00  0.00     0.205 C 
HETATM   21  O1  UNL     1      22.048  -1.427  53.541  1.00  0.00    -0.386 OA
HETATM   22  C16 UNL     1      22.168  -1.416  54.923  1.00  0.00     0.193 C 
HETATM   23  C17 UNL     1      23.582  -1.420  55.421  1.00  0.00     0.195 C 
HETATM   24  O2  UNL     1      24.314  -0.401  54.810  1.00  0.00    -0.376 OA
ENDBRANCH   6  19
ENDBRANCH   4   5
TORSDOF 5
ENDMDL
MODEL 2
REMARK VINA RESULT:      -7.6      1.936      3.972
REMARK  5 active torsions:
REMARK  status: ('A' for Active; 'I' for Inactive)
REMARK    1  A    between atoms: C3_4  and  N2_5 
REMARK    2  A    between atoms: C4_6  and  C5_7 
REMARK    3  A    between atoms: C4_6  and  C14_18 
REMARK    4  A    between atoms: C5_7  and  N3_8 
REMARK    5  A    between atoms: N3_8  and  C6_9 
ROOT
HETATM    1  C1  UNL     1      19.400  -0.240  53.259  1.00  0.00     0.039 C 
HETATM    2  C2  UNL     1      20.491  -0.688  53.558  1.00  0.00     0.025 C 
HETATM    3  N1  UNL     1      21.735  -1.217  53.917  1.00  0.00    -0.192 NA
HETATM    4  C3  UNL     1      22.824  -0.552  53.722  1.00  0.00     0.244 C 
ENDROOT
BRANCH   4   5
HETATM    5  N2  UNL     1      23.075   0.727  53.170  1.00  0.00    -0.246 NA
HETATM    6  C4  UNL     1      24.322   1.120  53.024  1.00  0.00     0.062 C 
BRANCH   6   7
HETATM    7  C5  UNL     1      24.531   2.468  52.440  1.00  0.00     0.177 C 
BRANCH   7   8
HETATM    8  N3  UNL     1      24.962   2.302  51.084  1.00  0.00    -0.384 N 
HETATM    9  H5  UNL     1      24.956   1.467  50.458  1.00  0.00     0.160 HD
BRANCH   8  10
HETATM   10  C6  UNL     1      25.524   3.432  50.388  1.00  0.00     0.029 A 
HETATM   11  C7  UNL     1      26.617   3.405  49.514  1.00  0.00     0.030 A 
HETATM   12  C8  UNL     1      27.056   4.562  48.911  1.00  0.00     0.010 A 
HETATM   13  C9  UNL     1      26.452   5.782  49.134  1.00  0.00    -0.041 A 
HETATM   14  C10 UNL     1      26.939   7.020  48.475  1.00  0.00     0.049 C 
HETATM   15  C11 UNL     1      25.370   5.876  49.985  1.00  0.00     0.052 A 
HETATM   16  C12 UNL     1      24.680   7.100  50.277  1.00  0.00     0.100 C 
HETATM   17  C13 UNL     1      24.965   4.696  50.566  1.00  0.00     0.052 A 
HETATM   18  N4  UNL     1      24.135   8.101  50.504  1.00  0.00    -0.191 NA
ENDBRANCH   8  10
ENDBRANCH   7   8
ENDBRANCH   6   7
BRANCH   6  19
HETATM   19  C14 UNL     1      25.412   0.239  53.431  1.00  0.00     0.194 C 
HETATM   20  C15 UNL     1      26.404   0.766  54.399  1.00  0.00     0.205 C 
HETATM   21  O1  UNL     1      27.280  -0.269  54.757  1.00  0.00    -0.386 OA
HETATM   22  C16 UNL     1      27.877  -0.837  53.640  1.00  0.00     0.193 C 
HETATM   23  C17 UNL     1      26.911  -1.287  52.585  1.00  0.00     0.195 C 
HETATM   24  O2  UNL     1      26.033  -0.253  52.259  1.00  0.00    -0.376 OA
ENDBRANCH   6  19
ENDBRANCH   4   5
TORSDOF 5
ENDMDL
MODEL 3
REMARK VINA RESULT:      -7.4      3.162      6.705
REMARK  5 active torsions:
REMARK  status: ('A' for Active; 'I' for Inactive)
REMARK    1  A    between atoms: C3_4  and  N2_5 
REMARK    2  A    between atoms: C4_6  and  C5_7 
REMARK    3  A    between atoms: C4_6  and  C14_18 
REMARK    4  A    between atoms: C5_7  and  N3_8 
REMARK    5  A    between atoms: N3_8  and  C6_9 
ROOT
HETATM    1  C1  UNL     1      21.903  -1.271  54.573  1.00  0.00     0.039 C 
HETATM    2  C2  UNL     1      21.451  -0.321  53.963  1.00  0.00     0.025 C 
HETATM    3  N1  UNL     1      20.911   0.763  53.261  1.00  0.00    -0.192 NA
HETATM    4  C3  UNL     1      21.662   1.544  52.562  1.00  0.00     0.244 C 
ENDROOT
BRANCH   4   5
HETATM    5  N2  UNL     1      23.056   1.559  52.315  1.00  0.00    -0.246 NA
HETATM    6  C4  UNL     1      23.560   2.535  51.590  1.00  0.00     0.062 C 
BRANCH   6   7
HETATM    7  C5  UNL     1      25.026   2.506  51.361  1.00  0.00     0.177 C 
BRANCH   7   8
HETATM    8  N3  UNL     1      25.677   2.728  52.618  1.00  0.00    -0.384 N 
HETATM    9  H5  UNL     1      25.474   3.405  53.386  1.00  0.00     0.160 HD
BRANCH   8  10
HETATM   10  C6  UNL     1      26.825   1.928  52.959  1.00  0.00     0.029 A 
HETATM   11  C7  UNL     1      28.033   2.398  53.488  1.00  0.00     0.030 A 
HETATM   12  C8  UNL     1      29.057   1.523  53.772  1.00  0.00     0.010 A 
HETATM   13  C9  UNL     1      28.946   0.166  53.552  1.00  0.00    -0.041 A 
HETATM   14  C10 UNL     1      30.062  -0.763  53.864  1.00  0.00     0.049 C 
HETATM   15  C11 UNL     1      27.782  -0.361  53.032  1.00  0.00     0.052 A 
HETATM   16  C12 UNL     1      27.576  -1.758  52.771  1.00  0.00     0.100 C 
HETATM   17  C13 UNL     1      26.785   0.549  52.764  1.00  0.00     0.052 A 
HETATM   18  N4  UNL     1      27.429  -2.891  52.563  1.00  0.00    -0.191 NA
ENDBRANCH   8  10
ENDBRANCH   7   8
ENDBRANCH   6   7
BRANCH   6  19
HETATM   19  C14 UNL     1      22.681   3.572  51.059  1.00  0.00     0.194 C 
HETATM   20  C15 UNL     1      22.667   3.784  49.591  1.00  0.00     0.205 C 
HETATM   21  O1  UNL     1      21.670   4.721  49.280  1.00  0.00    -0.386 OA
HETATM   22  C16 UNL     1      21.847   5.903  49.986  1.00  0.00     0.193 C 
HETATM   23  C17 UNL     1      21.975   5.723  51.469  1.00  0.00     0.195 C 
HETATM   24  O2  UNL     1      22.953   4.772  51.760  1.00  0.00    -0.376 OA
ENDBRANCH   6  19
ENDBRANCH   4   5
TORSDOF 5
ENDMDL
MODEL 4
REMARK VINA RESULT:      -7.3      2.577      6.458
REMARK  5 active torsions:
REMARK  status: ('A' for Active; 'I' for Inactive)
REMARK    1  A    between atoms: C3_4  and  N2_5 
REMARK    2  A    between atoms: C4_6  and  C5_7 
REMARK    3  A    between atoms: C4_6  and  C14_18 
REMARK    4  A    between atoms: C5_7  and  N3_8 
REMARK    5  A    between atoms: N3_8  and  C6_9 
ROOT
HETATM    1  C1  UNL     1      24.487   7.276  50.996  1.00  0.00     0.039 C 
HETATM    2  C2  UNL     1      24.177   6.320  50.310  1.00  0.00     0.025 C 
HETATM    3  N1  UNL     1      23.807   5.234  49.509  1.00  0.00    -0.192 NA
HETATM    4  C3  UNL     1      23.949   4.021  49.924  1.00  0.00     0.244 C 
ENDROOT
BRANCH   4   5
HETATM    5  N2  UNL     1      24.446   3.478  51.134  1.00  0.00    -0.246 NA
HETATM    6  C4  UNL     1      23.682   2.656  51.820  1.00  0.00     0.062 C 
BRANCH   6   7
HETATM    7  C5  UNL     1      24.250   2.113  53.080  1.00  0.00     0.177 C 
BRANCH   7   8
HETATM    8  N3  UNL     1      24.463   0.708  52.902  1.00  0.00    -0.384 N 
HETATM    9  H5  UNL     1      23.798  -0.066  52.682  1.00  0.00     0.160 HD
BRANCH   8  10
HETATM   10  C6  UNL     1      25.797   0.182  53.042  1.00  0.00     0.029 A 
HETATM   11  C7  UNL     1      26.231  -1.088  52.646  1.00  0.00     0.030 A 
HETATM   12  C8  UNL     1      27.541  -1.468  52.837  1.00  0.00     0.010 A 
HETATM   13  C9  UNL     1      28.471  -0.632  53.418  1.00  0.00    -0.041 A 
HETATM   14  C10 UNL     1      29.879  -1.060  53.617  1.00  0.00     0.049 C 
HETATM   15  C11 UNL     1      28.107   0.633  53.831  1.00  0.00     0.052 A 
HETATM   16  C12 UNL     1      29.005   1.569  54.444  1.00  0.00     0.100 C 
HETATM   17  C13 UNL     1      26.790   0.971  53.621  1.00  0.00     0.052 A 
HETATM   18  N4  UNL     1      29.746   2.313  54.942  1.00  0.00    -0.191 NA
ENDBRANCH   8  10
ENDBRANCH   7   8
ENDBRANCH   6   7
BRANCH   6  19
HETATM   19  C14 UNL     1      22.350   2.322  51.327  1.00  0.00     0.194 C 
HETATM   20  C15 UNL     1      21.197   2.565  52.227  1.00  0.00     0.205 C 
HETATM   21  O1  UNL     1      20.012   2.307  51.522  1.00  0.00    -0.386 OA
HETATM   22  C16 UNL     1      20.008   1.026  50.987  1.00  0.00     0.193 C 
HETATM   23  C17 UNL     1      21.212   0.701  50.155  1.00  0.00     0.195 C 
HETATM   24  O2  UNL     1      22.381   0.985  50.862  1.00  0.00    -0.376 OA
ENDBRANCH   6  19
ENDBRANCH   4   5
TORSDOF 5
ENDMDL
MODEL 5
REMARK VINA RESULT:      -7.3      2.415      4.523
REMARK  5 active torsions:
REMARK  status: ('A' for Active; 'I' for Inactive)
REMARK    1  A    between atoms: C3_4  and  N2_5 
REMARK    2  A    between atoms: C4_6  and  C5_7 
REMARK    3  A    between atoms: C4_6  and  C14_18 
REMARK    4  A    between atoms: C5_7  and  N3_8 
REMARK    5  A    between atoms: N3_8  and  C6_9 
ROOT
HETATM    1  C1  UNL     1      19.562   0.712  51.857  1.00  0.00     0.039 C 
HETATM    2  C2  UNL     1      20.510   0.196  52.418  1.00  0.00     0.025 C 
HETATM    3  N1  UNL     1      21.585  -0.411  53.075  1.00  0.00    -0.192 NA
HETATM    4  C3  UNL     1      22.731   0.176  53.161  1.00  0.00     0.244 C 
ENDROOT
BRANCH   4   5
HETATM    5  N2  UNL     1      23.199   1.428  52.693  1.00  0.00    -0.246 NA
HETATM    6  C4  UNL     1      24.496   1.646  52.661  1.00  0.00     0.062 C 
BRANCH   6   7
HETATM    7  C5  UNL     1      24.936   2.973  52.162  1.00  0.00     0.177 C 
BRANCH   7   8
HETATM    8  N3  UNL     1      25.389   2.812  50.812  1.00  0.00    -0.384 N 
HETATM    9  H5  UNL     1      25.563   1.954  50.244  1.00  0.00     0.160 HD
BRANCH   8  10
HETATM   10  C6  UNL     1      25.687   3.986  50.033  1.00  0.00     0.029 A 
HETATM   11  C7  UNL     1      24.800   5.025  49.729  1.00  0.00     0.030 A 
HETATM   12  C8  UNL     1      25.214   6.097  48.971  1.00  0.00     0.010 A 
HETATM   13  C9  UNL     1      26.499   6.197  48.481  1.00  0.00    -0.041 A 
HETATM   14  C10 UNL     1      26.929   7.360  47.664  1.00  0.00     0.049 C 
HETATM   15  C11 UNL     1      27.423   5.206  48.744  1.00  0.00     0.052 A 
HETATM   16  C12 UNL     1      28.780   5.225  48.277  1.00  0.00     0.100 C 
HETATM   17  C13 UNL     1      26.966   4.154  49.505  1.00  0.00     0.052 A 
HETATM   18  N4  UNL     1      29.873   5.257  47.887  1.00  0.00    -0.191 NA
ENDBRANCH   8  10
ENDBRANCH   7   8
ENDBRANCH   6   7
BRANCH   6  19
HETATM   19  C14 UNL     1      25.418   0.606  53.105  1.00  0.00     0.194 C 
HETATM   20  C15 UNL     1      26.281   0.897  54.276  1.00  0.00     0.205 C 
HETATM   21  O1  UNL     1      26.987  -0.266  54.618  1.00  0.00    -0.386 OA
HETATM   22  C16 UNL     1      27.705  -0.759  53.537  1.00  0.00     0.193 C 
HETATM   23  C17 UNL     1      26.890  -0.967  52.296  1.00  0.00     0.195 C 
HETATM   24  O2  UNL     1      26.177   0.191  51.985  1.00  0.00    -0.376 OA
ENDBRANCH   6  19
ENDBRANCH   4   5
TORSDOF 5
ENDMDL
MODEL 6
REMARK VINA RESULT:      -7.2      3.534      7.893
REMARK  5 active torsions:
REMARK  status: ('A' for Active; 'I' for Inactive)
REMARK    1  A    between atoms: C3_4  and  N2_5 
REMARK    2  A    between atoms: C4_6  and  C5_7 
REMARK    3  A    between atoms: C4_6  and  C14_18 
REMARK    4  A    between atoms: C5_7  and  N3_8 
REMARK    5  A    between atoms: N3_8  and  C6_9 
ROOT
HETATM    1  C1  UNL     1      31.311   5.284  47.617  1.00  0.00     0.039 C 
HETATM    2  C2  UNL     1      30.360   6.033  47.744  1.00  0.00     0.025 C 
HETATM    3  N1  UNL     1      29.282   6.912  47.890  1.00  0.00    -0.192 NA
HETATM    4  C3  UNL     1      28.129   6.492  48.290  1.00  0.00     0.244 C 
ENDROOT
BRANCH   4   5
HETATM    5  N2  UNL     1      27.655   5.208  48.653  1.00  0.00    -0.246 NA
HETATM    6  C4  UNL     1      26.430   5.095  49.119  1.00  0.00     0.062 C 
BRANCH   6   7
HETATM    7  C5  UNL     1      25.979   3.729  49.484  1.00  0.00     0.177 C 
BRANCH   7   8
HETATM    8  N3  UNL     1      26.513   3.416  50.777  1.00  0.00    -0.384 N 
HETATM    9  H5  UNL     1      27.365   3.761  51.270  1.00  0.00     0.160 HD
BRANCH   8  10
HETATM   10  C6  UNL     1      25.819   2.463  51.604  1.00  0.00     0.029 A 
HETATM   11  C7  UNL     1      24.583   2.657  52.232  1.00  0.00     0.030 A 
HETATM   12  C8  UNL     1      24.026   1.658  52.999  1.00  0.00     0.010 A 
HETATM   13  C9  UNL     1      24.648   0.442  53.185  1.00  0.00    -0.041 A 
HETATM   14  C10 UNL     1      24.034  -0.624  54.018  1.00  0.00     0.049 C 
HETATM   15  C11 UNL     1      25.869   0.187  52.595  1.00  0.00     0.052 A 
HETATM   16  C12 UNL     1      26.589  -1.047  52.733  1.00  0.00     0.100 C 
HETATM   17  C13 UNL     1      26.388   1.212  51.837  1.00  0.00     0.052 A 
HETATM   18  N4  UNL     1      27.159  -2.051  52.859  1.00  0.00    -0.191 NA
ENDBRANCH   8  10
ENDBRANCH   7   8
ENDBRANCH   6   7
BRANCH   6  19
HETATM   19  C14 UNL     1      25.592   6.282  49.252  1.00  0.00     0.194 C 
HETATM   20  C15 UNL     1      25.077   6.619  50.601  1.00  0.00     0.205 C 
HETATM   21  O1  UNL     1      24.413   7.854  50.536  1.00  0.00    -0.386 OA
HETATM   22  C16 UNL     1      23.414   7.843  49.573  1.00  0.00     0.193 C 
HETATM   23  C17 UNL     1      23.871   7.403  48.214  1.00  0.00     0.195 C 
HETATM   24  O2  UNL     1      24.548   6.186  48.301  1.00  0.00    -0.376 OA
ENDBRANCH   6  19
ENDBRANCH   4   5
TORSDOF 5
ENDMDL
MODEL 7
REMARK VINA RESULT:      -7.0      2.208      3.186
REMARK  5 active torsions:
REMARK  status: ('A' for Active; 'I' for Inactive)
REMARK    1  A    between atoms: C3_4  and  N2_5 
REMARK    2  A    between atoms: C4_6  and  C5_7 
REMARK    3  A    between atoms: C4_6  and  C14_18 
REMARK    4  A    between atoms: C5_7  and  N3_8 
REMARK    5  A    between atoms: N3_8  and  C6_9 
ROOT
HETATM    1  C1  UNL     1      30.121  -0.456  53.402  1.00  0.00     0.039 C 
HETATM    2  C2  UNL     1      29.265   0.244  53.910  1.00  0.00     0.025 C 
HETATM    3  N1  UNL     1      28.281   1.036  54.511  1.00  0.00    -0.192 NA
HETATM    4  C3  UNL     1      27.610   1.900  53.827  1.00  0.00     0.244 C 
ENDROOT
BRANCH   4   5
HETATM    5  N2  UNL     1      27.646   2.271  52.461  1.00  0.00    -0.246 NA
HETATM    6  C4  UNL     1      26.515   2.338  51.794  1.00  0.00     0.062 C 
BRANCH   6   7
HETATM    7  C5  UNL     1      26.606   2.732  50.365  1.00  0.00     0.177 C 
BRANCH   7   8
HETATM    8  N3  UNL     1      26.884   4.137  50.309  1.00  0.00    -0.384 N 
HETATM    9  H5  UNL     1      27.629   4.708  50.764  1.00  0.00     0.160 HD
BRANCH   8  10
HETATM   10  C6  UNL     1      26.030   4.985  49.518  1.00  0.00     0.029 A 
HETATM   11  C7  UNL     1      24.643   4.859  49.375  1.00  0.00     0.030 A 
HETATM   12  C8  UNL     1      23.940   5.742  48.585  1.00  0.00     0.010 A 
HETATM   13  C9  UNL     1      24.557   6.772  47.908  1.00  0.00    -0.041 A 
HETATM   14  C10 UNL     1      23.784   7.714  47.059  1.00  0.00     0.049 C 
HETATM   15  C11 UNL     1      25.922   6.951  48.006  1.00  0.00     0.052 A 
HETATM   16  C12 UNL     1      26.648   7.993  47.339  1.00  0.00     0.100 C 
HETATM   17  C13 UNL     1      26.584   6.047  48.806  1.00  0.00     0.052 A 
HETATM   18  N4  UNL     1      27.220   8.841  46.788  1.00  0.00    -0.191 NA
ENDBRANCH   8  10
ENDBRANCH   7   8
ENDBRANCH   6   7
BRANCH   6  19
HETATM   19  C14 UNL     1      25.256   2.032  52.466  1.00  0.00     0.194 C 
HETATM   20  C15 UNL     1      24.870   0.606  52.597  1.00  0.00     0.205 C 
HETATM   21  O1  UNL     1      23.710   0.523  53.382  1.00  0.00    -0.386 OA
HETATM   22  C16 UNL     1      22.688   1.305  52.862  1.00  0.00     0.193 C 
HETATM   23  C17 UNL     1      23.070   2.734  52.613  1.00  0.00     0.195 C 
HETATM   24  O2  UNL     1      24.237   2.798  51.851  1.00  0.00    -0.376 OA
ENDBRANCH   6  19
ENDBRANCH   4   5
TORSDOF 5
ENDMDL
MODEL 8
REMARK VINA RESULT:      -6.9      2.974      7.583
REMARK  5 active torsions:
REMARK  status: ('A' for Active; 'I' for Inactive)
REMARK    1  A    between atoms: C3_4  and  N2_5 
REMARK    2  A    between atoms: C4_6  and  C5_7 
REMARK    3  A    between atoms: C4_6  and  C14_18 
REMARK    4  A    between atoms: C5_7  and  N3_8 
REMARK    5  A    between atoms: N3_8  and  C6_9 
ROOT
HETATM    1  C1  UNL     1      29.043   6.787  47.892  1.00  0.00     0.039 C 
HETATM    2  C2  UNL     1      27.845   6.989  47.945  1.00  0.00     0.025 C 
HETATM    3  N1  UNL     1      26.470   7.244  48.001  1.00  0.00    -0.192 NA
HETATM    4  C3  UNL     1      25.673   6.464  48.650  1.00  0.00     0.244 C 
ENDROOT
BRANCH   4   5
HETATM    5  N2  UNL     1      25.895   5.283  49.399  1.00  0.00    -0.246 NA
HETATM    6  C4  UNL     1      24.901   4.784  50.103  1.00  0.00     0.062 C 
BRANCH   6   7
HETATM    7  C5  UNL     1      25.184   3.545  50.870  1.00  0.00     0.177 C 
BRANCH   7   8
HETATM    8  N3  UNL     1      24.261   2.537  50.440  1.00  0.00    -0.384 N 
HETATM    9  H5  UNL     1      23.862   2.327  49.499  1.00  0.00     0.160 HD
BRANCH   8  10
HETATM   10  C6  UNL     1      23.735   1.614  51.412  1.00  0.00     0.029 A 
HETATM   11  C7  UNL     1      22.406   1.187  51.514  1.00  0.00     0.030 A 
HETATM   12  C8  UNL     1      22.032   0.296  52.495  1.00  0.00     0.010 A 
HETATM   13  C9  UNL     1      22.932  -0.209  53.409  1.00  0.00    -0.041 A 
HETATM   14  C10 UNL     1      22.512  -1.170  54.461  1.00  0.00     0.049 C 
HETATM   15  C11 UNL     1      24.258   0.171  53.364  1.00  0.00     0.052 A 
HETATM   16  C12 UNL     1      25.263  -0.303  54.272  1.00  0.00     0.100 C 
HETATM   17  C13 UNL     1      24.587   1.062  52.368  1.00  0.00     0.052 A 
HETATM   18  N4  UNL     1      26.063  -0.694  55.018  1.00  0.00    -0.191 NA
ENDBRANCH   8  10
ENDBRANCH   7   8
ENDBRANCH   6   7
BRANCH   6  19
HETATM   19  C14 UNL     1      23.604   5.452  50.100  1.00  0.00     0.194 C 
HETATM   20  C15 UNL     1      23.028   5.854  51.406  1.00  0.00     0.205 C 
HETATM   21  O1  UNL     1      21.856   6.590  51.176  1.00  0.00    -0.386 OA
HETATM   22  C16 UNL     1      20.956   5.880  50.394  1.00  0.00     0.193 C 
HETATM   23  C17 UNL     1      21.529   5.361  49.109  1.00  0.00     0.195 C 
HETATM   24  O2  UNL     1      22.706   4.652  49.354  1.00  0.00    -0.376 OA
ENDBRANCH   6  19
ENDBRANCH   4   5
TORSDOF 5
ENDMDL
MODEL 9
REMARK VINA RESULT:      -6.9      2.597      4.478
REMARK  5 active torsions:
REMARK  status: ('A' for Active; 'I' for Inactive)
REMARK    1  A    between atoms: C3_4  and  N2_5 
REMARK    2  A    between atoms: C4_6  and  C5_7 
REMARK    3  A    between atoms: C4_6  and  C14_18 
REMARK    4  A    between atoms: C5_7  and  N3_8 
REMARK    5  A    between atoms: N3_8  and  C6_9 
ROOT
HETATM    1  C1  UNL     1      20.932   0.665  50.915  1.00  0.00     0.039 C 
HETATM    2  C2  UNL     1      21.760   0.580  51.802  1.00  0.00     0.025 C 
HETATM    3  N1  UNL     1      22.696   0.479  52.837  1.00  0.00    -0.192 NA
HETATM    4  C3  UNL     1      23.874   0.993  52.724  1.00  0.00     0.244 C 
ENDROOT
BRANCH   4   5
HETATM    5  N2  UNL     1      24.504   1.713  51.681  1.00  0.00    -0.246 NA
HETATM    6  C4  UNL     1      25.816   1.810  51.682  1.00  0.00     0.062 C 
BRANCH   6   7
HETATM    7  C5  UNL     1      26.429   2.575  50.567  1.00  0.00     0.177 C 
BRANCH   7   8
HETATM    8  N3  UNL     1      26.268   3.971  50.845  1.00  0.00    -0.384 N 
HETATM    9  H5  UNL     1      26.551   4.545  51.669  1.00  0.00     0.160 HD
BRANCH   8  10
HETATM   10  C6  UNL     1      25.602   4.802  49.875  1.00  0.00     0.029 A 
HETATM   11  C7  UNL     1      26.104   5.980  49.310  1.00  0.00     0.030 A 
HETATM   12  C8  UNL     1      25.362   6.684  48.388  1.00  0.00     0.010 A 
HETATM   13  C9  UNL     1      24.110   6.270  47.984  1.00  0.00    -0.041 A 
HETATM   14  C10 UNL     1      23.323   7.042  46.989  1.00  0.00     0.049 C 
HETATM   15  C11 UNL     1      23.557   5.117  48.503  1.00  0.00     0.052 A 
HETATM   16  C12 UNL     1      22.263   4.611  48.142  1.00  0.00     0.100 C 
HETATM   17  C13 UNL     1      24.333   4.446  49.420  1.00  0.00     0.052 A 
HETATM   18  N4  UNL     1      21.213   4.218  47.840  1.00  0.00    -0.191 NA
ENDBRANCH   8  10
ENDBRANCH   7   8
ENDBRANCH   6   7
BRANCH   6  19
HETATM   19  C14 UNL     1      26.589   1.181  52.748  1.00  0.00     0.194 C 
HETATM   20  C15 UNL     1      27.548   2.025  53.500  1.00  0.00     0.205 C 
HETATM   21  O1  UNL     1      28.084   1.271  54.555  1.00  0.00    -0.386 OA
HETATM   22  C16 UNL     1      28.658   0.094  54.096  1.00  0.00     0.193 C 
HETATM   23  C17 UNL     1      27.755  -0.741  53.239  1.00  0.00     0.195 C 
HETATM   24  O2  UNL     1      27.213   0.030  52.210  1.00  0.00    -0.376 OA
ENDBRANCH   6  19
ENDBRANCH   4   5
TORSDOF 5
ENDMDL
