MODEL 1
REMARK VINA RESULT:      -9.2      0.000      0.000
REMARK  4 active torsions:
REMARK  status: ('A' for Active; 'I' for Inactive)
REMARK    1  A    between atoms: C2_2  and  C3_3 
REMARK       I    between atoms: C3_3  and  N1_5 
REMARK    2  A    between atoms: N1_5  and  C4_6 
REMARK    3  A    between atoms: C9_13  and  N4_14 
REMARK    4  A    between atoms: N4_14  and  C10_15 
ROOT
HETATM    1  C4  UNL     1      21.743   0.655  51.351  1.00  0.00     0.037 C 
HETATM    2  C5  UNL     1      22.751   0.295  52.134  1.00  0.00     0.045 C 
HETATM    3  C6  UNL     1      22.852  -0.388  53.397  1.00  0.00     0.041 A 
HETATM    4  C7  UNL     1      21.953  -1.028  54.222  1.00  0.00     0.074 A 
HETATM    5  N2  UNL     1      22.425  -1.562  55.336  1.00  0.00    -0.241 NA
HETATM    6  C8  UNL     1      23.723  -1.484  55.651  1.00  0.00     0.236 A 
HETATM    7  N3  UNL     1      24.571  -0.854  54.829  1.00  0.00    -0.224 NA
HETATM    8  C9  UNL     1      24.192  -0.289  53.689  1.00  0.00     0.142 A 
HETATM    9  C16 UNL     1      20.498  -1.255  54.120  1.00  0.00     0.057 C 
HETATM   10  C17 UNL     1      19.508  -0.728  53.398  1.00  0.00     0.137 C 
HETATM   11  O2  UNL     1      19.613   0.282  52.452  1.00  0.00    -0.357 OA
HETATM   12  C18 UNL     1      20.280   0.597  51.274  1.00  0.00     0.231 C 
ENDROOT
BRANCH   8  13
HETATM   13  N4  UNL     1      25.189   0.339  52.901  1.00  0.00    -0.340 N 
HETATM   14  H9  UNL     1      25.383   0.954  52.094  1.00  0.00     0.167 HD
BRANCH  13  15
HETATM   15  C10 UNL     1      26.571   0.161  53.222  1.00  0.00     0.035 A 
HETATM   16  C11 UNL     1      27.077  -1.084  52.845  1.00  0.00     0.032 A 
HETATM   17  C12 UNL     1      28.395  -1.429  53.045  1.00  0.00     0.046 A 
HETATM   18  C13 UNL     1      29.276  -0.533  53.640  1.00  0.00     0.138 A 
HETATM   19  F1  UNL     1      30.584  -0.735  53.895  1.00  0.00    -0.204 F 
HETATM   20  C14 UNL     1      28.807   0.703  54.024  1.00  0.00     0.074 A 
HETATM   21 CL1  UNL     1      29.720   1.993  54.787  1.00  0.00    -0.081 Cl
HETATM   22  C15 UNL     1      27.489   1.036  53.818  1.00  0.00     0.056 A 
ENDBRANCH  13  15
ENDBRANCH   8  13
BRANCH   1  23
HETATM   23  N1  UNL     1      22.170   1.327  50.171  1.00  0.00    -0.329 N 
HETATM   24  C3  UNL     1      22.409   2.706  49.995  1.00  0.00     0.221 C 
HETATM   25  O1  UNL     1      22.251   3.522  50.938  1.00  0.00    -0.273 OA
HETATM   26  H6  UNL     1      22.266   0.545  49.464  1.00  0.00     0.168 HD
BRANCH  24  27
HETATM   27  C2  UNL     1      22.846   2.980  48.597  1.00  0.00     0.098 C 
HETATM   28  C1  UNL     1      22.356   1.949  47.638  1.00  0.00     0.014 C 
ENDBRANCH  24  27
ENDBRANCH   1  23
TORSDOF 4
ENDMDL
MODEL 2
REMARK VINA RESULT:      -8.8      2.246      4.833
REMARK  4 active torsions:
REMARK  status: ('A' for Active; 'I' for Inactive)
REMARK    1  A    between atoms: C2_2  and  C3_3 
REMARK       I    between atoms: C3_3  and  N1_5 
REMARK    2  A    between atoms: N1_5  and  C4_6 
REMARK    3  A    between atoms: C9_13  and  N4_14 
REMARK    4  A    between atoms: N4_14  and  C10_15 
ROOT
HETATM    1  C4  UNL     1      22.316   0.911  51.378  1.00  0.00     0.037 C 
HETATM    2  C5  UNL     1      23.366   1.714  51.492  1.00  0.00     0.045 C 
HETATM    3  C6  UNL     1      24.030   2.636  50.607  1.00  0.00     0.041 A 
HETATM    4  C7  UNL     1      23.765   3.121  49.345  1.00  0.00     0.074 A 
HETATM    5  N2  UNL     1      24.624   3.988  48.836  1.00  0.00    -0.241 NA
HETATM    6  C8  UNL     1      25.707   4.378  49.518  1.00  0.00     0.236 A 
HETATM    7  N3  UNL     1      25.937   3.887  50.741  1.00  0.00    -0.224 NA
HETATM    8  C9  UNL     1      25.132   3.014  51.335  1.00  0.00     0.142 A 
HETATM    9  C16 UNL     1      22.669   2.864  48.391  1.00  0.00     0.057 C 
HETATM   10  C17 UNL     1      21.731   1.924  48.259  1.00  0.00     0.137 C 
HETATM   11  O2  UNL     1      21.532   0.825  49.083  1.00  0.00    -0.357 OA
HETATM   12  C18 UNL     1      21.292   0.500  50.413  1.00  0.00     0.231 C 
ENDROOT
BRANCH   8  13
HETATM   13  N4  UNL     1      25.480   2.577  52.638  1.00  0.00    -0.340 N 
HETATM   14  H9  UNL     1      25.298   2.669  53.650  1.00  0.00     0.167 HD
BRANCH  13  15
HETATM   15  C10 UNL     1      26.491   1.580  52.812  1.00  0.00     0.035 A 
HETATM   16  C11 UNL     1      27.702   2.088  53.285  1.00  0.00     0.032 A 
HETATM   17  C12 UNL     1      28.784   1.276  53.543  1.00  0.00     0.046 A 
HETATM   18  C13 UNL     1      28.703  -0.097  53.334  1.00  0.00     0.138 A 
HETATM   19  F1  UNL     1      29.677  -1.004  53.542  1.00  0.00    -0.204 F 
HETATM   20  C14 UNL     1      27.522  -0.628  52.866  1.00  0.00     0.074 A 
HETATM   21 CL1  UNL     1      27.179  -2.315  52.528  1.00  0.00    -0.081 Cl
HETATM   22  C15 UNL     1      26.448   0.193  52.613  1.00  0.00     0.056 A 
ENDBRANCH  13  15
ENDBRANCH   8  13
BRANCH   1  23
HETATM   23  N1  UNL     1      22.048   0.178  52.569  1.00  0.00    -0.329 N 
HETATM   24  C3  UNL     1      21.123   0.484  53.588  1.00  0.00     0.221 C 
HETATM   25  O1  UNL     1      20.400   1.511  53.527  1.00  0.00    -0.273 OA
HETATM   26  H6  UNL     1      22.709  -0.648  52.502  1.00  0.00     0.168 HD
BRANCH  24  27
HETATM   27  C2  UNL     1      21.167  -0.555  54.655  1.00  0.00     0.098 C 
HETATM   28  C1  UNL     1      22.530  -1.135  54.826  1.00  0.00     0.014 C 
ENDBRANCH  24  27
ENDBRANCH   1  23
TORSDOF 4
ENDMDL
MODEL 3
REMARK VINA RESULT:      -8.8      2.431      3.290
REMARK  4 active torsions:
REMARK  status: ('A' for Active; 'I' for Inactive)
REMARK    1  A    between atoms: C2_2  and  C3_3 
REMARK       I    between atoms: C3_3  and  N1_5 
REMARK    2  A    between atoms: N1_5  and  C4_6 
REMARK    3  A    between atoms: C9_13  and  N4_14 
REMARK    4  A    between atoms: N4_14  and  C10_15 
ROOT
HETATM    1  C4  UNL     1      23.925   2.904  49.971  1.00  0.00     0.037 C 
HETATM    2  C5  UNL     1      24.286   2.208  51.041  1.00  0.00     0.045 C 
HETATM    3  C6  UNL     1      23.631   1.235  51.877  1.00  0.00     0.041 A 
HETATM    4  C7  UNL     1      22.424   0.574  51.822  1.00  0.00     0.074 A 
HETATM    5  N2  UNL     1      22.156  -0.281  52.795  1.00  0.00    -0.241 NA
HETATM    6  C8  UNL     1      23.021  -0.495  53.793  1.00  0.00     0.236 A 
HETATM    7  N3  UNL     1      24.185   0.165  53.818  1.00  0.00    -0.224 NA
HETATM    8  C9  UNL     1      24.543   1.042  52.887  1.00  0.00     0.142 A 
HETATM    9  C16 UNL     1      21.308   0.619  50.858  1.00  0.00     0.057 C 
HETATM   10  C17 UNL     1      20.926   1.458  49.893  1.00  0.00     0.137 C 
HETATM   11  O2  UNL     1      21.558   2.634  49.514  1.00  0.00    -0.357 OA
HETATM   12  C18 UNL     1      22.787   3.107  49.070  1.00  0.00     0.231 C 
ENDROOT
BRANCH   8  13
HETATM   13  N4  UNL     1      25.808   1.667  53.021  1.00  0.00    -0.340 N 
HETATM   14  H9  UNL     1      26.322   2.561  53.062  1.00  0.00     0.167 HD
BRANCH  13  15
HETATM   15  C10 UNL     1      26.984   0.872  53.191  1.00  0.00     0.035 A 
HETATM   16  C11 UNL     1      28.077   1.587  53.683  1.00  0.00     0.032 A 
HETATM   17  C12 UNL     1      29.289   0.985  53.940  1.00  0.00     0.046 A 
HETATM   18  C13 UNL     1      29.464  -0.375  53.713  1.00  0.00     0.138 A 
HETATM   19  F1  UNL     1      30.588  -1.090  53.919  1.00  0.00    -0.204 F 
HETATM   20  C14 UNL     1      28.405  -1.108  53.228  1.00  0.00     0.074 A 
HETATM   21 CL1  UNL     1      28.382  -2.825  52.865  1.00  0.00    -0.081 Cl
HETATM   22  C15 UNL     1      27.200  -0.496  52.975  1.00  0.00     0.056 A 
ENDBRANCH  13  15
ENDBRANCH   8  13
BRANCH   1  23
HETATM   23  N1  UNL     1      24.959   3.760  49.494  1.00  0.00    -0.329 N 
HETATM   24  C3  UNL     1      26.354   3.590  49.618  1.00  0.00     0.221 C 
HETATM   25  O1  UNL     1      26.841   2.592  50.206  1.00  0.00    -0.273 OA
HETATM   26  H6  UNL     1      24.428   4.549  49.027  1.00  0.00     0.168 HD
BRANCH  24  27
HETATM   27  C2  UNL     1      27.071   4.725  48.972  1.00  0.00     0.098 C 
HETATM   28  C1  UNL     1      26.203   5.926  48.810  1.00  0.00     0.014 C 
ENDBRANCH  24  27
ENDBRANCH   1  23
TORSDOF 4
ENDMDL
MODEL 4
REMARK VINA RESULT:      -8.5      3.800      6.079
REMARK  4 active torsions:
REMARK  status: ('A' for Active; 'I' for Inactive)
REMARK    1  A    between atoms: C2_2  and  C3_3 
REMARK       I    between atoms: C3_3  and  N1_5 
REMARK    2  A    between atoms: N1_5  and  C4_6 
REMARK    3  A    between atoms: C9_13  and  N4_14 
REMARK    4  A    between atoms: N4_14  and  C10_15 
ROOT
HETATM    1  C4  UNL     1      25.020  -0.065  53.852  1.00  0.00     0.037 C 
HETATM    2  C5  UNL     1      24.577   0.771  52.923  1.00  0.00     0.045 C 
HETATM    3  C6  UNL     1      23.271   1.203  52.497  1.00  0.00     0.041 A 
HETATM    4  C7  UNL     1      21.990   1.003  52.963  1.00  0.00     0.074 A 
HETATM    5  N2  UNL     1      21.005   1.582  52.298  1.00  0.00    -0.241 NA
HETATM    6  C8  UNL     1      21.242   2.332  51.215  1.00  0.00     0.236 A 
HETATM    7  N3  UNL     1      22.498   2.506  50.787  1.00  0.00    -0.224 NA
HETATM    8  C9  UNL     1      23.551   1.966  51.389  1.00  0.00     0.142 A 
HETATM    9  C16 UNL     1      21.456   0.239  54.107  1.00  0.00     0.057 C 
HETATM   10  C17 UNL     1      21.930  -0.717  54.908  1.00  0.00     0.137 C 
HETATM   11  O2  UNL     1      23.189  -1.298  54.858  1.00  0.00    -0.357 OA
HETATM   12  C18 UNL     1      24.538  -0.964  54.904  1.00  0.00     0.231 C 
ENDROOT
BRANCH   8  13
HETATM   13  N4  UNL     1      24.832   2.234  50.843  1.00  0.00    -0.340 N 
HETATM   14  H9  UNL     1      25.744   1.840  50.564  1.00  0.00     0.167 HD
BRANCH  13  15
HETATM   15  C10 UNL     1      25.174   3.564  50.446  1.00  0.00     0.035 A 
HETATM   16  C11 UNL     1      26.227   3.621  49.532  1.00  0.00     0.032 A 
HETATM   17  C12 UNL     1      26.680   4.813  49.011  1.00  0.00     0.046 A 
HETATM   18  C13 UNL     1      26.092   6.016  49.386  1.00  0.00     0.138 A 
HETATM   19  F1  UNL     1      26.431   7.249  48.959  1.00  0.00    -0.204 F 
HETATM   20  C14 UNL     1      25.052   5.994  50.287  1.00  0.00     0.074 A 
HETATM   21 CL1  UNL     1      24.158   7.369  50.908  1.00  0.00    -0.081 Cl
HETATM   22  C15 UNL     1      24.609   4.797  50.800  1.00  0.00     0.056 A 
ENDBRANCH  13  15
ENDBRANCH   8  13
BRANCH   1  23
HETATM   23  N1  UNL     1      26.441  -0.156  53.882  1.00  0.00    -0.329 N 
HETATM   24  C3  UNL     1      27.273  -1.026  53.146  1.00  0.00     0.221 C 
HETATM   25  O1  UNL     1      26.792  -1.860  52.338  1.00  0.00    -0.273 OA
HETATM   26  H6  UNL     1      26.719   0.585  54.586  1.00  0.00     0.168 HD
BRANCH  24  27
HETATM   27  C2  UNL     1      28.703  -0.782  53.483  1.00  0.00     0.098 C 
HETATM   28  C1  UNL     1      28.864   0.196  54.597  1.00  0.00     0.014 C 
ENDBRANCH  24  27
ENDBRANCH   1  23
TORSDOF 4
ENDMDL
MODEL 5
REMARK VINA RESULT:      -8.3      3.418      5.259
REMARK  4 active torsions:
REMARK  status: ('A' for Active; 'I' for Inactive)
REMARK    1  A    between atoms: C2_2  and  C3_3 
REMARK       I    between atoms: C3_3  and  N1_5 
REMARK    2  A    between atoms: N1_5  and  C4_6 
REMARK    3  A    between atoms: C9_13  and  N4_14 
REMARK    4  A    between atoms: N4_14  and  C10_15 
ROOT
HETATM    1  C4  UNL     1      21.739  -0.120  53.115  1.00  0.00     0.037 C 
HETATM    2  C5  UNL     1      22.850   0.398  52.610  1.00  0.00     0.045 C 
HETATM    3  C6  UNL     1      24.232   0.407  53.015  1.00  0.00     0.041 A 
HETATM    4  C7  UNL     1      24.947  -0.211  54.017  1.00  0.00     0.074 A 
HETATM    5  N2  UNL     1      26.245   0.037  54.078  1.00  0.00    -0.241 NA
HETATM    6  C8  UNL     1      26.840   0.857  53.204  1.00  0.00     0.236 A 
HETATM    7  N3  UNL     1      26.117   1.443  52.242  1.00  0.00    -0.224 NA
HETATM    8  C9  UNL     1      24.810   1.255  52.100  1.00  0.00     0.142 A 
HETATM    9  C16 UNL     1      24.551  -1.140  55.093  1.00  0.00     0.057 C 
HETATM   10  C17 UNL     1      23.395  -1.496  55.656  1.00  0.00     0.137 C 
HETATM   11  O2  UNL     1      22.131  -1.025  55.332  1.00  0.00    -0.357 OA
HETATM   12  C18 UNL     1      21.262  -0.912  54.253  1.00  0.00     0.231 C 
ENDROOT
BRANCH   8  13
HETATM   13  N4  UNL     1      24.160   1.926  51.034  1.00  0.00    -0.340 N 
HETATM   14  H9  UNL     1      23.552   1.830  50.204  1.00  0.00     0.167 HD
BRANCH  13  15
HETATM   15  C10 UNL     1      24.280   3.344  50.903  1.00  0.00     0.035 A 
HETATM   16  C11 UNL     1      23.557   4.058  51.860  1.00  0.00     0.032 A 
HETATM   17  C12 UNL     1      23.573   5.434  51.913  1.00  0.00     0.046 A 
HETATM   18  C13 UNL     1      24.321   6.167  50.998  1.00  0.00     0.138 A 
HETATM   19  F1  UNL     1      24.428   7.509  50.933  1.00  0.00    -0.204 F 
HETATM   20  C14 UNL     1      25.044   5.492  50.041  1.00  0.00     0.074 A 
HETATM   21 CL1  UNL     1      26.055   6.191  48.789  1.00  0.00    -0.081 Cl
HETATM   22  C15 UNL     1      25.020   4.118  49.998  1.00  0.00     0.056 A 
ENDBRANCH  13  15
ENDBRANCH   8  13
BRANCH   1  23
HETATM   23  N1  UNL     1      20.589   0.155  52.320  1.00  0.00    -0.329 N 
HETATM   24  C3  UNL     1      19.829   1.341  52.273  1.00  0.00     0.221 C 
HETATM   25  O1  UNL     1      20.124   2.335  52.985  1.00  0.00    -0.273 OA
HETATM   26  H6  UNL     1      20.447  -0.743  51.777  1.00  0.00     0.168 HD
BRANCH  24  27
HETATM   27  C2  UNL     1      18.709   1.198  51.301  1.00  0.00     0.098 C 
HETATM   28  C1  UNL     1      18.113  -0.168  51.320  1.00  0.00     0.014 C 
ENDBRANCH  24  27
ENDBRANCH   1  23
TORSDOF 4
ENDMDL
MODEL 6
REMARK VINA RESULT:      -8.3      4.527      6.894
REMARK  4 active torsions:
REMARK  status: ('A' for Active; 'I' for Inactive)
REMARK    1  A    between atoms: C2_2  and  C3_3 
REMARK       I    between atoms: C3_3  and  N1_5 
REMARK    2  A    between atoms: N1_5  and  C4_6 
REMARK    3  A    between atoms: C9_13  and  N4_14 
REMARK    4  A    between atoms: N4_14  and  C10_15 
ROOT
HETATM    1  C4  UNL     1      24.834   2.093  53.159  1.00  0.00     0.037 C 
HETATM    2  C5  UNL     1      24.258   3.211  52.739  1.00  0.00     0.045 C 
HETATM    3  C6  UNL     1      22.949   3.544  52.240  1.00  0.00     0.041 A 
HETATM    4  C7  UNL     1      21.762   2.857  52.113  1.00  0.00     0.074 A 
HETATM    5  N2  UNL     1      20.734   3.511  51.601  1.00  0.00    -0.241 NA
HETATM    6  C8  UNL     1      20.841   4.789  51.219  1.00  0.00     0.236 A 
HETATM    7  N3  UNL     1      22.009   5.429  51.354  1.00  0.00    -0.224 NA
HETATM    8  C9  UNL     1      23.096   4.856  51.858  1.00  0.00     0.142 A 
HETATM    9  C16 UNL     1      21.375   1.472  52.446  1.00  0.00     0.057 C 
HETATM   10  C17 UNL     1      22.036   0.343  52.709  1.00  0.00     0.137 C 
HETATM   11  O2  UNL     1      23.413   0.172  52.739  1.00  0.00    -0.357 OA
HETATM   12  C18 UNL     1      24.552   0.669  53.362  1.00  0.00     0.231 C 
ENDROOT
BRANCH   8  13
HETATM   13  N4  UNL     1      24.270   5.645  51.959  1.00  0.00    -0.340 N 
HETATM   14  H9  UNL     1      24.986   6.038  52.589  1.00  0.00     0.167 HD
BRANCH  13  15
HETATM   15  C10 UNL     1      24.855   6.208  50.782  1.00  0.00     0.035 A 
HETATM   16  C11 UNL     1      25.493   5.270  49.970  1.00  0.00     0.032 A 
HETATM   17  C12 UNL     1      26.090   5.619  48.779  1.00  0.00     0.046 A 
HETATM   18  C13 UNL     1      26.076   6.939  48.343  1.00  0.00     0.138 A 
HETATM   19  F1  UNL     1      26.617   7.419  47.206  1.00  0.00    -0.204 F 
HETATM   20  C14 UNL     1      25.455   7.889  49.122  1.00  0.00     0.074 A 
HETATM   21 CL1  UNL     1      25.308   9.604  48.786  1.00  0.00    -0.081 Cl
HETATM   22  C15 UNL     1      24.862   7.528  50.309  1.00  0.00     0.056 A 
ENDBRANCH  13  15
ENDBRANCH   8  13
BRANCH   1  23
HETATM   23  N1  UNL     1      26.186   2.285  53.564  1.00  0.00    -0.329 N 
HETATM   24  C3  UNL     1      27.348   2.231  52.766  1.00  0.00     0.221 C 
HETATM   25  O1  UNL     1      27.284   1.989  51.534  1.00  0.00    -0.273 OA
HETATM   26  H6  UNL     1      26.106   2.478  54.602  1.00  0.00     0.168 HD
BRANCH  24  27
HETATM   27  C2  UNL     1      28.557   2.494  53.596  1.00  0.00     0.098 C 
HETATM   28  C1  UNL     1      29.142   1.243  54.158  1.00  0.00     0.014 C 
ENDBRANCH  24  27
ENDBRANCH   1  23
TORSDOF 4
ENDMDL
MODEL 7
REMARK VINA RESULT:      -8.0      3.452      5.942
REMARK  4 active torsions:
REMARK  status: ('A' for Active; 'I' for Inactive)
REMARK    1  A    between atoms: C2_2  and  C3_3 
REMARK       I    between atoms: C3_3  and  N1_5 
REMARK    2  A    between atoms: N1_5  and  C4_6 
REMARK    3  A    between atoms: C9_13  and  N4_14 
REMARK    4  A    between atoms: N4_14  and  C10_15 
ROOT
HETATM    1  C4  UNL     1      24.348  -0.010  53.299  1.00  0.00     0.037 C 
HETATM    2  C5  UNL     1      23.755   0.802  52.434  1.00  0.00     0.045 C 
HETATM    3  C6  UNL     1      22.401   1.251  52.239  1.00  0.00     0.041 A 
HETATM    4  C7  UNL     1      21.225   1.101  52.940  1.00  0.00     0.074 A 
HETATM    5  N2  UNL     1      20.145   1.680  52.444  1.00  0.00    -0.241 NA
HETATM    6  C8  UNL     1      20.191   2.383  51.306  1.00  0.00     0.236 A 
HETATM    7  N3  UNL     1      21.349   2.509  50.647  1.00  0.00    -0.224 NA
HETATM    8  C9  UNL     1      22.485   1.965  51.067  1.00  0.00     0.142 A 
HETATM    9  C16 UNL     1      20.899   0.394  54.193  1.00  0.00     0.057 C 
HETATM   10  C17 UNL     1      21.495  -0.544  54.932  1.00  0.00     0.137 C 
HETATM   11  O2  UNL     1      22.712  -1.158  54.675  1.00  0.00    -0.357 OA
HETATM   12  C18 UNL     1      24.052  -0.857  54.459  1.00  0.00     0.231 C 
ENDROOT
BRANCH   8  13
HETATM   13  N4  UNL     1      23.648   2.180  50.285  1.00  0.00    -0.340 N 
HETATM   14  H9  UNL     1      24.344   1.758  49.650  1.00  0.00     0.167 HD
BRANCH  13  15
HETATM   15  C10 UNL     1      24.238   3.481  50.225  1.00  0.00     0.035 A 
HETATM   16  C11 UNL     1      23.614   4.417  51.052  1.00  0.00     0.032 A 
HETATM   17  C12 UNL     1      24.059   5.717  51.152  1.00  0.00     0.046 A 
HETATM   18  C13 UNL     1      25.161   6.143  50.420  1.00  0.00     0.138 A 
HETATM   19  F1  UNL     1      25.702   7.378  50.420  1.00  0.00    -0.204 F 
HETATM   20  C14 UNL     1      25.799   5.244  49.595  1.00  0.00     0.074 A 
HETATM   21 CL1  UNL     1      27.199   5.544  48.581  1.00  0.00    -0.081 Cl
HETATM   22  C15 UNL     1      25.345   3.949  49.504  1.00  0.00     0.056 A 
ENDBRANCH  13  15
ENDBRANCH   8  13
BRANCH   1  23
HETATM   23  N1  UNL     1      25.748  -0.136  53.071  1.00  0.00    -0.329 N 
HETATM   24  C3  UNL     1      26.799   0.543  53.722  1.00  0.00     0.221 C 
HETATM   25  O1  UNL     1      26.571   1.383  54.630  1.00  0.00    -0.273 OA
HETATM   26  H6  UNL     1      25.807  -0.858  52.299  1.00  0.00     0.168 HD
BRANCH  24  27
HETATM   27  C2  UNL     1      28.113   0.108  53.173  1.00  0.00     0.098 C 
HETATM   28  C1  UNL     1      29.098  -0.214  54.245  1.00  0.00     0.014 C 
ENDBRANCH  24  27
ENDBRANCH   1  23
TORSDOF 4
ENDMDL
MODEL 8
REMARK VINA RESULT:      -8.0      4.465      6.851
REMARK  4 active torsions:
REMARK  status: ('A' for Active; 'I' for Inactive)
REMARK    1  A    between atoms: C2_2  and  C3_3 
REMARK       I    between atoms: C3_3  and  N1_5 
REMARK    2  A    between atoms: N1_5  and  C4_6 
REMARK    3  A    between atoms: C9_13  and  N4_14 
REMARK    4  A    between atoms: N4_14  and  C10_15 
ROOT
HETATM    1  C4  UNL     1      26.330   2.197  52.002  1.00  0.00     0.037 C 
HETATM    2  C5  UNL     1      25.126   1.660  52.150  1.00  0.00     0.045 C 
HETATM    3  C6  UNL     1      24.568   0.669  53.032  1.00  0.00     0.041 A 
HETATM    4  C7  UNL     1      25.036  -0.019  54.130  1.00  0.00     0.074 A 
HETATM    5  N2  UNL     1      24.210  -0.874  54.709  1.00  0.00    -0.241 NA
HETATM    6  C8  UNL     1      22.969  -1.066  54.246  1.00  0.00     0.236 A 
HETATM    7  N3  UNL     1      22.544  -0.383  53.176  1.00  0.00    -0.224 NA
HETATM    8  C9  UNL     1      23.300   0.497  52.530  1.00  0.00     0.142 A 
HETATM    9  C16 UNL     1      26.333  -0.002  54.834  1.00  0.00     0.057 C 
HETATM   10  C17 UNL     1      27.561   0.431  54.543  1.00  0.00     0.137 C 
HETATM   11  O2  UNL     1      27.971   1.045  53.368  1.00  0.00    -0.357 OA
HETATM   12  C18 UNL     1      27.683   2.141  52.563  1.00  0.00     0.231 C 
ENDROOT
BRANCH   8  13
HETATM   13  N4  UNL     1      22.729   1.164  51.416  1.00  0.00    -0.340 N 
HETATM   14  H9  UNL     1      22.897   1.568  50.482  1.00  0.00     0.167 HD
BRANCH  13  15
HETATM   15  C10 UNL     1      21.336   1.482  51.411  1.00  0.00     0.035 A 
HETATM   16  C11 UNL     1      21.045   2.731  51.963  1.00  0.00     0.032 A 
HETATM   17  C12 UNL     1      19.760   3.224  52.019  1.00  0.00     0.046 A 
HETATM   18  C13 UNL     1      18.696   2.481  51.521  1.00  0.00     0.138 A 
HETATM   19  F1  UNL     1      17.396   2.838  51.510  1.00  0.00    -0.204 F 
HETATM   20  C14 UNL     1      18.950   1.245  50.971  1.00  0.00     0.074 A 
HETATM   21 CL1  UNL     1      17.782   0.131  50.283  1.00  0.00    -0.081 Cl
HETATM   22  C15 UNL     1      20.237   0.763  50.920  1.00  0.00     0.056 A 
ENDBRANCH  13  15
ENDBRANCH   8  13
BRANCH   1  23
HETATM   23  N1  UNL     1      26.379   3.166  50.959  1.00  0.00    -0.329 N 
HETATM   24  C3  UNL     1      25.360   4.049  50.544  1.00  0.00     0.221 C 
HETATM   25  O1  UNL     1      24.235   4.056  51.104  1.00  0.00    -0.273 OA
HETATM   26  H6  UNL     1      27.360   3.062  50.574  1.00  0.00     0.168 HD
BRANCH  24  27
HETATM   27  C2  UNL     1      25.839   4.895  49.416  1.00  0.00     0.098 C 
HETATM   28  C1  UNL     1      27.196   4.497  48.944  1.00  0.00     0.014 C 
ENDBRANCH  24  27
ENDBRANCH   1  23
TORSDOF 4
ENDMDL
MODEL 9
REMARK VINA RESULT:      -7.5      3.273      5.589
REMARK  4 active torsions:
REMARK  status: ('A' for Active; 'I' for Inactive)
REMARK    1  A    between atoms: C2_2  and  C3_3 
REMARK       I    between atoms: C3_3  and  N1_5 
REMARK    2  A    between atoms: N1_5  and  C4_6 
REMARK    3  A    between atoms: C9_13  and  N4_14 
REMARK    4  A    between atoms: N4_14  and  C10_15 
ROOT
HETATM    1  C4  UNL     1      20.432   2.806  52.157  1.00  0.00     0.037 C 
HETATM    2  C5  UNL     1      21.508   3.574  52.269  1.00  0.00     0.045 C 
HETATM    3  C6  UNL     1      21.992   4.736  51.570  1.00  0.00     0.041 A 
HETATM    4  C7  UNL     1      21.474   5.562  50.597  1.00  0.00     0.074 A 
HETATM    5  N2  UNL     1      22.229   6.568  50.190  1.00  0.00    -0.241 NA
HETATM    6  C8  UNL     1      23.448   6.776  50.701  1.00  0.00     0.236 A 
HETATM    7  N3  UNL     1      23.924   5.955  51.644  1.00  0.00    -0.224 NA
HETATM    8  C9  UNL     1      23.240   4.919  52.117  1.00  0.00     0.142 A 
HETATM    9  C16 UNL     1      20.187   5.561  49.875  1.00  0.00     0.057 C 
HETATM   10  C17 UNL     1      19.212   4.671  49.682  1.00  0.00     0.137 C 
HETATM   11  O2  UNL     1      19.161   3.373  50.170  1.00  0.00    -0.357 OA
HETATM   12  C18 UNL     1      19.208   2.663  51.364  1.00  0.00     0.231 C 
ENDROOT
BRANCH   8  13
HETATM   13  N4  UNL     1      23.851   4.131  53.125  1.00  0.00    -0.340 N 
HETATM   14  H9  UNL     1      24.027   4.019  54.136  1.00  0.00     0.167 HD
BRANCH  13  15
HETATM   15  C10 UNL     1      24.559   2.941  52.769  1.00  0.00     0.035 A 
HETATM   16  C11 UNL     1      25.348   3.079  51.627  1.00  0.00     0.032 A 
HETATM   17  C12 UNL     1      26.127   2.050  51.146  1.00  0.00     0.046 A 
HETATM   18  C13 UNL     1      26.149   0.820  51.795  1.00  0.00     0.138 A 
HETATM   19  F1  UNL     1      26.861  -0.268  51.438  1.00  0.00    -0.204 F 
HETATM   20  C14 UNL     1      25.381   0.652  52.924  1.00  0.00     0.074 A 
HETATM   21 CL1  UNL     1      25.246  -0.795  53.908  1.00  0.00    -0.081 Cl
HETATM   22  C15 UNL     1      24.608   1.687  53.394  1.00  0.00     0.056 A 
ENDBRANCH  13  15
ENDBRANCH   8  13
BRANCH   1  23
HETATM   23  N1  UNL     1      20.408   1.747  53.109  1.00  0.00    -0.329 N 
HETATM   24  C3  UNL     1      21.006   0.473  53.008  1.00  0.00     0.221 C 
HETATM   25  O1  UNL     1      21.663   0.139  51.989  1.00  0.00    -0.273 OA
HETATM   26  H6  UNL     1      19.835   2.146  53.905  1.00  0.00     0.168 HD
BRANCH  24  27
HETATM   27  C2  UNL     1      20.732  -0.325  54.236  1.00  0.00     0.098 C 
HETATM   28  C1  UNL     1      21.982  -0.801  54.893  1.00  0.00     0.014 C 
ENDBRANCH  24  27
ENDBRANCH   1  23
TORSDOF 4
ENDMDL
