MODEL 1
REMARK VINA RESULT:      -8.5      0.000      0.000
REMARK  8 active torsions:
REMARK  status: ('A' for Active; 'I' for Inactive)
REMARK    1  A    between atoms: C3_3  and  C4_4 
REMARK    2  A    between atoms: C4_4  and  C5_5 
REMARK    3  A    between atoms: C6_7  and  N1_8 
REMARK       I    between atoms: N1_8  and  C8_10 
REMARK    4  A    between atoms: C8_10  and  C9_12 
REMARK    5  A    between atoms: C10_13  and  C11_14 
REMARK    6  A    between atoms: C11_14  and  N2_15 
REMARK    7  A    between atoms: C14_19  and  N4_20 
REMARK    8  A    between atoms: N4_20  and  C15_21 
ROOT
HETATM    1  C1  UNL     1      23.021   2.394  50.088  1.00  0.00     0.066 C 
HETATM    2  C2  UNL     1      23.843   2.120  51.054  1.00  0.00     0.047 A 
HETATM    3  C3  UNL     1      25.014   2.833  51.150  1.00  0.00     0.085 A 
HETATM    4  N3  UNL     1      25.830   2.507  52.170  1.00  0.00    -0.227 NA
HETATM    5  C14 UNL     1      25.481   1.533  53.027  1.00  0.00     0.157 A 
HETATM    6  C22 UNL     1      24.298   0.836  52.903  1.00  0.00     0.104 A 
HETATM    7  C23 UNL     1      23.757  -0.183  53.658  1.00  0.00     0.151 A 
HETATM    8  N5  UNL     1      22.588  -0.459  53.058  1.00  0.00    -0.253 NA
HETATM    9  C24 UNL     1      22.404   0.341  51.983  1.00  0.00     0.214 A 
HETATM   10  N6  UNL     1      23.471   1.145  51.892  1.00  0.00    -0.303 N 
ENDROOT
BRANCH   3  11
HETATM   11  C4  UNL     1      25.418   3.796  50.350  1.00  0.00     0.077 C 
BRANCH  11  12
HETATM   12  C5  UNL     1      26.544   3.632  49.441  1.00  0.00     0.134 C 
HETATM   13  F1  UNL     1      26.841   2.333  49.146  1.00  0.00    -0.205 F 
HETATM   14  C6  UNL     1      27.272   4.557  48.898  1.00  0.00     0.136 C 
BRANCH  14  15
HETATM   15  N1  UNL     1      27.573   5.921  48.719  1.00  0.00    -0.326 N 
HETATM   16  C7  UNL     1      28.920   5.866  48.133  1.00  0.00     0.159 C 
HETATM   17  C8  UNL     1      26.986   7.227  48.927  1.00  0.00     0.246 C 
HETATM   18  O1  UNL     1      27.745   8.190  48.569  1.00  0.00    -0.268 OA
BRANCH  17  19
HETATM   19  C9  UNL     1      25.659   7.452  49.487  1.00  0.00     0.072 C 
HETATM   20  C10 UNL     1      24.889   7.302  50.576  1.00  0.00     0.008 C 
BRANCH  20  21
HETATM   21  C11 UNL     1      23.457   7.697  50.764  1.00  0.00     0.299 C 
BRANCH  21  22
HETATM   22  N2  UNL     1      22.568   6.656  50.309  1.00  0.00     0.083 N 
HETATM   23  C12 UNL     1      22.346   5.744  51.389  1.00  0.00     0.309 C 
HETATM   24  C13 UNL     1      21.348   7.177  49.751  1.00  0.00     0.309 C 
ENDBRANCH  21  22
ENDBRANCH  20  21
ENDBRANCH  17  19
ENDBRANCH  14  15
ENDBRANCH  11  12
ENDBRANCH   3  11
BRANCH   5  25
HETATM   25  N4  UNL     1      26.345   1.190  54.103  1.00  0.00    -0.339 N 
HETATM   26  H18 UNL     1      26.218   1.479  55.097  1.00  0.00     0.167 HD
BRANCH  25  27
HETATM   27  C15 UNL     1      27.479   0.386  53.803  1.00  0.00     0.039 A 
HETATM   28  C16 UNL     1      27.374  -0.958  53.514  1.00  0.00     0.030 A 
HETATM   29  C17 UNL     1      28.390  -1.837  53.209  1.00  0.00     0.002 A 
HETATM   30  C18 UNL     1      29.675  -1.279  53.196  1.00  0.00     0.001 A 
HETATM   31  C19 UNL     1      29.850   0.068  53.477  1.00  0.00     0.009 A 
HETATM   32  C20 UNL     1      28.761   0.895  53.778  1.00  0.00    -0.035 A 
HETATM   33  C21 UNL     1      28.989   2.322  54.070  1.00  0.00     0.050 C 
ENDBRANCH  25  27
ENDBRANCH   5  25
TORSDOF 8
ENDMDL
MODEL 2
REMARK VINA RESULT:      -8.4      1.946      4.451
REMARK  8 active torsions:
REMARK  status: ('A' for Active; 'I' for Inactive)
REMARK    1  A    between atoms: C3_3  and  C4_4 
REMARK    2  A    between atoms: C4_4  and  C5_5 
REMARK    3  A    between atoms: C6_7  and  N1_8 
REMARK       I    between atoms: N1_8  and  C8_10 
REMARK    4  A    between atoms: C8_10  and  C9_12 
REMARK    5  A    between atoms: C10_13  and  C11_14 
REMARK    6  A    between atoms: C11_14  and  N2_15 
REMARK    7  A    between atoms: C14_19  and  N4_20 
REMARK    8  A    between atoms: N4_20  and  C15_21 
ROOT
HETATM    1  C1  UNL     1      23.233   2.876  49.917  1.00  0.00     0.066 C 
HETATM    2  C2  UNL     1      23.982   2.495  50.906  1.00  0.00     0.047 A 
HETATM    3  C3  UNL     1      25.208   3.093  51.078  1.00  0.00     0.085 A 
HETATM    4  N3  UNL     1      25.944   2.659  52.118  1.00  0.00    -0.227 NA
HETATM    5  C14 UNL     1      25.470   1.692  52.922  1.00  0.00     0.157 A 
HETATM    6  C22 UNL     1      24.236   1.112  52.722  1.00  0.00     0.104 A 
HETATM    7  C23 UNL     1      23.570   0.122  53.414  1.00  0.00     0.151 A 
HETATM    8  N5  UNL     1      22.410  -0.025  52.755  1.00  0.00    -0.253 NA
HETATM    9  C24 UNL     1      22.347   0.825  51.705  1.00  0.00     0.214 A 
HETATM   10  N6  UNL     1      23.487   1.530  51.689  1.00  0.00    -0.303 N 
ENDROOT
BRANCH   3  11
HETATM   11  C4  UNL     1      25.734   4.041  50.333  1.00  0.00     0.077 C 
BRANCH  11  12
HETATM   12  C5  UNL     1      26.743   3.766  49.320  1.00  0.00     0.134 C 
HETATM   13  F1  UNL     1      26.882   2.444  49.011  1.00  0.00    -0.205 F 
HETATM   14  C6  UNL     1      27.501   4.615  48.699  1.00  0.00     0.136 C 
BRANCH  14  15
HETATM   15  N1  UNL     1      27.915   5.942  48.476  1.00  0.00    -0.326 N 
HETATM   16  C7  UNL     1      26.634   6.663  48.442  1.00  0.00     0.159 C 
HETATM   17  C8  UNL     1      29.124   6.715  48.293  1.00  0.00     0.246 C 
HETATM   18  O1  UNL     1      28.910   7.961  48.112  1.00  0.00    -0.268 OA
BRANCH  17  19
HETATM   19  C9  UNL     1      30.469   6.154  48.310  1.00  0.00     0.072 C 
HETATM   20  C10 UNL     1      31.384   5.478  47.597  1.00  0.00     0.008 C 
BRANCH  20  21
HETATM   21  C11 UNL     1      32.763   5.063  48.009  1.00  0.00     0.299 C 
BRANCH  21  22
HETATM   22  N2  UNL     1      32.959   3.648  47.807  1.00  0.00     0.083 N 
HETATM   23  C12 UNL     1      32.175   3.236  46.682  1.00  0.00     0.309 C 
HETATM   24  C13 UNL     1      34.349   3.296  47.685  1.00  0.00     0.309 C 
ENDBRANCH  21  22
ENDBRANCH  20  21
ENDBRANCH  17  19
ENDBRANCH  14  15
ENDBRANCH  11  12
ENDBRANCH   3  11
BRANCH   5  25
HETATM   25  N4  UNL     1      26.250   1.234  54.019  1.00  0.00    -0.339 N 
HETATM   26  H18 UNL     1      26.091   1.481  55.019  1.00  0.00     0.167 HD
BRANCH  25  27
HETATM   27  C15 UNL     1      27.339   0.365  53.732  1.00  0.00     0.039 A 
HETATM   28  C16 UNL     1      27.155  -0.947  53.351  1.00  0.00     0.030 A 
HETATM   29  C17 UNL     1      28.122  -1.880  53.048  1.00  0.00     0.002 A 
HETATM   30  C18 UNL     1      29.442  -1.422  53.144  1.00  0.00     0.001 A 
HETATM   31  C19 UNL     1      29.696  -0.111  53.522  1.00  0.00     0.009 A 
HETATM   32  C20 UNL     1      28.654   0.777  53.814  1.00  0.00    -0.035 A 
HETATM   33  C21 UNL     1      28.966   2.162  54.210  1.00  0.00     0.050 C 
ENDBRANCH  25  27
ENDBRANCH   5  25
TORSDOF 8
ENDMDL
MODEL 3
REMARK VINA RESULT:      -8.3      1.708      2.268
REMARK  8 active torsions:
REMARK  status: ('A' for Active; 'I' for Inactive)
REMARK    1  A    between atoms: C3_3  and  C4_4 
REMARK    2  A    between atoms: C4_4  and  C5_5 
REMARK    3  A    between atoms: C6_7  and  N1_8 
REMARK       I    between atoms: N1_8  and  C8_10 
REMARK    4  A    between atoms: C8_10  and  C9_12 
REMARK    5  A    between atoms: C10_13  and  C11_14 
REMARK    6  A    between atoms: C11_14  and  N2_15 
REMARK    7  A    between atoms: C14_19  and  N4_20 
REMARK    8  A    between atoms: N4_20  and  C15_21 
ROOT
HETATM    1  C1  UNL     1      22.337   1.764  49.715  1.00  0.00     0.066 C 
HETATM    2  C2  UNL     1      23.225   1.723  50.661  1.00  0.00     0.047 A 
HETATM    3  C3  UNL     1      24.402   2.413  50.496  1.00  0.00     0.085 A 
HETATM    4  N3  UNL     1      25.287   2.334  51.508  1.00  0.00    -0.227 NA
HETATM    5  C14 UNL     1      24.997   1.610  52.601  1.00  0.00     0.157 A 
HETATM    6  C22 UNL     1      23.807   0.928  52.736  1.00  0.00     0.104 A 
HETATM    7  C23 UNL     1      23.318   0.140  53.756  1.00  0.00     0.151 A 
HETATM    8  N5  UNL     1      22.109  -0.253  53.324  1.00  0.00    -0.253 NA
HETATM    9  C24 UNL     1      21.851   0.259  52.099  1.00  0.00     0.214 A 
HETATM   10  N6  UNL     1      22.911   0.994  51.738  1.00  0.00    -0.303 N 
ENDROOT
BRANCH   3  11
HETATM   11  C4  UNL     1      24.751   3.139  49.456  1.00  0.00     0.077 C 
BRANCH  11  12
HETATM   12  C5  UNL     1      25.878   4.060  49.492  1.00  0.00     0.134 C 
HETATM   13  F1  UNL     1      27.069   3.503  49.128  1.00  0.00    -0.205 F 
HETATM   14  C6  UNL     1      25.873   5.313  49.823  1.00  0.00     0.136 C 
BRANCH  14  15
HETATM   15  N1  UNL     1      25.172   6.456  50.254  1.00  0.00    -0.326 N 
HETATM   16  C7  UNL     1      26.091   7.541  49.879  1.00  0.00     0.159 C 
HETATM   17  C8  UNL     1      23.928   6.822  50.894  1.00  0.00     0.246 C 
HETATM   18  O1  UNL     1      23.792   8.081  51.061  1.00  0.00    -0.268 OA
BRANCH  17  19
HETATM   19  C9  UNL     1      22.909   5.870  51.316  1.00  0.00     0.072 C 
HETATM   20  C10 UNL     1      21.639   5.471  51.137  1.00  0.00     0.008 C 
BRANCH  20  21
HETATM   21  C11 UNL     1      20.908   4.359  51.822  1.00  0.00     0.299 C 
BRANCH  21  22
HETATM   22  N2  UNL     1      19.902   3.791  50.958  1.00  0.00     0.083 N 
HETATM   23  C12 UNL     1      19.129   2.854  51.715  1.00  0.00     0.309 C 
HETATM   24  C13 UNL     1      19.097   4.795  50.313  1.00  0.00     0.309 C 
ENDBRANCH  21  22
ENDBRANCH  20  21
ENDBRANCH  17  19
ENDBRANCH  14  15
ENDBRANCH  11  12
ENDBRANCH   3  11
BRANCH   5  25
HETATM   25  N4  UNL     1      25.935   1.528  53.668  1.00  0.00    -0.339 N 
HETATM   26  H18 UNL     1      25.889   2.070  54.557  1.00  0.00     0.167 HD
BRANCH  25  27
HETATM   27  C15 UNL     1      27.028   0.631  53.511  1.00  0.00     0.039 A 
HETATM   28  C16 UNL     1      26.850  -0.721  53.311  1.00  0.00     0.030 A 
HETATM   29  C17 UNL     1      27.821  -1.684  53.146  1.00  0.00     0.002 A 
HETATM   30  C18 UNL     1      29.140  -1.213  53.192  1.00  0.00     0.001 A 
HETATM   31  C19 UNL     1      29.388   0.138  53.390  1.00  0.00     0.009 A 
HETATM   32  C20 UNL     1      28.341   1.054  53.549  1.00  0.00    -0.035 A 
HETATM   33  C21 UNL     1      28.647   2.480  53.757  1.00  0.00     0.050 C 
ENDBRANCH  25  27
ENDBRANCH   5  25
TORSDOF 8
ENDMDL
MODEL 4
REMARK VINA RESULT:      -8.2      1.978      4.017
REMARK  8 active torsions:
REMARK  status: ('A' for Active; 'I' for Inactive)
REMARK    1  A    between atoms: C3_3  and  C4_4 
REMARK    2  A    between atoms: C4_4  and  C5_5 
REMARK    3  A    between atoms: C6_7  and  N1_8 
REMARK       I    between atoms: N1_8  and  C8_10 
REMARK    4  A    between atoms: C8_10  and  C9_12 
REMARK    5  A    between atoms: C10_13  and  C11_14 
REMARK    6  A    between atoms: C11_14  and  N2_15 
REMARK    7  A    between atoms: C14_19  and  N4_20 
REMARK    8  A    between atoms: N4_20  and  C15_21 
ROOT
HETATM    1  C1  UNL     1      21.338   1.595  52.460  1.00  0.00     0.066 C 
HETATM    2  C2  UNL     1      22.365   0.976  52.957  1.00  0.00     0.047 A 
HETATM    3  C3  UNL     1      23.625   1.446  52.671  1.00  0.00     0.085 A 
HETATM    4  N3  UNL     1      24.653   0.766  53.212  1.00  0.00    -0.227 NA
HETATM    5  C14 UNL     1      24.419  -0.309  53.984  1.00  0.00     0.157 A 
HETATM    6  C22 UNL     1      23.142  -0.755  54.251  1.00  0.00     0.104 A 
HETATM    7  C23 UNL     1      22.687  -1.817  55.003  1.00  0.00     0.151 A 
HETATM    8  N5  UNL     1      21.350  -1.752  54.897  1.00  0.00    -0.253 NA
HETATM    9  C24 UNL     1      20.984  -0.708  54.120  1.00  0.00     0.214 A 
HETATM   10  N6  UNL     1      22.103  -0.090  53.721  1.00  0.00    -0.303 N 
ENDROOT
BRANCH   3  11
HETATM   11  C4  UNL     1      23.927   2.488  51.926  1.00  0.00     0.077 C 
BRANCH  11  12
HETATM   12  C5  UNL     1      23.894   3.849  52.441  1.00  0.00     0.134 C 
HETATM   13  F1  UNL     1      24.198   3.954  53.767  1.00  0.00    -0.205 F 
HETATM   14  C6  UNL     1      23.615   4.939  51.797  1.00  0.00     0.136 C 
BRANCH  14  15
HETATM   15  N1  UNL     1      23.254   5.587  50.600  1.00  0.00    -0.326 N 
HETATM   16  C7  UNL     1      21.869   5.995  50.877  1.00  0.00     0.159 C 
HETATM   17  C8  UNL     1      23.809   5.929  49.309  1.00  0.00     0.246 C 
HETATM   18  O1  UNL     1      22.992   6.555  48.553  1.00  0.00    -0.268 OA
BRANCH  17  19
HETATM   19  C9  UNL     1      25.165   5.607  48.885  1.00  0.00     0.072 C 
HETATM   20  C10 UNL     1      26.426   5.411  49.302  1.00  0.00     0.008 C 
BRANCH  20  21
HETATM   21  C11 UNL     1      27.633   5.067  48.485  1.00  0.00     0.299 C 
BRANCH  21  22
HETATM   22  N2  UNL     1      28.547   6.181  48.418  1.00  0.00     0.083 N 
HETATM   23  C12 UNL     1      29.857   5.678  48.131  1.00  0.00     0.309 C 
HETATM   24  C13 UNL     1      28.116   7.193  47.490  1.00  0.00     0.309 C 
ENDBRANCH  21  22
ENDBRANCH  20  21
ENDBRANCH  17  19
ENDBRANCH  14  15
ENDBRANCH  11  12
ENDBRANCH   3  11
BRANCH   5  25
HETATM   25  N4  UNL     1      25.507  -1.026  54.552  1.00  0.00    -0.339 N 
HETATM   26  H18 UNL     1      25.423  -1.848  55.188  1.00  0.00     0.167 HD
BRANCH  25  27
HETATM   27  C15 UNL     1      26.821  -0.590  54.227  1.00  0.00     0.039 A 
HETATM   28  C16 UNL     1      27.435   0.454  54.886  1.00  0.00     0.030 A 
HETATM   29  C17 UNL     1      28.695   0.966  54.665  1.00  0.00     0.002 A 
HETATM   30  C18 UNL     1      29.422   0.338  53.646  1.00  0.00     0.001 A 
HETATM   31  C19 UNL     1      28.862  -0.720  52.944  1.00  0.00     0.009 A 
HETATM   32  C20 UNL     1      27.571  -1.181  53.232  1.00  0.00    -0.035 A 
HETATM   33  C21 UNL     1      27.013  -2.308  52.464  1.00  0.00     0.050 C 
ENDBRANCH  25  27
ENDBRANCH   5  25
TORSDOF 8
ENDMDL
MODEL 5
REMARK VINA RESULT:      -8.0      3.510      7.087
REMARK  8 active torsions:
REMARK  status: ('A' for Active; 'I' for Inactive)
REMARK    1  A    between atoms: C3_3  and  C4_4 
REMARK    2  A    between atoms: C4_4  and  C5_5 
REMARK    3  A    between atoms: C6_7  and  N1_8 
REMARK       I    between atoms: N1_8  and  C8_10 
REMARK    4  A    between atoms: C8_10  and  C9_12 
REMARK    5  A    between atoms: C10_13  and  C11_14 
REMARK    6  A    between atoms: C11_14  and  N2_15 
REMARK    7  A    between atoms: C14_19  and  N4_20 
REMARK    8  A    between atoms: N4_20  and  C15_21 
ROOT
HETATM    1  C1  UNL     1      24.179  -1.234  55.355  1.00  0.00     0.066 C 
HETATM    2  C2  UNL     1      24.420  -0.459  54.342  1.00  0.00     0.047 A 
HETATM    3  C3  UNL     1      23.450  -0.307  53.379  1.00  0.00     0.085 A 
HETATM    4  N3  UNL     1      23.753   0.507  52.350  1.00  0.00    -0.227 NA
HETATM    5  C14 UNL     1      24.949   1.118  52.304  1.00  0.00     0.157 A 
HETATM    6  C22 UNL     1      25.900   0.943  53.286  1.00  0.00     0.104 A 
HETATM    7  C23 UNL     1      27.168   1.465  53.430  1.00  0.00     0.151 A 
HETATM    8  N5  UNL     1      27.618   0.938  54.579  1.00  0.00    -0.253 NA
HETATM    9  C24 UNL     1      26.685   0.129  55.130  1.00  0.00     0.214 A 
HETATM   10  N6  UNL     1      25.618   0.135  54.320  1.00  0.00    -0.303 N 
ENDROOT
BRANCH   3  11
HETATM   11  C4  UNL     1      22.262  -0.872  53.361  1.00  0.00     0.077 C 
BRANCH  11  12
HETATM   12  C5  UNL     1      21.091  -0.241  53.954  1.00  0.00     0.134 C 
HETATM   13  F1  UNL     1      21.268   0.171  55.242  1.00  0.00    -0.205 F 
HETATM   14  C6  UNL     1      19.934  -0.035  53.407  1.00  0.00     0.136 C 
BRANCH  14  15
HETATM   15  N1  UNL     1      19.076  -0.144  52.296  1.00  0.00    -0.326 N 
HETATM   16  C7  UNL     1      17.922  -0.855  52.865  1.00  0.00     0.159 C 
HETATM   17  C8  UNL     1      19.019   0.213  50.895  1.00  0.00     0.246 C 
HETATM   18  O1  UNL     1      17.940  -0.155  50.319  1.00  0.00    -0.268 OA
BRANCH  17  19
HETATM   19  C9  UNL     1      20.073   0.926  50.185  1.00  0.00     0.072 C 
HETATM   20  C10 UNL     1      21.097   1.784  50.317  1.00  0.00     0.008 C 
BRANCH  20  21
HETATM   21  C11 UNL     1      22.011   2.312  49.254  1.00  0.00     0.299 C 
BRANCH  21  22
HETATM   22  N2  UNL     1      21.330   3.268  48.415  1.00  0.00     0.083 N 
HETATM   23  C12 UNL     1      21.456   4.565  49.008  1.00  0.00     0.309 C 
HETATM   24  C13 UNL     1      21.785   3.226  47.050  1.00  0.00     0.309 C 
ENDBRANCH  21  22
ENDBRANCH  20  21
ENDBRANCH  17  19
ENDBRANCH  14  15
ENDBRANCH  11  12
ENDBRANCH   3  11
BRANCH   5  25
HETATM   25  N4  UNL     1      25.266   1.976  51.215  1.00  0.00    -0.339 N 
HETATM   26  H18 UNL     1      25.817   1.704  50.372  1.00  0.00     0.167 HD
BRANCH  25  27
HETATM   27  C15 UNL     1      24.794   3.316  51.277  1.00  0.00     0.039 A 
HETATM   28  C16 UNL     1      23.863   3.727  52.206  1.00  0.00     0.030 A 
HETATM   29  C17 UNL     1      23.332   4.988  52.366  1.00  0.00     0.002 A 
HETATM   30  C18 UNL     1      23.806   5.952  51.468  1.00  0.00     0.001 A 
HETATM   31  C19 UNL     1      24.746   5.604  50.508  1.00  0.00     0.009 A 
HETATM   32  C20 UNL     1      25.236   4.296  50.412  1.00  0.00    -0.035 A 
HETATM   33  C21 UNL     1      26.234   3.966  49.379  1.00  0.00     0.050 C 
ENDBRANCH  25  27
ENDBRANCH   5  25
TORSDOF 8
ENDMDL
MODEL 6
REMARK VINA RESULT:      -8.0      0.891      1.574
REMARK  8 active torsions:
REMARK  status: ('A' for Active; 'I' for Inactive)
REMARK    1  A    between atoms: C3_3  and  C4_4 
REMARK    2  A    between atoms: C4_4  and  C5_5 
REMARK    3  A    between atoms: C6_7  and  N1_8 
REMARK       I    between atoms: N1_8  and  C8_10 
REMARK    4  A    between atoms: C8_10  and  C9_12 
REMARK    5  A    between atoms: C10_13  and  C11_14 
REMARK    6  A    between atoms: C11_14  and  N2_15 
REMARK    7  A    between atoms: C14_19  and  N4_20 
REMARK    8  A    between atoms: N4_20  and  C15_21 
ROOT
HETATM    1  C1  UNL     1      22.961   2.669  50.132  1.00  0.00     0.066 C 
HETATM    2  C2  UNL     1      23.649   2.131  51.092  1.00  0.00     0.047 A 
HETATM    3  C3  UNL     1      24.901   2.626  51.370  1.00  0.00     0.085 A 
HETATM    4  N3  UNL     1      25.569   2.030  52.375  1.00  0.00    -0.227 NA
HETATM    5  C14 UNL     1      25.008   1.010  53.046  1.00  0.00     0.157 A 
HETATM    6  C22 UNL     1      23.750   0.536  52.742  1.00  0.00     0.104 A 
HETATM    7  C23 UNL     1      23.001  -0.481  53.294  1.00  0.00     0.151 A 
HETATM    8  N5  UNL     1      21.860  -0.478  52.588  1.00  0.00    -0.253 NA
HETATM    9  C24 UNL     1      21.888   0.489  51.642  1.00  0.00     0.214 A 
HETATM   10  N6  UNL     1      23.067   1.117  51.743  1.00  0.00    -0.303 N 
ENDROOT
BRANCH   3  11
HETATM   11  C4  UNL     1      25.510   3.618  50.756  1.00  0.00     0.077 C 
BRANCH  11  12
HETATM   12  C5  UNL     1      26.523   3.396  49.734  1.00  0.00     0.134 C 
HETATM   13  F1  UNL     1      26.913   2.094  49.605  1.00  0.00    -0.205 F 
HETATM   14  C6  UNL     1      27.079   4.273  48.959  1.00  0.00     0.136 C 
BRANCH  14  15
HETATM   15  N1  UNL     1      27.213   5.608  48.530  1.00  0.00    -0.326 N 
HETATM   16  C7  UNL     1      28.668   5.731  48.356  1.00  0.00     0.159 C 
HETATM   17  C8  UNL     1      26.403   6.771  48.242  1.00  0.00     0.246 C 
HETATM   18  O1  UNL     1      27.082   7.786  47.869  1.00  0.00    -0.268 OA
BRANCH  17  19
HETATM   19  C9  UNL     1      24.950   6.809  48.354  1.00  0.00     0.072 C 
HETATM   20  C10 UNL     1      23.906   6.549  49.156  1.00  0.00     0.008 C 
BRANCH  20  21
HETATM   21  C11 UNL     1      22.447   6.744  48.877  1.00  0.00     0.299 C 
BRANCH  21  22
HETATM   22  N2  UNL     1      21.657   6.504  50.060  1.00  0.00     0.083 N 
HETATM   23  C12 UNL     1      20.648   5.540  49.745  1.00  0.00     0.309 C 
HETATM   24  C13 UNL     1      22.461   6.130  51.194  1.00  0.00     0.309 C 
ENDBRANCH  21  22
ENDBRANCH  20  21
ENDBRANCH  17  19
ENDBRANCH  14  15
ENDBRANCH  11  12
ENDBRANCH   3  11
BRANCH   5  25
HETATM   25  N4  UNL     1      25.718   0.381  54.106  1.00  0.00    -0.339 N 
HETATM   26  H18 UNL     1      25.300   0.058  55.005  1.00  0.00     0.167 HD
BRANCH  25  27
HETATM   27  C15 UNL     1      27.113   0.174  53.929  1.00  0.00     0.039 A 
HETATM   28  C16 UNL     1      28.058   1.037  54.442  1.00  0.00     0.030 A 
HETATM   29  C17 UNL     1      29.429   0.944  54.338  1.00  0.00     0.002 A 
HETATM   30  C18 UNL     1      29.898  -0.164  53.622  1.00  0.00     0.001 A 
HETATM   31  C19 UNL     1      28.999  -1.072  53.080  1.00  0.00     0.009 A 
HETATM   32  C20 UNL     1      27.617  -0.905  53.231  1.00  0.00    -0.035 A 
HETATM   33  C21 UNL     1      26.696  -1.892  52.641  1.00  0.00     0.050 C 
ENDBRANCH  25  27
ENDBRANCH   5  25
TORSDOF 8
ENDMDL
MODEL 7
REMARK VINA RESULT:      -8.0      1.897      2.619
REMARK  8 active torsions:
REMARK  status: ('A' for Active; 'I' for Inactive)
REMARK    1  A    between atoms: C3_3  and  C4_4 
REMARK    2  A    between atoms: C4_4  and  C5_5 
REMARK    3  A    between atoms: C6_7  and  N1_8 
REMARK       I    between atoms: N1_8  and  C8_10 
REMARK    4  A    between atoms: C8_10  and  C9_12 
REMARK    5  A    between atoms: C10_13  and  C11_14 
REMARK    6  A    between atoms: C11_14  and  N2_15 
REMARK    7  A    between atoms: C14_19  and  N4_20 
REMARK    8  A    between atoms: N4_20  and  C15_21 
ROOT
HETATM    1  C1  UNL     1      21.831   2.049  52.330  1.00  0.00     0.066 C 
HETATM    2  C2  UNL     1      22.789   1.338  52.841  1.00  0.00     0.047 A 
HETATM    3  C3  UNL     1      24.089   1.642  52.512  1.00  0.00     0.085 A 
HETATM    4  N3  UNL     1      25.042   0.873  53.071  1.00  0.00    -0.227 NA
HETATM    5  C14 UNL     1      24.700  -0.129  53.899  1.00  0.00     0.157 A 
HETATM    6  C22 UNL     1      23.387  -0.408  54.208  1.00  0.00     0.104 A 
HETATM    7  C23 UNL     1      22.826  -1.372  55.019  1.00  0.00     0.151 A 
HETATM    8  N5  UNL     1      21.504  -1.157  54.930  1.00  0.00    -0.253 NA
HETATM    9  C24 UNL     1      21.246  -0.115  54.108  1.00  0.00     0.214 A 
HETATM   10  N6  UNL     1      22.421   0.347  53.661  1.00  0.00    -0.303 N 
ENDROOT
BRANCH   3  11
HETATM   11  C4  UNL     1      24.495   2.604  51.712  1.00  0.00     0.077 C 
BRANCH  11  12
HETATM   12  C5  UNL     1      25.696   2.484  50.897  1.00  0.00     0.134 C 
HETATM   13  F1  UNL     1      26.403   1.337  51.108  1.00  0.00    -0.205 F 
HETATM   14  C6  UNL     1      26.151   3.323  50.020  1.00  0.00     0.136 C 
BRANCH  14  15
HETATM   15  N1  UNL     1      26.033   4.542  49.326  1.00  0.00    -0.326 N 
HETATM   16  C7  UNL     1      27.398   4.738  48.813  1.00  0.00     0.159 C 
HETATM   17  C8  UNL     1      25.047   5.551  49.007  1.00  0.00     0.246 C 
HETATM   18  O1  UNL     1      25.509   6.513  48.307  1.00  0.00    -0.268 OA
BRANCH  17  19
HETATM   19  C9  UNL     1      23.652   5.499  49.429  1.00  0.00     0.072 C 
HETATM   20  C10 UNL     1      22.536   4.753  49.435  1.00  0.00     0.008 C 
BRANCH  20  21
HETATM   21  C11 UNL     1      21.199   5.085  50.020  1.00  0.00     0.299 C 
BRANCH  21  22
HETATM   22  N2  UNL     1      20.236   4.049  49.734  1.00  0.00     0.083 N 
HETATM   23  C12 UNL     1      19.184   4.125  50.701  1.00  0.00     0.309 C 
HETATM   24  C13 UNL     1      19.759   4.099  48.377  1.00  0.00     0.309 C 
ENDBRANCH  21  22
ENDBRANCH  20  21
ENDBRANCH  17  19
ENDBRANCH  14  15
ENDBRANCH  11  12
ENDBRANCH   3  11
BRANCH   5  25
HETATM   25  N4  UNL     1      25.709  -0.941  54.486  1.00  0.00    -0.339 N 
HETATM   26  H18 UNL     1      25.540  -1.758  55.111  1.00  0.00     0.167 HD
BRANCH  25  27
HETATM   27  C15 UNL     1      27.063  -0.615  54.198  1.00  0.00     0.039 A 
HETATM   28  C16 UNL     1      27.733   0.397  54.852  1.00  0.00     0.030 A 
HETATM   29  C17 UNL     1      29.035   0.806  54.664  1.00  0.00     0.002 A 
HETATM   30  C18 UNL     1      29.746   0.097  53.688  1.00  0.00     0.001 A 
HETATM   31  C19 UNL     1      29.130  -0.935  52.993  1.00  0.00     0.009 A 
HETATM   32  C20 UNL     1      27.799  -1.288  53.245  1.00  0.00    -0.035 A 
HETATM   33  C21 UNL     1      27.182  -2.390  52.485  1.00  0.00     0.050 C 
ENDBRANCH  25  27
ENDBRANCH   5  25
TORSDOF 8
ENDMDL
MODEL 8
REMARK VINA RESULT:      -8.0      1.880      4.307
REMARK  8 active torsions:
REMARK  status: ('A' for Active; 'I' for Inactive)
REMARK    1  A    between atoms: C3_3  and  C4_4 
REMARK    2  A    between atoms: C4_4  and  C5_5 
REMARK    3  A    between atoms: C6_7  and  N1_8 
REMARK       I    between atoms: N1_8  and  C8_10 
REMARK    4  A    between atoms: C8_10  and  C9_12 
REMARK    5  A    between atoms: C10_13  and  C11_14 
REMARK    6  A    between atoms: C11_14  and  N2_15 
REMARK    7  A    between atoms: C14_19  and  N4_20 
REMARK    8  A    between atoms: N4_20  and  C15_21 
ROOT
HETATM    1  C1  UNL     1      21.975   2.607  52.054  1.00  0.00     0.066 C 
HETATM    2  C2  UNL     1      22.824   1.773  52.573  1.00  0.00     0.047 A 
HETATM    3  C3  UNL     1      24.169   2.007  52.409  1.00  0.00     0.085 A 
HETATM    4  N3  UNL     1      25.003   1.110  52.967  1.00  0.00    -0.227 NA
HETATM    5  C14 UNL     1      24.508   0.057  53.639  1.00  0.00     0.157 A 
HETATM    6  C22 UNL     1      23.154  -0.150  53.784  1.00  0.00     0.104 A 
HETATM    7  C23 UNL     1      22.447  -1.147  54.423  1.00  0.00     0.151 A 
HETATM    8  N5  UNL     1      21.159  -0.820  54.230  1.00  0.00    -0.253 NA
HETATM    9  C24 UNL     1      21.060   0.320  53.510  1.00  0.00     0.214 A 
HETATM   10  N6  UNL     1      22.305   0.733  53.235  1.00  0.00    -0.303 N 
ENDROOT
BRANCH   3  11
HETATM   11  C4  UNL     1      24.721   3.014  51.766  1.00  0.00     0.077 C 
BRANCH  11  12
HETATM   12  C5  UNL     1      25.876   2.842  50.896  1.00  0.00     0.134 C 
HETATM   13  F1  UNL     1      26.510   1.642  51.038  1.00  0.00    -0.205 F 
HETATM   14  C6  UNL     1      26.352   3.679  50.029  1.00  0.00     0.136 C 
BRANCH  14  15
HETATM   15  N1  UNL     1      26.291   4.928  49.381  1.00  0.00    -0.326 N 
HETATM   16  C7  UNL     1      24.923   5.370  49.692  1.00  0.00     0.159 C 
HETATM   17  C8  UNL     1      27.114   5.807  48.580  1.00  0.00     0.246 C 
HETATM   18  O1  UNL     1      26.521   6.883  48.232  1.00  0.00    -0.268 OA
BRANCH  17  19
HETATM   19  C9  UNL     1      28.490   5.521  48.195  1.00  0.00     0.072 C 
HETATM   20  C10 UNL     1      29.730   6.026  48.103  1.00  0.00     0.008 C 
BRANCH  20  21
HETATM   21  C11 UNL     1      30.976   5.352  47.617  1.00  0.00     0.299 C 
BRANCH  21  22
HETATM   22  N2  UNL     1      31.976   5.301  48.655  1.00  0.00     0.083 N 
HETATM   23  C12 UNL     1      33.093   4.546  48.174  1.00  0.00     0.309 C 
HETATM   24  C13 UNL     1      32.343   6.608  49.134  1.00  0.00     0.309 C 
ENDBRANCH  21  22
ENDBRANCH  20  21
ENDBRANCH  17  19
ENDBRANCH  14  15
ENDBRANCH  11  12
ENDBRANCH   3  11
BRANCH   5  25
HETATM   25  N4  UNL     1      25.393  -0.890  54.226  1.00  0.00    -0.339 N 
HETATM   26  H18 UNL     1      25.103  -1.741  54.754  1.00  0.00     0.167 HD
BRANCH  25  27
HETATM   27  C15 UNL     1      26.789  -0.660  54.082  1.00  0.00     0.039 A 
HETATM   28  C16 UNL     1      27.466   0.266  54.846  1.00  0.00     0.030 A 
HETATM   29  C17 UNL     1      28.807   0.577  54.800  1.00  0.00     0.002 A 
HETATM   30  C18 UNL     1      29.554  -0.143  53.859  1.00  0.00     0.001 A 
HETATM   31  C19 UNL     1      28.932  -1.091  53.059  1.00  0.00     0.009 A 
HETATM   32  C20 UNL     1      27.561  -1.348  53.169  1.00  0.00    -0.035 A 
HETATM   33  C21 UNL     1      26.939  -2.364  52.300  1.00  0.00     0.050 C 
ENDBRANCH  25  27
ENDBRANCH   5  25
TORSDOF 8
ENDMDL
MODEL 9
REMARK VINA RESULT:      -7.7      2.260      3.904
REMARK  8 active torsions:
REMARK  status: ('A' for Active; 'I' for Inactive)
REMARK    1  A    between atoms: C3_3  and  C4_4 
REMARK    2  A    between atoms: C4_4  and  C5_5 
REMARK    3  A    between atoms: C6_7  and  N1_8 
REMARK       I    between atoms: N1_8  and  C8_10 
REMARK    4  A    between atoms: C8_10  and  C9_12 
REMARK    5  A    between atoms: C10_13  and  C11_14 
REMARK    6  A    between atoms: C11_14  and  N2_15 
REMARK    7  A    between atoms: C14_19  and  N4_20 
REMARK    8  A    between atoms: N4_20  and  C15_21 
ROOT
HETATM    1  C1  UNL     1      20.958  -0.051  52.406  1.00  0.00     0.066 C 
HETATM    2  C2  UNL     1      22.187   0.123  52.787  1.00  0.00     0.047 A 
HETATM    3  C3  UNL     1      22.992   0.970  52.064  1.00  0.00     0.085 A 
HETATM    4  N3  UNL     1      24.257   1.112  52.504  1.00  0.00    -0.227 NA
HETATM    5  C14 UNL     1      24.670   0.445  53.594  1.00  0.00     0.157 A 
HETATM    6  C22 UNL     1      23.837  -0.399  54.297  1.00  0.00     0.104 A 
HETATM    7  C23 UNL     1      24.055  -1.166  55.421  1.00  0.00     0.151 A 
HETATM    8  N5  UNL     1      22.880  -1.775  55.644  1.00  0.00    -0.253 NA
HETATM    9  C24 UNL     1      21.971  -1.412  54.711  1.00  0.00     0.214 A 
HETATM   10  N6  UNL     1      22.572  -0.555  53.875  1.00  0.00    -0.303 N 
ENDROOT
BRANCH   3  11
HETATM   11  C4  UNL     1      22.655   1.653  50.991  1.00  0.00     0.077 C 
BRANCH  11  12
HETATM   12  C5  UNL     1      21.976   2.939  51.069  1.00  0.00     0.134 C 
HETATM   13  F1  UNL     1      21.482   3.238  52.305  1.00  0.00    -0.205 F 
HETATM   14  C6  UNL     1      21.795   3.803  50.120  1.00  0.00     0.136 C 
BRANCH  14  15
HETATM   15  N1  UNL     1      21.965   4.190  48.777  1.00  0.00    -0.326 N 
HETATM   16  C7  UNL     1      20.864   3.480  48.109  1.00  0.00     0.159 C 
HETATM   17  C8  UNL     1      22.830   5.009  47.956  1.00  0.00     0.246 C 
HETATM   18  O1  UNL     1      22.517   4.999  46.718  1.00  0.00    -0.268 OA
BRANCH  17  19
HETATM   19  C9  UNL     1      23.956   5.782  48.465  1.00  0.00     0.072 C 
HETATM   20  C10 UNL     1      25.128   5.713  49.116  1.00  0.00     0.008 C 
BRANCH  20  21
HETATM   21  C11 UNL     1      26.062   6.828  49.471  1.00  0.00     0.299 C 
BRANCH  21  22
HETATM   22  N2  UNL     1      27.308   6.708  48.755  1.00  0.00     0.083 N 
HETATM   23  C12 UNL     1      27.578   5.318  48.542  1.00  0.00     0.309 C 
HETATM   24  C13 UNL     1      27.324   7.478  47.540  1.00  0.00     0.309 C 
ENDBRANCH  21  22
ENDBRANCH  20  21
ENDBRANCH  17  19
ENDBRANCH  14  15
ENDBRANCH  11  12
ENDBRANCH   3  11
BRANCH   5  25
HETATM   25  N4  UNL     1      26.007   0.596  54.055  1.00  0.00    -0.339 N 
HETATM   26  H18 UNL     1      26.353   1.367  54.665  1.00  0.00     0.167 HD
BRANCH  25  27
HETATM   27  C15 UNL     1      26.954  -0.385  53.651  1.00  0.00     0.039 A 
HETATM   28  C16 UNL     1      26.600  -1.489  52.905  1.00  0.00     0.030 A 
HETATM   29  C17 UNL     1      27.419  -2.501  52.455  1.00  0.00     0.002 A 
HETATM   30  C18 UNL     1      28.769  -2.376  52.810  1.00  0.00     0.001 A 
HETATM   31  C19 UNL     1      29.191  -1.287  53.559  1.00  0.00     0.009 A 
HETATM   32  C20 UNL     1      28.292  -0.299  53.977  1.00  0.00    -0.035 A 
HETATM   33  C21 UNL     1      28.781   0.841  54.772  1.00  0.00     0.050 C 
ENDBRANCH  25  27
ENDBRANCH   5  25
TORSDOF 8
ENDMDL
