MODEL 1
REMARK VINA RESULT:      -7.2      0.000      0.000
REMARK  7 active torsions:
REMARK  status: ('A' for Active; 'I' for Inactive)
REMARK    1  A    between atoms: O1_1  and  C1_2 
REMARK    2  A    between atoms: C3_5  and  O2_6 
REMARK    3  A    between atoms: O2_6  and  C4_7 
REMARK    4  A    between atoms: C5_8  and  C6_9 
REMARK    5  A    between atoms: C7_10  and  C8_11 
REMARK    6  A    between atoms: C9_12  and  C10_13 
REMARK    7  A    between atoms: C12_15  and  C13_16 
ROOT
HETATM    1  C6  UNL     1      22.078  -1.966  54.991  1.00  0.00     0.002 C 
HETATM    2  C7  UNL     1      21.063  -1.269  54.502  1.00  0.00    -0.000 C 
ENDROOT
BRANCH   2   3
HETATM    3  C8  UNL     1      20.996   0.185  54.543  1.00  0.00    -0.002 C 
HETATM    4  C9  UNL     1      21.083   0.892  53.404  1.00  0.00     0.000 C 
BRANCH   4   5
HETATM    5  C10 UNL     1      21.250   0.131  52.103  1.00  0.00     0.136 A 
HETATM    6  C11 UNL     1      20.103   0.317  51.203  1.00  0.00     0.086 A 
HETATM    7  C12 UNL     1      21.060   1.057  50.435  1.00  0.00     0.021 A 
HETATM    8  N1  UNL     1      22.005   0.884  51.213  1.00  0.00    -0.288 NA
BRANCH   7   9
HETATM    9  C13 UNL     1      20.734   1.723  49.137  1.00  0.00     0.082 A 
HETATM   10  C14 UNL     1      20.706   3.180  49.429  1.00  0.00     0.012 A 
HETATM   11  C15 UNL     1      21.496   4.104  48.902  1.00  0.00     0.138 A 
HETATM   12  O3  UNL     1      22.471   3.762  47.981  1.00  0.00    -0.335 OA
HETATM   13  C16 UNL     1      22.578   2.415  47.640  1.00  0.00     0.138 A 
HETATM   14  C17 UNL     1      21.806   1.452  48.143  1.00  0.00     0.012 A 
ENDBRANCH   7   9
ENDBRANCH   4   5
ENDBRANCH   2   3
BRANCH   1  15
HETATM   15  C5  UNL     1      23.212  -1.293  55.613  1.00  0.00     0.025 C 
HETATM   16  C4  UNL     1      24.428  -1.336  55.055  1.00  0.00     0.145 C 
BRANCH  16  17
HETATM   17  O2  UNL     1      25.578  -0.739  55.551  1.00  0.00    -0.298 OA
BRANCH  17  18
HETATM   18  C3  UNL     1      26.257   0.101  54.664  1.00  0.00     0.215 A 
HETATM   19  S1  UNL     1      26.170  -0.337  52.934  1.00  0.00    -0.052 SA
HETATM   20  C2  UNL     1      27.228   1.123  52.387  1.00  0.00     0.111 A 
HETATM   21  C1  UNL     1      27.461   1.695  53.660  1.00  0.00     0.171 A 
HETATM   22  N2  UNL     1      26.966   1.168  54.783  1.00  0.00    -0.193 NA
BRANCH  21  23
HETATM   23  O1  UNL     1      28.207   2.851  53.983  1.00  0.00    -0.344 OA
HETATM   24  H1  UNL     1      28.147   3.298  54.868  1.00  0.00     0.219 HD
ENDBRANCH  21  23
ENDBRANCH  17  18
ENDBRANCH  16  17
ENDBRANCH   1  15
TORSDOF 7
ENDMDL
MODEL 2
REMARK VINA RESULT:      -7.1      5.594      8.920
REMARK  7 active torsions:
REMARK  status: ('A' for Active; 'I' for Inactive)
REMARK    1  A    between atoms: O1_1  and  C1_2 
REMARK    2  A    between atoms: C3_5  and  O2_6 
REMARK    3  A    between atoms: O2_6  and  C4_7 
REMARK    4  A    between atoms: C5_8  and  C6_9 
REMARK    5  A    between atoms: C7_10  and  C8_11 
REMARK    6  A    between atoms: C9_12  and  C10_13 
REMARK    7  A    between atoms: C12_15  and  C13_16 
ROOT
HETATM    1  C6  UNL     1      26.535   5.958  49.338  1.00  0.00     0.002 C 
HETATM    2  C7  UNL     1      25.903   4.870  49.750  1.00  0.00    -0.000 C 
ENDROOT
BRANCH   2   3
HETATM    3  C8  UNL     1      26.182   3.537  49.234  1.00  0.00    -0.002 C 
HETATM    4  C9  UNL     1      26.462   2.535  50.084  1.00  0.00     0.000 C 
BRANCH   4   5
HETATM    5  C10 UNL     1      26.476   2.842  51.569  1.00  0.00     0.136 A 
HETATM    6  C11 UNL     1      25.630   1.916  52.333  1.00  0.00     0.086 A 
HETATM    7  C12 UNL     1      26.895   1.450  52.819  1.00  0.00     0.021 A 
HETATM    8  N1  UNL     1      27.580   2.242  52.161  1.00  0.00    -0.288 NA
BRANCH   7   9
HETATM    9  C13 UNL     1      27.037   0.337  53.806  1.00  0.00     0.082 A 
HETATM   10  C14 UNL     1      26.738  -0.909  53.053  1.00  0.00     0.012 A 
HETATM   11  C15 UNL     1      27.567  -1.922  52.847  1.00  0.00     0.138 A 
HETATM   12  O3  UNL     1      28.858  -1.897  53.347  1.00  0.00    -0.335 OA
HETATM   13  C16 UNL     1      29.236  -0.767  54.070  1.00  0.00     0.138 A 
HETATM   14  C17 UNL     1      28.437   0.274  54.303  1.00  0.00     0.012 A 
ENDBRANCH   7   9
ENDBRANCH   4   5
ENDBRANCH   2   3
BRANCH   1  15
HETATM   15  C5  UNL     1      27.573   5.874  48.317  1.00  0.00     0.025 C 
HETATM   16  C4  UNL     1      28.561   6.775  48.266  1.00  0.00     0.145 C 
BRANCH  16  17
HETATM   17  O2  UNL     1      29.599   6.801  47.346  1.00  0.00    -0.298 OA
BRANCH  17  18
HETATM   18  C3  UNL     1      30.786   6.183  47.751  1.00  0.00     0.215 A 
HETATM   19  S1  UNL     1      32.155   7.268  48.125  1.00  0.00    -0.052 SA
HETATM   20  C2  UNL     1      33.316   5.850  48.565  1.00  0.00     0.111 A 
HETATM   21  C1  UNL     1      32.421   4.777  48.340  1.00  0.00     0.171 A 
HETATM   22  N2  UNL     1      31.163   4.967  47.935  1.00  0.00    -0.193 NA
BRANCH  21  23
HETATM   23  O1  UNL     1      32.654   3.391  48.487  1.00  0.00    -0.344 OA
HETATM   24  H1  UNL     1      32.463   2.736  47.766  1.00  0.00     0.219 HD
ENDBRANCH  21  23
ENDBRANCH  17  18
ENDBRANCH  16  17
ENDBRANCH   1  15
TORSDOF 7
ENDMDL
MODEL 3
REMARK VINA RESULT:      -7.1      5.243      8.253
REMARK  7 active torsions:
REMARK  status: ('A' for Active; 'I' for Inactive)
REMARK    1  A    between atoms: O1_1  and  C1_2 
REMARK    2  A    between atoms: C3_5  and  O2_6 
REMARK    3  A    between atoms: O2_6  and  C4_7 
REMARK    4  A    between atoms: C5_8  and  C6_9 
REMARK    5  A    between atoms: C7_10  and  C8_11 
REMARK    6  A    between atoms: C9_12  and  C10_13 
REMARK    7  A    between atoms: C12_15  and  C13_16 
ROOT
HETATM    1  C6  UNL     1      25.781   6.076  49.784  1.00  0.00     0.002 C 
HETATM    2  C7  UNL     1      24.840   5.193  50.082  1.00  0.00    -0.000 C 
ENDROOT
BRANCH   2   3
HETATM    3  C8  UNL     1      24.739   3.885  49.450  1.00  0.00    -0.002 C 
HETATM    4  C9  UNL     1      24.719   2.775  50.206  1.00  0.00     0.000 C 
BRANCH   4   5
HETATM    5  C10 UNL     1      24.804   2.935  51.711  1.00  0.00     0.136 A 
HETATM    6  C11 UNL     1      24.048   1.895  52.422  1.00  0.00     0.086 A 
HETATM    7  C12 UNL     1      25.360   1.453  52.791  1.00  0.00     0.021 A 
HETATM    8  N1  UNL     1      25.967   2.341  52.182  1.00  0.00    -0.288 NA
BRANCH   7   9
HETATM    9  C13 UNL     1      25.612   0.257  53.653  1.00  0.00     0.082 A 
HETATM   10  C14 UNL     1      26.209  -0.767  52.756  1.00  0.00     0.012 A 
HETATM   11  C15 UNL     1      27.416  -1.303  52.868  1.00  0.00     0.138 A 
HETATM   12  O3  UNL     1      28.267  -0.928  53.893  1.00  0.00    -0.335 OA
HETATM   13  C16 UNL     1      27.797   0.030  54.790  1.00  0.00     0.138 A 
HETATM   14  C17 UNL     1      26.593   0.596  54.717  1.00  0.00     0.012 A 
ENDBRANCH   7   9
ENDBRANCH   4   5
ENDBRANCH   2   3
BRANCH   1  15
HETATM   15  C5  UNL     1      26.793   5.774  48.778  1.00  0.00     0.025 C 
HETATM   16  C4  UNL     1      27.710   6.685  48.432  1.00  0.00     0.145 C 
BRANCH  16  17
HETATM   17  O2  UNL     1      28.717   6.517  47.492  1.00  0.00    -0.298 OA
BRANCH  17  18
HETATM   18  C3  UNL     1      29.977   6.191  48.003  1.00  0.00     0.215 A 
HETATM   19  S1  UNL     1      30.901   7.529  48.743  1.00  0.00    -0.052 SA
HETATM   20  C2  UNL     1      32.373   6.434  49.175  1.00  0.00     0.111 A 
HETATM   21  C1  UNL     1      31.876   5.213  48.661  1.00  0.00     0.171 A 
HETATM   22  N2  UNL     1      30.677   5.115  48.081  1.00  0.00    -0.193 NA
BRANCH  21  23
HETATM   23  O1  UNL     1      32.495   3.942  48.656  1.00  0.00    -0.344 OA
HETATM   24  H1  UNL     1      32.340   3.267  49.368  1.00  0.00     0.219 HD
ENDBRANCH  21  23
ENDBRANCH  17  18
ENDBRANCH  16  17
ENDBRANCH   1  15
TORSDOF 7
ENDMDL
MODEL 4
REMARK VINA RESULT:      -7.0      4.012      4.892
REMARK  7 active torsions:
REMARK  status: ('A' for Active; 'I' for Inactive)
REMARK    1  A    between atoms: O1_1  and  C1_2 
REMARK    2  A    between atoms: C3_5  and  O2_6 
REMARK    3  A    between atoms: O2_6  and  C4_7 
REMARK    4  A    between atoms: C5_8  and  C6_9 
REMARK    5  A    between atoms: C7_10  and  C8_11 
REMARK    6  A    between atoms: C9_12  and  C10_13 
REMARK    7  A    between atoms: C12_15  and  C13_16 
ROOT
HETATM    1  C6  UNL     1      23.717   0.910  52.206  1.00  0.00     0.002 C 
HETATM    2  C7  UNL     1      23.102   2.056  51.956  1.00  0.00    -0.000 C 
ENDROOT
BRANCH   2   3
HETATM    3  C8  UNL     1      23.394   3.294  52.666  1.00  0.00    -0.002 C 
HETATM    4  C9  UNL     1      23.940   4.330  52.009  1.00  0.00     0.000 C 
BRANCH   4   5
HETATM    5  C10 UNL     1      24.234   4.164  50.531  1.00  0.00     0.136 A 
HETATM    6  C11 UNL     1      23.654   5.247  49.726  1.00  0.00     0.086 A 
HETATM    7  C12 UNL     1      25.030   5.609  49.555  1.00  0.00     0.021 A 
HETATM    8  N1  UNL     1      25.487   4.686  50.240  1.00  0.00    -0.288 NA
BRANCH   7   9
HETATM    9  C13 UNL     1      25.476   6.786  48.749  1.00  0.00     0.082 A 
HETATM   10  C14 UNL     1      25.539   7.925  49.701  1.00  0.00     0.012 A 
HETATM   11  C15 UNL     1      26.619   8.622  50.023  1.00  0.00     0.138 A 
HETATM   12  O3  UNL     1      27.850   8.324  49.463  1.00  0.00    -0.335 OA
HETATM   13  C16 UNL     1      27.895   7.267  48.555  1.00  0.00     0.138 A 
HETATM   14  C17 UNL     1      26.836   6.540  48.201  1.00  0.00     0.012 A 
ENDBRANCH   7   9
ENDBRANCH   4   5
ENDBRANCH   2   3
BRANCH   1  15
HETATM   15  C5  UNL     1      24.748   0.827  53.234  1.00  0.00     0.025 C 
HETATM   16  C4  UNL     1      25.104  -0.353  53.756  1.00  0.00     0.145 C 
BRANCH  16  17
HETATM   17  O2  UNL     1      26.065  -0.558  54.735  1.00  0.00    -0.298 OA
BRANCH  17  18
HETATM   18  C3  UNL     1      27.328  -0.023  54.468  1.00  0.00     0.215 A 
HETATM   19  S1  UNL     1      28.369  -0.964  53.362  1.00  0.00    -0.052 SA
HETATM   20  C2  UNL     1      29.793   0.266  53.462  1.00  0.00     0.111 A 
HETATM   21  C1  UNL     1      29.197   1.197  54.346  1.00  0.00     0.171 A 
HETATM   22  N2  UNL     1      27.966   1.032  54.835  1.00  0.00    -0.193 NA
BRANCH  21  23
HETATM   23  O1  UNL     1      29.739   2.399  54.854  1.00  0.00    -0.344 OA
HETATM   24  H1  UNL     1      30.703   2.626  54.781  1.00  0.00     0.219 HD
ENDBRANCH  21  23
ENDBRANCH  17  18
ENDBRANCH  16  17
ENDBRANCH   1  15
TORSDOF 7
ENDMDL
MODEL 5
REMARK VINA RESULT:      -7.0      4.987      6.254
REMARK  7 active torsions:
REMARK  status: ('A' for Active; 'I' for Inactive)
REMARK    1  A    between atoms: O1_1  and  C1_2 
REMARK    2  A    between atoms: C3_5  and  O2_6 
REMARK    3  A    between atoms: O2_6  and  C4_7 
REMARK    4  A    between atoms: C5_8  and  C6_9 
REMARK    5  A    between atoms: C7_10  and  C8_11 
REMARK    6  A    between atoms: C9_12  and  C10_13 
REMARK    7  A    between atoms: C12_15  and  C13_16 
ROOT
HETATM    1  C6  UNL     1      24.270   3.049  52.731  1.00  0.00     0.002 C 
HETATM    2  C7  UNL     1      23.978   3.956  51.811  1.00  0.00    -0.000 C 
ENDROOT
BRANCH   2   3
HETATM    3  C8  UNL     1      23.747   3.630  50.410  1.00  0.00    -0.002 C 
HETATM    4  C9  UNL     1      24.657   3.974  49.484  1.00  0.00     0.000 C 
BRANCH   4   5
HETATM    5  C10 UNL     1      25.906   4.700  49.945  1.00  0.00     0.136 A 
HETATM    6  C11 UNL     1      26.969   4.671  48.931  1.00  0.00     0.086 A 
HETATM    7  C12 UNL     1      26.667   6.069  48.840  1.00  0.00     0.021 A 
HETATM    8  N1  UNL     1      25.776   6.060  49.697  1.00  0.00    -0.288 NA
BRANCH   7   9
HETATM    9  C13 UNL     1      27.371   7.002  47.908  1.00  0.00     0.082 A 
HETATM   10  C14 UNL     1      26.302   7.814  47.269  1.00  0.00     0.012 A 
HETATM   11  C15 UNL     1      26.155   9.128  47.355  1.00  0.00     0.138 A 
HETATM   12  O3  UNL     1      27.038   9.895  48.094  1.00  0.00    -0.335 OA
HETATM   13  C16 UNL     1      28.079   9.224  48.735  1.00  0.00     0.138 A 
HETATM   14  C17 UNL     1      28.267   7.906  48.676  1.00  0.00     0.012 A 
ENDBRANCH   7   9
ENDBRANCH   4   5
ENDBRANCH   2   3
BRANCH   1  15
HETATM   15  C5  UNL     1      24.377   1.638  52.379  1.00  0.00     0.025 C 
HETATM   16  C4  UNL     1      24.960   0.765  53.209  1.00  0.00     0.145 C 
BRANCH  16  17
HETATM   17  O2  UNL     1      25.121  -0.595  52.985  1.00  0.00    -0.298 OA
BRANCH  17  18
HETATM   18  C3  UNL     1      26.430  -1.076  53.081  1.00  0.00     0.215 A 
HETATM   19  S1  UNL     1      27.706   0.148  53.332  1.00  0.00    -0.052 SA
HETATM   20  C2  UNL     1      29.092  -1.129  53.363  1.00  0.00     0.111 A 
HETATM   21  C1  UNL     1      28.305  -2.289  53.171  1.00  0.00     0.171 A 
HETATM   22  N2  UNL     1      26.978  -2.239  53.034  1.00  0.00    -0.193 NA
BRANCH  21  23
HETATM   23  O1  UNL     1      28.726  -3.636  53.092  1.00  0.00    -0.344 OA
HETATM   24  H1  UNL     1      28.239  -4.319  52.561  1.00  0.00     0.219 HD
ENDBRANCH  21  23
ENDBRANCH  17  18
ENDBRANCH  16  17
ENDBRANCH   1  15
TORSDOF 7
ENDMDL
MODEL 6
REMARK VINA RESULT:      -6.9      2.154      2.740
REMARK  7 active torsions:
REMARK  status: ('A' for Active; 'I' for Inactive)
REMARK    1  A    between atoms: O1_1  and  C1_2 
REMARK    2  A    between atoms: C3_5  and  O2_6 
REMARK    3  A    between atoms: O2_6  and  C4_7 
REMARK    4  A    between atoms: C5_8  and  C6_9 
REMARK    5  A    between atoms: C7_10  and  C8_11 
REMARK    6  A    between atoms: C9_12  and  C10_13 
REMARK    7  A    between atoms: C12_15  and  C13_16 
ROOT
HETATM    1  C6  UNL     1      22.343  -0.741  55.198  1.00  0.00     0.002 C 
HETATM    2  C7  UNL     1      21.512  -0.356  54.241  1.00  0.00    -0.000 C 
ENDROOT
BRANCH   2   3
HETATM    3  C8  UNL     1      21.777  -0.551  52.822  1.00  0.00    -0.002 C 
HETATM    4  C9  UNL     1      22.188   0.483  52.069  1.00  0.00     0.000 C 
BRANCH   4   5
HETATM    5  C10 UNL     1      22.359   1.831  52.741  1.00  0.00     0.136 A 
HETATM    6  C11 UNL     1      23.766   2.250  52.789  1.00  0.00     0.086 A 
HETATM    7  C12 UNL     1      23.317   3.224  51.837  1.00  0.00     0.021 A 
HETATM    8  N1  UNL     1      22.140   2.846  51.819  1.00  0.00    -0.288 NA
BRANCH   7   9
HETATM    9  C13 UNL     1      24.216   4.250  51.225  1.00  0.00     0.082 A 
HETATM   10  C14 UNL     1      24.172   4.001  49.761  1.00  0.00     0.012 A 
HETATM   11  C15 UNL     1      23.739   4.842  48.833  1.00  0.00     0.138 A 
HETATM   12  O3  UNL     1      23.264   6.096  49.176  1.00  0.00    -0.335 OA
HETATM   13  C16 UNL     1      23.264   6.425  50.531  1.00  0.00     0.138 A 
HETATM   14  C17 UNL     1      23.690   5.613  51.498  1.00  0.00     0.012 A 
ENDBRANCH   7   9
ENDBRANCH   4   5
ENDBRANCH   2   3
BRANCH   1  15
HETATM   15  C5  UNL     1      23.602  -1.400  54.869  1.00  0.00     0.025 C 
HETATM   16  C4  UNL     1      24.744  -0.704  54.802  1.00  0.00     0.145 C 
BRANCH  16  17
HETATM   17  O2  UNL     1      25.997  -1.217  54.500  1.00  0.00    -0.298 OA
BRANCH  17  18
HETATM   18  C3  UNL     1      26.989  -0.272  54.219  1.00  0.00     0.215 A 
HETATM   19  S1  UNL     1      28.543  -0.913  53.615  1.00  0.00    -0.052 SA
HETATM   20  C2  UNL     1      29.327   0.795  53.465  1.00  0.00     0.111 A 
HETATM   21  C1  UNL     1      28.227   1.564  53.916  1.00  0.00     0.171 A 
HETATM   22  N2  UNL     1      27.070   1.010  54.286  1.00  0.00    -0.193 NA
BRANCH  21  23
HETATM   23  O1  UNL     1      28.133   2.967  54.057  1.00  0.00    -0.344 OA
HETATM   24  H1  UNL     1      28.050   3.413  54.940  1.00  0.00     0.219 HD
ENDBRANCH  21  23
ENDBRANCH  17  18
ENDBRANCH  16  17
ENDBRANCH   1  15
TORSDOF 7
ENDMDL
MODEL 7
REMARK VINA RESULT:      -6.8      5.681      8.973
REMARK  7 active torsions:
REMARK  status: ('A' for Active; 'I' for Inactive)
REMARK    1  A    between atoms: O1_1  and  C1_2 
REMARK    2  A    between atoms: C3_5  and  O2_6 
REMARK    3  A    between atoms: O2_6  and  C4_7 
REMARK    4  A    between atoms: C5_8  and  C6_9 
REMARK    5  A    between atoms: C7_10  and  C8_11 
REMARK    6  A    between atoms: C9_12  and  C10_13 
REMARK    7  A    between atoms: C12_15  and  C13_16 
ROOT
HETATM    1  C6  UNL     1      25.607   5.748  49.719  1.00  0.00     0.002 C 
HETATM    2  C7  UNL     1      25.253   4.486  49.914  1.00  0.00    -0.000 C 
ENDROOT
BRANCH   2   3
HETATM    3  C8  UNL     1      25.980   3.355  49.355  1.00  0.00    -0.002 C 
HETATM    4  C9  UNL     1      26.586   2.478  50.174  1.00  0.00     0.000 C 
BRANCH   4   5
HETATM    5  C10 UNL     1      26.484   2.710  51.669  1.00  0.00     0.136 A 
HETATM    6  C11 UNL     1      25.673   1.682  52.334  1.00  0.00     0.086 A 
HETATM    7  C12 UNL     1      26.941   1.295  52.878  1.00  0.00     0.021 A 
HETATM    8  N1  UNL     1      27.596   2.171  52.303  1.00  0.00    -0.288 NA
BRANCH   7   9
HETATM    9  C13 UNL     1      27.114   0.148  53.822  1.00  0.00     0.082 A 
HETATM   10  C14 UNL     1      26.659  -1.056  53.079  1.00  0.00     0.012 A 
HETATM   11  C15 UNL     1      27.396  -2.112  52.764  1.00  0.00     0.138 A 
HETATM   12  O3  UNL     1      28.731  -2.179  53.125  1.00  0.00    -0.335 OA
HETATM   13  C16 UNL     1      29.254  -1.094  53.827  1.00  0.00     0.138 A 
HETATM   14  C17 UNL     1      28.552  -0.013  54.165  1.00  0.00     0.012 A 
ENDBRANCH   7   9
ENDBRANCH   4   5
ENDBRANCH   2   3
BRANCH   1  15
HETATM   15  C5  UNL     1      26.776   6.077  48.912  1.00  0.00     0.025 C 
HETATM   16  C4  UNL     1      26.796   7.175  48.147  1.00  0.00     0.145 C 
BRANCH  16  17
HETATM   17  O2  UNL     1      27.845   7.591  47.340  1.00  0.00    -0.298 OA
BRANCH  17  18
HETATM   18  C3  UNL     1      28.997   8.012  48.009  1.00  0.00     0.215 A 
HETATM   19  S1  UNL     1      30.516   7.178  47.571  1.00  0.00    -0.052 SA
HETATM   20  C2  UNL     1      31.558   8.189  48.773  1.00  0.00     0.111 A 
HETATM   21  C1  UNL     1      30.528   9.002  49.303  1.00  0.00     0.171 A 
HETATM   22  N2  UNL     1      29.258   8.896  48.906  1.00  0.00    -0.193 NA
BRANCH  21  23
HETATM   23  O1  UNL     1      30.622  10.014  50.284  1.00  0.00    -0.344 OA
HETATM   24  H1  UNL     1      30.863  10.952  50.065  1.00  0.00     0.219 HD
ENDBRANCH  21  23
ENDBRANCH  17  18
ENDBRANCH  16  17
ENDBRANCH   1  15
TORSDOF 7
ENDMDL
MODEL 8
REMARK VINA RESULT:      -6.7      4.476      8.604
REMARK  7 active torsions:
REMARK  status: ('A' for Active; 'I' for Inactive)
REMARK    1  A    between atoms: O1_1  and  C1_2 
REMARK    2  A    between atoms: C3_5  and  O2_6 
REMARK    3  A    between atoms: O2_6  and  C4_7 
REMARK    4  A    between atoms: C5_8  and  C6_9 
REMARK    5  A    between atoms: C7_10  and  C8_11 
REMARK    6  A    between atoms: C9_12  and  C10_13 
REMARK    7  A    between atoms: C12_15  and  C13_16 
ROOT
HETATM    1  C6  UNL     1      21.596   4.796  51.395  1.00  0.00     0.002 C 
HETATM    2  C7  UNL     1      22.730   4.117  51.320  1.00  0.00    -0.000 C 
ENDROOT
BRANCH   2   3
HETATM    3  C8  UNL     1      22.905   2.939  50.482  1.00  0.00    -0.002 C 
HETATM    4  C9  UNL     1      23.194   1.754  51.045  1.00  0.00     0.000 C 
BRANCH   4   5
HETATM    5  C10 UNL     1      23.329   1.695  52.554  1.00  0.00     0.136 A 
HETATM    6  C11 UNL     1      23.234   0.321  53.064  1.00  0.00     0.086 A 
HETATM    7  C12 UNL     1      24.625   0.523  53.343  1.00  0.00     0.021 A 
HETATM    8  N1  UNL     1      24.673   1.678  52.904  1.00  0.00    -0.288 NA
BRANCH   7   9
HETATM    9  C13 UNL     1      25.497  -0.516  53.970  1.00  0.00     0.082 A 
HETATM   10  C14 UNL     1      26.348  -1.045  52.872  1.00  0.00     0.012 A 
HETATM   11  C15 UNL     1      27.669  -0.981  52.800  1.00  0.00     0.138 A 
HETATM   12  O3  UNL     1      28.407  -0.380  53.805  1.00  0.00    -0.335 OA
HETATM   13  C16 UNL     1      27.699   0.149  54.883  1.00  0.00     0.138 A 
HETATM   14  C17 UNL     1      26.372   0.108  54.998  1.00  0.00     0.012 A 
ENDBRANCH   7   9
ENDBRANCH   4   5
ENDBRANCH   2   3
BRANCH   1  15
HETATM   15  C5  UNL     1      20.430   4.387  50.621  1.00  0.00     0.025 C 
HETATM   16  C4  UNL     1      19.265   4.120  51.222  1.00  0.00     0.145 C 
BRANCH  16  17
HETATM   17  O2  UNL     1      18.092   3.723  50.595  1.00  0.00    -0.298 OA
BRANCH  17  18
HETATM   18  C3  UNL     1      16.960   3.654  51.411  1.00  0.00     0.215 A 
HETATM   19  S1  UNL     1      15.700   2.487  50.919  1.00  0.00    -0.052 SA
HETATM   20  C2  UNL     1      14.571   2.911  52.368  1.00  0.00     0.111 A 
HETATM   21  C1  UNL     1      15.385   3.893  52.980  1.00  0.00     0.171 A 
HETATM   22  N2  UNL     1      16.573   4.247  52.486  1.00  0.00    -0.193 NA
BRANCH  21  23
HETATM   23  O1  UNL     1      15.130   4.644  54.150  1.00  0.00    -0.344 OA
HETATM   24  H1  UNL     1      14.587   5.475  54.146  1.00  0.00     0.219 HD
ENDBRANCH  21  23
ENDBRANCH  17  18
ENDBRANCH  16  17
ENDBRANCH   1  15
TORSDOF 7
ENDMDL
MODEL 9
REMARK VINA RESULT:      -6.7      3.173      6.618
REMARK  7 active torsions:
REMARK  status: ('A' for Active; 'I' for Inactive)
REMARK    1  A    between atoms: O1_1  and  C1_2 
REMARK    2  A    between atoms: C3_5  and  O2_6 
REMARK    3  A    between atoms: O2_6  and  C4_7 
REMARK    4  A    between atoms: C5_8  and  C6_9 
REMARK    5  A    between atoms: C7_10  and  C8_11 
REMARK    6  A    between atoms: C9_12  and  C10_13 
REMARK    7  A    between atoms: C12_15  and  C13_16 
ROOT
HETATM    1  C6  UNL     1      20.083   3.189  52.164  1.00  0.00     0.002 C 
HETATM    2  C7  UNL     1      20.227   1.885  52.345  1.00  0.00    -0.000 C 
ENDROOT
BRANCH   2   3
HETATM    3  C8  UNL     1      20.914   1.016  51.399  1.00  0.00    -0.002 C 
HETATM    4  C9  UNL     1      22.040   0.383  51.768  1.00  0.00     0.000 C 
BRANCH   4   5
HETATM    5  C10 UNL     1      22.555   0.605  53.177  1.00  0.00     0.136 A 
HETATM    6  C11 UNL     1      22.914  -0.656  53.839  1.00  0.00     0.086 A 
HETATM    7  C12 UNL     1      24.243  -0.139  53.695  1.00  0.00     0.021 A 
HETATM    8  N1  UNL     1      23.908   0.913  53.139  1.00  0.00    -0.288 NA
BRANCH   7   9
HETATM    9  C13 UNL     1      25.463  -0.866  54.164  1.00  0.00     0.082 A 
HETATM   10  C14 UNL     1      26.224  -1.209  52.934  1.00  0.00     0.012 A 
HETATM   11  C15 UNL     1      27.444  -0.797  52.623  1.00  0.00     0.138 A 
HETATM   12  O3  UNL     1      28.149   0.040  53.472  1.00  0.00    -0.335 OA
HETATM   13  C16 UNL     1      27.519   0.421  54.655  1.00  0.00     0.138 A 
HETATM   14  C17 UNL     1      26.295   0.031  55.010  1.00  0.00     0.012 A 
ENDBRANCH   7   9
ENDBRANCH   4   5
ENDBRANCH   2   3
BRANCH   1  15
HETATM   15  C5  UNL     1      20.622   3.840  50.976  1.00  0.00     0.025 C 
HETATM   16  C4  UNL     1      21.217   5.037  51.057  1.00  0.00     0.145 C 
BRANCH  16  17
HETATM   17  O2  UNL     1      21.764   5.752  50.002  1.00  0.00    -0.298 OA
BRANCH  17  18
HETATM   18  C3  UNL     1      23.157   5.872  50.007  1.00  0.00     0.215 A 
HETATM   19  S1  UNL     1      24.066   4.562  49.201  1.00  0.00    -0.052 SA
HETATM   20  C2  UNL     1      25.745   5.336  49.572  1.00  0.00     0.111 A 
HETATM   21  C1  UNL     1      25.291   6.486  50.262  1.00  0.00     0.171 A 
HETATM   22  N2  UNL     1      23.995   6.732  50.466  1.00  0.00    -0.193 NA
BRANCH  21  23
HETATM   23  O1  UNL     1      26.055   7.529  50.832  1.00  0.00    -0.344 OA
HETATM   24  H1  UNL     1      27.021   7.655  50.636  1.00  0.00     0.219 HD
ENDBRANCH  21  23
ENDBRANCH  17  18
ENDBRANCH  16  17
ENDBRANCH   1  15
TORSDOF 7
ENDMDL
