MODEL 1
REMARK VINA RESULT:      -8.1      0.000      0.000
REMARK  3 active torsions:
REMARK  status: ('A' for Active; 'I' for Inactive)
REMARK    1  A    between atoms: C4_4  and  C15_20 
REMARK    2  A    between atoms: C5_5  and  N1_6 
REMARK    3  A    between atoms: N1_6  and  C6_7 
ROOT
HETATM    1  C1  UNL     1      26.652  -1.734  52.673  1.00  0.00     0.012 C 
HETATM    2  C2  UNL     1      26.809  -0.264  52.868  1.00  0.00     0.017 A 
HETATM    3  C3  UNL     1      26.868   0.346  51.504  1.00  0.00     0.012 C 
HETATM    4  C4  UNL     1      25.775   0.389  53.847  1.00  0.00     0.035 A 
HETATM    5  C5  UNL     1      26.887   0.448  54.365  1.00  0.00     0.060 A 
HETATM    6  C7  UNL     1      25.632  -0.415  54.574  1.00  0.00     0.047 A 
HETATM    7  C8  UNL     1      24.493  -1.176  54.748  1.00  0.00    -0.021 A 
HETATM    8  C9  UNL     1      23.489  -0.411  54.076  1.00  0.00     0.051 A 
HETATM    9  C10 UNL     1      22.170  -0.068  53.559  1.00  0.00     0.083 A 
HETATM   10 CL1  UNL     1      21.288  -1.453  54.011  1.00  0.00    -0.115 Cl
HETATM   11  C11 UNL     1      23.293   0.695  53.537  1.00  0.00     0.067 A 
HETATM   12  C12 UNL     1      24.712   0.715  53.896  1.00  0.00     0.091 A 
HETATM   13  O1  UNL     1      25.333   2.084  53.601  1.00  0.00    -0.376 OA
HETATM   14  C13 UNL     1      24.436   2.887  52.816  1.00  0.00     0.195 C 
HETATM   15  C14 UNL     1      24.385   2.007  51.518  1.00  0.00     0.194 C 
HETATM   16  O2  UNL     1      24.089   0.777  51.991  1.00  0.00    -0.381 OA
HETATM   17  C15 UNL     1      24.624   0.072  52.887  1.00  0.00     0.156 A 
ENDROOT
BRANCH   5  18
HETATM   18  N1  UNL     1      28.125   0.656  54.843  1.00  0.00    -0.373 N 
HETATM   19  H8  UNL     1      28.203  -0.136  55.515  1.00  0.00     0.161 HD
BRANCH  18  20
HETATM   20  C6  UNL     1      28.993   1.700  54.460  1.00  0.00     0.193 C 
HETATM   21  N2  UNL     1      28.507   2.762  53.856  1.00  0.00    -0.296 NA
HETATM   22  H10 UNL     1      29.182   3.532  53.589  1.00  0.00     0.187 HD
ENDBRANCH  18  20
ENDBRANCH   5  18
TORSDOF 3
ENDMDL
MODEL 2
REMARK VINA RESULT:      -7.0      3.237      4.675
REMARK  3 active torsions:
REMARK  status: ('A' for Active; 'I' for Inactive)
REMARK    1  A    between atoms: C4_4  and  C15_20 
REMARK    2  A    between atoms: C5_5  and  N1_6 
REMARK    3  A    between atoms: N1_6  and  C6_7 
ROOT
HETATM    1  C1  UNL     1      24.733   3.224  50.078  1.00  0.00     0.012 C 
HETATM    2  C2  UNL     1      23.329   3.443  50.531  1.00  0.00     0.017 A 
HETATM    3  C3  UNL     1      22.444   2.798  49.514  1.00  0.00     0.012 C 
HETATM    4  C4  UNL     1      23.041   3.042  52.017  1.00  0.00     0.035 A 
HETATM    5  C5  UNL     1      22.944   4.262  51.922  1.00  0.00     0.060 A 
HETATM    6  C7  UNL     1      23.992   3.295  52.495  1.00  0.00     0.047 A 
HETATM    7  C8  UNL     1      24.918   2.408  53.007  1.00  0.00    -0.021 A 
HETATM    8  C9  UNL     1      24.171   1.195  53.126  1.00  0.00     0.051 A 
HETATM    9  C10 UNL     1      23.907  -0.208  53.423  1.00  0.00     0.083 A 
HETATM   10 CL1  UNL     1      25.462  -0.727  53.887  1.00  0.00    -0.115 Cl
HETATM   11  C11 UNL     1      23.013   0.743  53.047  1.00  0.00     0.067 A 
HETATM   12  C12 UNL     1      22.879   2.147  52.659  1.00  0.00     0.091 A 
HETATM   13  O1  UNL     1      21.408   2.520  52.450  1.00  0.00    -0.376 OA
HETATM   14  C13 UNL     1      20.586   1.342  52.432  1.00  0.00     0.195 C 
HETATM   15  C14 UNL     1      21.171   0.649  51.152  1.00  0.00     0.194 C 
HETATM   16  O2  UNL     1      22.501   0.645  51.386  1.00  0.00    -0.381 OA
HETATM   17  C15 UNL     1      23.301   1.566  51.698  1.00  0.00     0.156 A 
ENDROOT
BRANCH   5  18
HETATM   18  N1  UNL     1      22.677   5.570  51.769  1.00  0.00    -0.373 N 
HETATM   19  H8  UNL     1      21.701   5.606  52.130  1.00  0.00     0.161 HD
BRANCH  18  20
HETATM   20  C6  UNL     1      23.562   6.538  51.249  1.00  0.00     0.193 C 
HETATM   21  N2  UNL     1      24.547   6.986  51.996  1.00  0.00    -0.296 NA
HETATM   22  H10 UNL     1      25.199   7.706  51.575  1.00  0.00     0.187 HD
ENDBRANCH  18  20
ENDBRANCH   5  18
TORSDOF 3
ENDMDL
MODEL 3
REMARK VINA RESULT:      -6.7      3.485      5.191
REMARK  3 active torsions:
REMARK  status: ('A' for Active; 'I' for Inactive)
REMARK    1  A    between atoms: C4_4  and  C15_20 
REMARK    2  A    between atoms: C5_5  and  N1_6 
REMARK    3  A    between atoms: N1_6  and  C6_7 
ROOT
HETATM    1  C1  UNL     1      22.067   1.345  49.888  1.00  0.00     0.012 C 
HETATM    2  C2  UNL     1      21.293   1.509  51.151  1.00  0.00     0.017 A 
HETATM    3  C3  UNL     1      20.278   0.413  51.179  1.00  0.00     0.012 C 
HETATM    4  C4  UNL     1      22.161   1.648  52.448  1.00  0.00     0.035 A 
HETATM    5  C5  UNL     1      21.594   2.719  52.247  1.00  0.00     0.060 A 
HETATM    6  C7  UNL     1      23.028   2.195  52.067  1.00  0.00     0.047 A 
HETATM    7  C8  UNL     1      24.310   1.706  51.917  1.00  0.00    -0.021 A 
HETATM    8  C9  UNL     1      24.302   0.527  52.727  1.00  0.00     0.051 A 
HETATM    9  C10 UNL     1      24.808  -0.689  53.352  1.00  0.00     0.083 A 
HETATM   10 CL1  UNL     1      26.365  -0.768  52.665  1.00  0.00    -0.115 Cl
HETATM   11  C11 UNL     1      23.610  -0.086  53.563  1.00  0.00     0.067 A 
HETATM   12  C12 UNL     1      22.769   1.040  53.155  1.00  0.00     0.091 A 
HETATM   13  O1  UNL     1      21.482   1.091  53.983  1.00  0.00    -0.376 OA
HETATM   14  C13 UNL     1      21.323  -0.117  54.745  1.00  0.00     0.195 C 
HETATM   15  C14 UNL     1      21.185  -1.140  53.565  1.00  0.00     0.194 C 
HETATM   16  O2  UNL     1      22.257  -0.864  52.791  1.00  0.00    -0.381 OA
HETATM   17  C15 UNL     1      22.675   0.213  52.290  1.00  0.00     0.156 A 
ENDROOT
BRANCH   5  18
HETATM   18  N1  UNL     1      20.842   3.823  52.112  1.00  0.00    -0.373 N 
HETATM   19  H8  UNL     1      20.089   3.625  52.804  1.00  0.00     0.161 HD
BRANCH  18  20
HETATM   20  C6  UNL     1      21.103   4.897  51.235  1.00  0.00     0.193 C 
HETATM   21  N2  UNL     1      21.844   5.904  51.643  1.00  0.00    -0.296 NA
HETATM   22  H10 UNL     1      22.029   6.691  50.959  1.00  0.00     0.187 HD
ENDBRANCH  18  20
ENDBRANCH   5  18
TORSDOF 3
ENDMDL
MODEL 4
REMARK VINA RESULT:      -6.7      3.171      4.865
REMARK  3 active torsions:
REMARK  status: ('A' for Active; 'I' for Inactive)
REMARK    1  A    between atoms: C4_4  and  C15_20 
REMARK    2  A    between atoms: C5_5  and  N1_6 
REMARK    3  A    between atoms: N1_6  and  C6_7 
ROOT
HETATM    1  C1  UNL     1      21.412   3.268  52.255  1.00  0.00     0.012 C 
HETATM    2  C2  UNL     1      22.731   3.177  51.567  1.00  0.00     0.017 A 
HETATM    3  C3  UNL     1      23.642   4.143  52.253  1.00  0.00     0.012 C 
HETATM    4  C4  UNL     1      23.297   1.725  51.407  1.00  0.00     0.035 A 
HETATM    5  C5  UNL     1      23.018   2.154  50.291  1.00  0.00     0.060 A 
HETATM    6  C7  UNL     1      22.378   1.151  51.263  1.00  0.00     0.047 A 
HETATM    7  C8  UNL     1      21.821   0.251  52.150  1.00  0.00    -0.021 A 
HETATM    8  C9  UNL     1      22.901  -0.031  53.043  1.00  0.00     0.051 A 
HETATM    9  C10 UNL     1      23.600  -0.628  54.175  1.00  0.00     0.083 A 
HETATM   10 CL1  UNL     1      22.333  -1.511  54.894  1.00  0.00    -0.115 Cl
HETATM   11  C11 UNL     1      24.124   0.154  53.196  1.00  0.00     0.067 A 
HETATM   12  C12 UNL     1      23.791   0.917  51.992  1.00  0.00     0.091 A 
HETATM   13  O1  UNL     1      25.051   1.503  51.349  1.00  0.00    -0.376 OA
HETATM   14  C13 UNL     1      26.176   1.375  52.233  1.00  0.00     0.195 C 
HETATM   15  C14 UNL     1      25.675   2.285  53.408  1.00  0.00     0.194 C 
HETATM   16  O2  UNL     1      24.442   1.799  53.670  1.00  0.00    -0.381 OA
HETATM   17  C15 UNL     1      23.449   1.588  52.925  1.00  0.00     0.156 A 
ENDROOT
BRANCH   5  18
HETATM   18  N1  UNL     1      22.868   2.695  49.071  1.00  0.00    -0.373 N 
HETATM   19  H8  UNL     1      23.304   3.629  49.223  1.00  0.00     0.161 HD
BRANCH  18  20
HETATM   20  C6  UNL     1      22.266   2.069  47.959  1.00  0.00     0.193 C 
HETATM   21  N2  UNL     1      21.201   1.319  48.133  1.00  0.00    -0.296 NA
HETATM   22  H10 UNL     1      20.767   0.869  47.278  1.00  0.00     0.187 HD
ENDBRANCH  18  20
ENDBRANCH   5  18
TORSDOF 3
ENDMDL
MODEL 5
REMARK VINA RESULT:      -6.6      2.076      3.633
REMARK  3 active torsions:
REMARK  status: ('A' for Active; 'I' for Inactive)
REMARK    1  A    between atoms: C4_4  and  C15_20 
REMARK    2  A    between atoms: C5_5  and  N1_6 
REMARK    3  A    between atoms: N1_6  and  C6_7 
ROOT
HETATM    1  C1  UNL     1      23.427   3.527  53.198  1.00  0.00     0.012 C 
HETATM    2  C2  UNL     1      24.596   2.808  52.616  1.00  0.00     0.017 A 
HETATM    3  C3  UNL     1      25.678   2.842  53.647  1.00  0.00     0.012 C 
HETATM    4  C4  UNL     1      24.278   1.390  52.031  1.00  0.00     0.035 A 
HETATM    5  C5  UNL     1      24.581   2.132  51.100  1.00  0.00     0.060 A 
HETATM    6  C7  UNL     1      23.268   1.542  51.639  1.00  0.00     0.047 A 
HETATM    7  C8  UNL     1      22.101   0.998  52.138  1.00  0.00    -0.021 A 
HETATM    8  C9  UNL     1      22.571  -0.069  52.965  1.00  0.00     0.051 A 
HETATM    9  C10 UNL     1      22.503  -1.197  53.886  1.00  0.00     0.083 A 
HETATM   10 CL1  UNL     1      20.827  -1.260  54.181  1.00  0.00    -0.115 Cl
HETATM   11  C11 UNL     1      23.602  -0.703  53.260  1.00  0.00     0.067 A 
HETATM   12  C12 UNL     1      24.070   0.345  52.352  1.00  0.00     0.091 A 
HETATM   13  O1  UNL     1      25.557   0.169  52.031  1.00  0.00    -0.376 OA
HETATM   14  C13 UNL     1      26.150  -0.807  52.904  1.00  0.00     0.195 C 
HETATM   15  C14 UNL     1      25.960  -0.065  54.274  1.00  0.00     0.194 C 
HETATM   16  O2  UNL     1      24.647   0.255  54.270  1.00  0.00    -0.381 OA
HETATM   17  C15 UNL     1      23.934   0.861  53.427  1.00  0.00     0.156 A 
ENDROOT
BRANCH   5  18
HETATM   18  N1  UNL     1      25.074   2.904  50.118  1.00  0.00    -0.373 N 
HETATM   19  H8  UNL     1      24.205   3.386  49.803  1.00  0.00     0.161 HD
BRANCH  18  20
HETATM   20  C6  UNL     1      26.424   2.962  49.712  1.00  0.00     0.193 C 
HETATM   21  N2  UNL     1      27.167   3.986  50.070  1.00  0.00    -0.296 NA
HETATM   22  H10 UNL     1      28.178   3.997  49.757  1.00  0.00     0.187 HD
ENDBRANCH  18  20
ENDBRANCH   5  18
TORSDOF 3
ENDMDL
MODEL 6
REMARK VINA RESULT:      -6.2      3.400      5.386
REMARK  3 active torsions:
REMARK  status: ('A' for Active; 'I' for Inactive)
REMARK    1  A    between atoms: C4_4  and  C15_20 
REMARK    2  A    between atoms: C5_5  and  N1_6 
REMARK    3  A    between atoms: N1_6  and  C6_7 
ROOT
HETATM    1  C1  UNL     1      22.954   5.879  50.472  1.00  0.00     0.012 C 
HETATM    2  C2  UNL     1      24.108   5.104  51.012  1.00  0.00     0.017 A 
HETATM    3  C3  UNL     1      23.962   5.096  52.499  1.00  0.00     0.012 C 
HETATM    4  C4  UNL     1      24.329   3.699  50.355  1.00  0.00     0.035 A 
HETATM    5  C5  UNL     1      25.272   4.422  50.045  1.00  0.00     0.060 A 
HETATM    6  C7  UNL     1      24.021   3.894  49.324  1.00  0.00     0.047 A 
HETATM    7  C8  UNL     1      22.894   3.406  48.694  1.00  0.00    -0.021 A 
HETATM    8  C9  UNL     1      22.496   2.323  49.539  1.00  0.00     0.051 A 
HETATM    9  C10 UNL     1      21.692   1.205  50.016  1.00  0.00     0.083 A 
HETATM   10 CL1  UNL     1      20.427   1.219  48.874  1.00  0.00    -0.115 Cl
HETATM   11  C11 UNL     1      22.877   1.645  50.512  1.00  0.00     0.067 A 
HETATM   12  C12 UNL     1      23.914   2.666  50.355  1.00  0.00     0.091 A 
HETATM   13  O1  UNL     1      25.074   2.421  51.324  1.00  0.00    -0.376 OA
HETATM   14  C13 UNL     1      24.719   1.425  52.297  1.00  0.00     0.195 C 
HETATM   15  C14 UNL     1      23.547   2.182  53.013  1.00  0.00     0.194 C 
HETATM   16  O2  UNL     1      22.754   2.561  51.987  1.00  0.00    -0.381 OA
HETATM   17  C15 UNL     1      23.000   3.193  50.926  1.00  0.00     0.156 A 
ENDROOT
BRANCH   5  18
HETATM   18  N1  UNL     1      26.374   5.165  49.854  1.00  0.00    -0.373 N 
HETATM   19  H8  UNL     1      26.314   5.805  50.673  1.00  0.00     0.161 HD
BRANCH  18  20
HETATM   20  C6  UNL     1      27.292   5.022  48.792  1.00  0.00     0.193 C 
HETATM   21  N2  UNL     1      28.573   5.224  49.009  1.00  0.00    -0.296 NA
HETATM   22  H10 UNL     1      29.238   5.101  48.194  1.00  0.00     0.187 HD
ENDBRANCH  18  20
ENDBRANCH   5  18
TORSDOF 3
ENDMDL
MODEL 7
REMARK VINA RESULT:      -6.2      3.901      5.611
REMARK  3 active torsions:
REMARK  status: ('A' for Active; 'I' for Inactive)
REMARK    1  A    between atoms: C4_4  and  C15_20 
REMARK    2  A    between atoms: C5_5  and  N1_6 
REMARK    3  A    between atoms: N1_6  and  C6_7 
ROOT
HETATM    1  C1  UNL     1      25.276   4.339  50.356  1.00  0.00     0.012 C 
HETATM    2  C2  UNL     1      23.812   4.555  50.178  1.00  0.00     0.017 A 
HETATM    3  C3  UNL     1      23.465   4.050  48.814  1.00  0.00     0.012 C 
HETATM    4  C4  UNL     1      22.914   4.008  51.340  1.00  0.00     0.035 A 
HETATM    5  C5  UNL     1      22.848   5.234  51.346  1.00  0.00     0.060 A 
HETATM    6  C7  UNL     1      23.560   4.178  52.206  1.00  0.00     0.047 A 
HETATM    7  C8  UNL     1      24.187   3.212  52.968  1.00  0.00    -0.021 A 
HETATM    8  C9  UNL     1      23.483   2.018  52.618  1.00  0.00     0.051 A 
HETATM    9  C10 UNL     1      23.139   0.601  52.617  1.00  0.00     0.083 A 
HETATM   10 CL1  UNL     1      24.348  -0.014  53.647  1.00  0.00    -0.115 Cl
HETATM   11  C11 UNL     1      22.481   1.615  51.997  1.00  0.00     0.067 A 
HETATM   12  C12 UNL     1      22.505   3.056  51.745  1.00  0.00     0.091 A 
HETATM   13  O1  UNL     1      21.264   3.497  50.963  1.00  0.00    -0.376 OA
HETATM   14  C13 UNL     1      20.550   2.354  50.462  1.00  0.00     0.195 C 
HETATM   15  C14 UNL     1      21.644   1.782  49.494  1.00  0.00     0.194 C 
HETATM   16  O2  UNL     1      22.742   1.710  50.279  1.00  0.00    -0.381 OA
HETATM   17  C15 UNL     1      23.312   2.567  51.004  1.00  0.00     0.156 A 
ENDROOT
BRANCH   5  18
HETATM   18  N1  UNL     1      22.652   6.558  51.237  1.00  0.00    -0.373 N 
HETATM   19  H8  UNL     1      23.586   6.912  51.533  1.00  0.00     0.161 HD
BRANCH  18  20
HETATM   20  C6  UNL     1      21.459   7.185  50.820  1.00  0.00     0.193 C 
HETATM   21  N2  UNL     1      20.441   6.450  50.428  1.00  0.00    -0.296 NA
HETATM   22  H10 UNL     1      19.557   6.949  50.129  1.00  0.00     0.187 HD
ENDBRANCH  18  20
ENDBRANCH   5  18
TORSDOF 3
ENDMDL
MODEL 8
REMARK VINA RESULT:      -6.2      4.954      6.902
REMARK  3 active torsions:
REMARK  status: ('A' for Active; 'I' for Inactive)
REMARK    1  A    between atoms: C4_4  and  C15_20 
REMARK    2  A    between atoms: C5_5  and  N1_6 
REMARK    3  A    between atoms: N1_6  and  C6_7 
ROOT
HETATM    1  C1  UNL     1      24.943   2.957  52.305  1.00  0.00     0.012 C 
HETATM    2  C2  UNL     1      23.750   3.564  51.649  1.00  0.00     0.017 A 
HETATM    3  C3  UNL     1      23.327   4.714  52.505  1.00  0.00     0.012 C 
HETATM    4  C4  UNL     1      23.925   3.894  50.128  1.00  0.00     0.035 A 
HETATM    5  C5  UNL     1      23.104   2.988  50.233  1.00  0.00     0.060 A 
HETATM    6  C7  UNL     1      24.577   3.078  49.805  1.00  0.00     0.047 A 
HETATM    7  C8  UNL     1      25.899   3.181  49.422  1.00  0.00    -0.021 A 
HETATM    8  C9  UNL     1      26.052   4.580  49.165  1.00  0.00     0.051 A 
HETATM    9  C10 UNL     1      26.719   5.824  48.802  1.00  0.00     0.083 A 
HETATM   10 CL1  UNL     1      28.312   5.267  48.569  1.00  0.00    -0.115 Cl
HETATM   11  C11 UNL     1      25.399   5.636  49.057  1.00  0.00     0.067 A 
HETATM   12  C12 UNL     1      24.405   4.636  49.451  1.00  0.00     0.091 A 
HETATM   13  O1  UNL     1      22.994   5.232  49.441  1.00  0.00    -0.376 OA
HETATM   14  C13 UNL     1      23.051   6.662  49.309  1.00  0.00     0.195 C 
HETATM   15  C14 UNL     1      23.791   7.007  50.648  1.00  0.00     0.194 C 
HETATM   16  O2  UNL     1      24.872   6.197  50.619  1.00  0.00    -0.381 OA
HETATM   17  C15 UNL     1      24.984   4.953  50.452  1.00  0.00     0.156 A 
ENDROOT
BRANCH   5  18
HETATM   18  N1  UNL     1      22.089   2.119  50.371  1.00  0.00    -0.373 N 
HETATM   19  H8  UNL     1      22.184   1.878  51.380  1.00  0.00     0.161 HD
BRANCH  18  20
HETATM   20  C6  UNL     1      21.200   1.719  49.352  1.00  0.00     0.193 C 
HETATM   21  N2  UNL     1      21.648   1.011  48.338  1.00  0.00    -0.296 NA
HETATM   22  H10 UNL     1      20.954   0.720  47.593  1.00  0.00     0.187 HD
ENDBRANCH  18  20
ENDBRANCH   5  18
TORSDOF 3
ENDMDL
MODEL 9
REMARK VINA RESULT:      -6.1      9.739     11.197
REMARK  3 active torsions:
REMARK  status: ('A' for Active; 'I' for Inactive)
REMARK    1  A    between atoms: C4_4  and  C15_20 
REMARK    2  A    between atoms: C5_5  and  N1_6 
REMARK    3  A    between atoms: N1_6  and  C6_7 
ROOT
HETATM    1  C1  UNL     1      32.300   3.847  46.521  1.00  0.00     0.012 C 
HETATM    2  C2  UNL     1      33.242   4.980  46.751  1.00  0.00     0.017 A 
HETATM    3  C3  UNL     1      33.727   5.415  45.406  1.00  0.00     0.012 C 
HETATM    4  C4  UNL     1      32.690   6.127  47.664  1.00  0.00     0.035 A 
HETATM    5  C5  UNL     1      33.603   5.565  48.261  1.00  0.00     0.060 A 
HETATM    6  C7  UNL     1      32.070   5.562  48.366  1.00  0.00     0.047 A 
HETATM    7  C8  UNL     1      30.692   5.577  48.445  1.00  0.00    -0.021 A 
HETATM    8  C9  UNL     1      30.340   6.756  47.715  1.00  0.00     0.051 A 
HETATM    9  C10 UNL     1      29.482   7.766  47.109  1.00  0.00     0.083 A 
HETATM   10 CL1  UNL     1      27.944   7.129  47.474  1.00  0.00    -0.115 Cl
HETATM   11  C11 UNL     1      30.838   7.766  47.182  1.00  0.00     0.067 A 
HETATM   12  C12 UNL     1      31.993   6.995  47.641  1.00  0.00     0.091 A 
HETATM   13  O1  UNL     1      33.295   7.770  47.415  1.00  0.00    -0.376 OA
HETATM   14  C13 UNL     1      33.061   8.917  46.580  1.00  0.00     0.195 C 
HETATM   15  C14 UNL     1      32.614   8.183  45.267  1.00  0.00     0.194 C 
HETATM   16  O2  UNL     1      31.646   7.345  45.698  1.00  0.00    -0.381 OA
HETATM   17  C15 UNL     1      31.629   6.485  46.618  1.00  0.00     0.156 A 
ENDROOT
BRANCH   5  18
HETATM   18  N1  UNL     1      34.708   5.055  48.830  1.00  0.00    -0.373 N 
HETATM   19  H8  UNL     1      34.446   4.048  48.880  1.00  0.00     0.161 HD
BRANCH  18  20
HETATM   20  C6  UNL     1      35.852   5.785  49.213  1.00  0.00     0.193 C 
HETATM   21  N2  UNL     1      36.029   7.005  48.753  1.00  0.00    -0.296 NA
HETATM   22  H10 UNL     1      36.894   7.530  49.065  1.00  0.00     0.187 HD
ENDBRANCH  18  20
ENDBRANCH   5  18
TORSDOF 3
ENDMDL
