MODEL 1
REMARK VINA RESULT:      -7.2      0.000      0.000
REMARK  6 active torsions:
REMARK  status: ('A' for Active; 'I' for Inactive)
REMARK    1  A    between atoms: C1_2  and  C2_3 
REMARK    2  A    between atoms: C2_3  and  N1_4 
REMARK    3  A    between atoms: N1_4  and  C3_5 
REMARK    4  A    between atoms: C3_5  and  C4_6 
REMARK    5  A    between atoms: C9_13  and  N4_14 
REMARK    6  A    between atoms: N4_14  and  C10_15 
ROOT
HETATM    1  C4  UNL     1      24.118  -0.269  53.629  1.00  0.00     0.034 C 
HETATM    2  C5  UNL     1      24.922  -0.643  54.616  1.00  0.00     0.028 C 
HETATM    3  C6  UNL     1      26.225  -0.048  54.856  1.00  0.00     0.032 C 
HETATM    4  C7  UNL     1      26.662   0.922  54.093  1.00  0.00     0.066 C 
HETATM    5  N2  UNL     1      27.967   1.484  54.336  1.00  0.00    -0.244 NA
HETATM    6  C8  UNL     1      28.466   2.247  53.391  1.00  0.00     0.235 C 
HETATM    7  N3  UNL     1      27.738   2.509  52.223  1.00  0.00    -0.226 NA
HETATM    8  C9  UNL     1      26.574   2.086  51.975  1.00  0.00     0.134 C 
HETATM    9  C16 UNL     1      25.791   1.461  53.064  1.00  0.00     0.204 C 
HETATM   10  N5  UNL     1      24.655   0.699  52.701  1.00  0.00    -0.375 N 
HETATM   11  H16 UNL     1      24.188   0.812  51.773  1.00  0.00     0.160 HD
ENDROOT
BRANCH   8  12
HETATM   12  N4  UNL     1      25.833   2.319  50.800  1.00  0.00    -0.342 N 
HETATM   13  H10 UNL     1      25.202   1.727  50.233  1.00  0.00     0.167 HD
BRANCH  12  14
HETATM   14  C10 UNL     1      25.952   3.651  50.254  1.00  0.00     0.034 A 
HETATM   15  C11 UNL     1      26.924   3.841  49.275  1.00  0.00     0.029 A 
HETATM   16  C12 UNL     1      27.039   5.110  48.731  1.00  0.00     0.004 A 
HETATM   17  C13 UNL     1      26.227   6.148  49.141  1.00  0.00     0.019 A 
HETATM   18  C14 UNL     1      25.273   5.939  50.111  1.00  0.00     0.013 A 
HETATM   19 BR1  UNL     1      24.070   7.267  50.781  1.00  0.00    -0.051 Br
HETATM   20  C15 UNL     1      25.153   4.694  50.650  1.00  0.00     0.048 A 
ENDBRANCH  12  14
ENDBRANCH   8  12
BRANCH   1  21
HETATM   21  C3  UNL     1      22.765  -0.795  53.289  1.00  0.00     0.326 C 
BRANCH  21  22
HETATM   22  N1  UNL     1      21.881   0.288  52.887  1.00  0.00     0.095 N 
HETATM   23  H4  UNL     1      22.449   1.169  52.958  1.00  0.00     0.316 HD
BRANCH  22  24
HETATM   24  C2  UNL     1      21.436   0.162  51.520  1.00  0.00     0.339 C 
BRANCH  24  25
HETATM   25  C1  UNL     1      21.740   1.385  50.704  1.00  0.00     0.261 C 
HETATM   26  O1  UNL     1      22.915   1.554  50.497  1.00  0.00    -0.305 OA
ENDBRANCH  24  25
ENDBRANCH  22  24
ENDBRANCH  21  22
ENDBRANCH   1  21
TORSDOF 6
ENDMDL
MODEL 2
REMARK VINA RESULT:      -6.9      3.333      5.440
REMARK  6 active torsions:
REMARK  status: ('A' for Active; 'I' for Inactive)
REMARK    1  A    between atoms: C1_2  and  C2_3 
REMARK    2  A    between atoms: C2_3  and  N1_4 
REMARK    3  A    between atoms: N1_4  and  C3_5 
REMARK    4  A    between atoms: C3_5  and  C4_6 
REMARK    5  A    between atoms: C9_13  and  N4_14 
REMARK    6  A    between atoms: N4_14  and  C10_15 
ROOT
HETATM    1  C4  UNL     1      25.257  -0.568  54.123  1.00  0.00     0.034 C 
HETATM    2  C5  UNL     1      24.771  -1.082  55.245  1.00  0.00     0.028 C 
HETATM    3  C6  UNL     1      23.358  -1.341  55.461  1.00  0.00     0.032 C 
HETATM    4  C7  UNL     1      22.486  -1.083  54.519  1.00  0.00     0.066 C 
HETATM    5  N2  UNL     1      21.086  -1.328  54.761  1.00  0.00    -0.244 NA
HETATM    6  C8  UNL     1      20.239  -0.803  53.907  1.00  0.00     0.235 C 
HETATM    7  N3  UNL     1      20.695  -0.066  52.806  1.00  0.00    -0.226 NA
HETATM    8  C9  UNL     1      21.907   0.141  52.515  1.00  0.00     0.134 C 
HETATM    9  C16 UNL     1      22.955  -0.626  53.224  1.00  0.00     0.204 C 
HETATM   10  N5  UNL     1      24.286  -0.151  53.138  1.00  0.00    -0.375 N 
HETATM   11  H16 UNL     1      24.592   0.501  52.382  1.00  0.00     0.160 HD
ENDROOT
BRANCH   8  12
HETATM   12  N4  UNL     1      22.388   0.895  51.427  1.00  0.00    -0.342 N 
HETATM   13  H10 UNL     1      22.878   0.641  50.553  1.00  0.00     0.167 HD
BRANCH  12  14
HETATM   14  C10 UNL     1      22.157   2.318  51.517  1.00  0.00     0.034 A 
HETATM   15  C11 UNL     1      23.037   3.045  52.314  1.00  0.00     0.029 A 
HETATM   16  C12 UNL     1      22.838   4.414  52.397  1.00  0.00     0.004 A 
HETATM   17  C13 UNL     1      21.807   5.036  51.721  1.00  0.00     0.019 A 
HETATM   18  C14 UNL     1      20.947   4.298  50.940  1.00  0.00     0.013 A 
HETATM   19 BR1  UNL     1      19.480   5.009  49.939  1.00  0.00    -0.051 Br
HETATM   20  C15 UNL     1      21.138   2.953  50.852  1.00  0.00     0.048 A 
ENDBRANCH  12  14
ENDBRANCH   8  12
BRANCH   1  21
HETATM   21  C3  UNL     1      26.677  -0.268  53.783  1.00  0.00     0.326 C 
BRANCH  21  22
HETATM   22  N1  UNL     1      27.499  -0.249  54.983  1.00  0.00     0.095 N 
HETATM   23  H4  UNL     1      27.515  -1.236  55.340  1.00  0.00     0.316 HD
BRANCH  22  24
HETATM   24  C2  UNL     1      28.862   0.143  54.715  1.00  0.00     0.339 C 
BRANCH  24  25
HETATM   25  C1  UNL     1      28.946   1.394  53.888  1.00  0.00     0.261 C 
HETATM   26  O1  UNL     1      29.005   2.406  54.540  1.00  0.00    -0.305 OA
ENDBRANCH  24  25
ENDBRANCH  22  24
ENDBRANCH  21  22
ENDBRANCH   1  21
TORSDOF 6
ENDMDL
MODEL 3
REMARK VINA RESULT:      -6.9      2.805      5.076
REMARK  6 active torsions:
REMARK  status: ('A' for Active; 'I' for Inactive)
REMARK    1  A    between atoms: C1_2  and  C2_3 
REMARK    2  A    between atoms: C2_3  and  N1_4 
REMARK    3  A    between atoms: N1_4  and  C3_5 
REMARK    4  A    between atoms: C3_5  and  C4_6 
REMARK    5  A    between atoms: C9_13  and  N4_14 
REMARK    6  A    between atoms: N4_14  and  C10_15 
ROOT
HETATM    1  C4  UNL     1      25.869   2.093  52.435  1.00  0.00     0.034 C 
HETATM    2  C5  UNL     1      25.044   1.065  52.573  1.00  0.00     0.028 C 
HETATM    3  C6  UNL     1      23.599   1.180  52.485  1.00  0.00     0.032 C 
HETATM    4  C7  UNL     1      23.040   2.339  52.242  1.00  0.00     0.066 C 
HETATM    5  N2  UNL     1      21.603   2.436  52.180  1.00  0.00    -0.244 NA
HETATM    6  C8  UNL     1      21.091   3.644  52.211  1.00  0.00     0.235 C 
HETATM    7  N3  UNL     1      21.920   4.772  52.277  1.00  0.00    -0.226 NA
HETATM    8  C9  UNL     1      23.183   4.753  52.286  1.00  0.00     0.134 C 
HETATM    9  C16 UNL     1      23.883   3.489  51.968  1.00  0.00     0.204 C 
HETATM   10  N5  UNL     1      25.254   3.394  52.310  1.00  0.00    -0.375 N 
HETATM   11  H16 UNL     1      25.840   4.242  52.480  1.00  0.00     0.160 HD
ENDROOT
BRANCH   8  12
HETATM   12  N4  UNL     1      24.035   5.871  52.372  1.00  0.00    -0.342 N 
HETATM   13  H10 UNL     1      24.584   6.284  53.146  1.00  0.00     0.167 HD
BRANCH  12  14
HETATM   14  C10 UNL     1      24.202   6.612  51.144  1.00  0.00     0.034 A 
HETATM   15  C11 UNL     1      23.184   7.499  50.805  1.00  0.00     0.029 A 
HETATM   16  C12 UNL     1      23.338   8.228  49.637  1.00  0.00     0.004 A 
HETATM   17  C13 UNL     1      24.453   8.084  48.837  1.00  0.00     0.019 A 
HETATM   18  C14 UNL     1      25.448   7.200  49.190  1.00  0.00     0.013 A 
HETATM   19 BR1  UNL     1      27.053   6.890  48.196  1.00  0.00    -0.051 Br
HETATM   20  C15 UNL     1      25.305   6.481  50.337  1.00  0.00     0.048 A 
ENDBRANCH  12  14
ENDBRANCH   8  12
BRANCH   1  21
HETATM   21  C3  UNL     1      27.359   2.098  52.496  1.00  0.00     0.326 C 
BRANCH  21  22
HETATM   22  N1  UNL     1      27.817   2.508  53.814  1.00  0.00     0.095 N 
HETATM   23  H4  UNL     1      27.019   2.321  54.470  1.00  0.00     0.316 HD
BRANCH  22  24
HETATM   24  C2  UNL     1      28.950   1.739  54.271  1.00  0.00     0.339 C 
BRANCH  24  25
HETATM   25  C1  UNL     1      28.742   0.262  54.108  1.00  0.00     0.261 C 
HETATM   26  O1  UNL     1      28.192  -0.260  55.045  1.00  0.00    -0.305 OA
ENDBRANCH  24  25
ENDBRANCH  22  24
ENDBRANCH  21  22
ENDBRANCH   1  21
TORSDOF 6
ENDMDL
MODEL 4
REMARK VINA RESULT:      -6.7      2.763      4.944
REMARK  6 active torsions:
REMARK  status: ('A' for Active; 'I' for Inactive)
REMARK    1  A    between atoms: C1_2  and  C2_3 
REMARK    2  A    between atoms: C2_3  and  N1_4 
REMARK    3  A    between atoms: N1_4  and  C3_5 
REMARK    4  A    between atoms: C3_5  and  C4_6 
REMARK    5  A    between atoms: C9_13  and  N4_14 
REMARK    6  A    between atoms: N4_14  and  C10_15 
ROOT
HETATM    1  C4  UNL     1      25.871   2.052  52.562  1.00  0.00     0.034 C 
HETATM    2  C5  UNL     1      25.049   1.036  52.788  1.00  0.00     0.028 C 
HETATM    3  C6  UNL     1      23.603   1.146  52.723  1.00  0.00     0.032 C 
HETATM    4  C7  UNL     1      23.038   2.286  52.414  1.00  0.00     0.066 C 
HETATM    5  N2  UNL     1      21.600   2.379  52.376  1.00  0.00    -0.244 NA
HETATM    6  C8  UNL     1      21.088   3.587  52.336  1.00  0.00     0.235 C 
HETATM    7  N3  UNL     1      21.917   4.716  52.306  1.00  0.00    -0.226 NA
HETATM    8  C9  UNL     1      23.180   4.697  52.289  1.00  0.00     0.134 C 
HETATM    9  C16 UNL     1      23.874   3.413  52.043  1.00  0.00     0.204 C 
HETATM   10  N5  UNL     1      25.251   3.342  52.362  1.00  0.00    -0.375 N 
HETATM   11  H16 UNL     1      25.840   4.199  52.461  1.00  0.00     0.160 HD
ENDROOT
BRANCH   8  12
HETATM   12  N4  UNL     1      24.032   5.818  52.280  1.00  0.00    -0.342 N 
HETATM   13  H10 UNL     1      24.633   6.255  53.000  1.00  0.00     0.167 HD
BRANCH  12  14
HETATM   14  C10 UNL     1      24.110   6.520  51.020  1.00  0.00     0.034 A 
HETATM   15  C11 UNL     1      25.217   6.248  50.221  1.00  0.00     0.029 A 
HETATM   16  C12 UNL     1      25.298   6.902  49.002  1.00  0.00     0.004 A 
HETATM   17  C13 UNL     1      24.324   7.790  48.593  1.00  0.00     0.019 A 
HETATM   18  C14 UNL     1      23.237   8.046  49.399  1.00  0.00     0.013 A 
HETATM   19 BR1  UNL     1      21.804   9.240  48.975  1.00  0.00    -0.051 Br
HETATM   20  C15 UNL     1      23.150   7.406  50.598  1.00  0.00     0.048 A 
ENDBRANCH  12  14
ENDBRANCH   8  12
BRANCH   1  21
HETATM   21  C3  UNL     1      27.362   2.060  52.590  1.00  0.00     0.326 C 
BRANCH  21  22
HETATM   22  N1  UNL     1      27.848   2.494  53.891  1.00  0.00     0.095 N 
HETATM   23  H4  UNL     1      27.069   2.305  54.570  1.00  0.00     0.316 HD
BRANCH  22  24
HETATM   24  C2  UNL     1      29.002   1.746  54.328  1.00  0.00     0.339 C 
BRANCH  24  25
HETATM   25  C1  UNL     1      28.811   0.264  54.188  1.00  0.00     0.261 C 
HETATM   26  O1  UNL     1      28.211  -0.239  55.105  1.00  0.00    -0.305 OA
ENDBRANCH  24  25
ENDBRANCH  22  24
ENDBRANCH  21  22
ENDBRANCH   1  21
TORSDOF 6
ENDMDL
MODEL 5
REMARK VINA RESULT:      -6.7      2.024      4.161
REMARK  6 active torsions:
REMARK  status: ('A' for Active; 'I' for Inactive)
REMARK    1  A    between atoms: C1_2  and  C2_3 
REMARK    2  A    between atoms: C2_3  and  N1_4 
REMARK    3  A    between atoms: N1_4  and  C3_5 
REMARK    4  A    between atoms: C3_5  and  C4_6 
REMARK    5  A    between atoms: C9_13  and  N4_14 
REMARK    6  A    between atoms: N4_14  and  C10_15 
ROOT
HETATM    1  C4  UNL     1      24.232  -0.249  53.728  1.00  0.00     0.034 C 
HETATM    2  C5  UNL     1      23.002  -0.734  53.829  1.00  0.00     0.028 C 
HETATM    3  C6  UNL     1      21.823  -0.033  53.351  1.00  0.00     0.032 C 
HETATM    4  C7  UNL     1      21.937   1.134  52.769  1.00  0.00     0.066 C 
HETATM    5  N2  UNL     1      20.752   1.823  52.322  1.00  0.00    -0.244 NA
HETATM    6  C8  UNL     1      20.890   3.089  52.004  1.00  0.00     0.235 C 
HETATM    7  N3  UNL     1      22.142   3.714  52.079  1.00  0.00    -0.226 NA
HETATM    8  C9  UNL     1      23.221   3.152  52.417  1.00  0.00     0.134 C 
HETATM    9  C16 UNL     1      23.260   1.677  52.522  1.00  0.00     0.204 C 
HETATM   10  N5  UNL     1      24.348   1.097  53.218  1.00  0.00    -0.375 N 
HETATM   11  H16 UNL     1      25.240   1.617  53.380  1.00  0.00     0.160 HD
ENDROOT
BRANCH   8  12
HETATM   12  N4  UNL     1      24.485   3.766  52.520  1.00  0.00    -0.342 N 
HETATM   13  H10 UNL     1      25.082   4.025  53.325  1.00  0.00     0.167 HD
BRANCH  12  14
HETATM   14  C10 UNL     1      25.105   4.110  51.261  1.00  0.00     0.034 A 
HETATM   15  C11 UNL     1      26.045   3.212  50.762  1.00  0.00     0.029 A 
HETATM   16  C12 UNL     1      26.636   3.521  49.548  1.00  0.00     0.004 A 
HETATM   17  C13 UNL     1      26.312   4.672  48.858  1.00  0.00     0.019 A 
HETATM   18  C14 UNL     1      25.380   5.547  49.370  1.00  0.00     0.013 A 
HETATM   19 BR1  UNL     1      24.818   7.174  48.537  1.00  0.00    -0.051 Br
HETATM   20  C15 UNL     1      24.794   5.250  50.563  1.00  0.00     0.048 A 
ENDBRANCH  12  14
ENDBRANCH   8  12
BRANCH   1  21
HETATM   21  C3  UNL     1      25.512  -0.874  54.170  1.00  0.00     0.326 C 
BRANCH  21  22
HETATM   22  N1  UNL     1      26.320   0.081  54.912  1.00  0.00     0.095 N 
HETATM   23  H4  UNL     1      26.447  -0.329  55.870  1.00  0.00     0.316 HD
BRANCH  22  24
HETATM   24  C2  UNL     1      27.630   0.266  54.335  1.00  0.00     0.339 C 
BRANCH  24  25
HETATM   25  C1  UNL     1      27.822   1.647  53.781  1.00  0.00     0.261 C 
HETATM   26  O1  UNL     1      26.939   2.416  54.068  1.00  0.00    -0.305 OA
ENDBRANCH  24  25
ENDBRANCH  22  24
ENDBRANCH  21  22
ENDBRANCH   1  21
TORSDOF 6
ENDMDL
MODEL 6
REMARK VINA RESULT:      -6.5      2.664      4.981
REMARK  6 active torsions:
REMARK  status: ('A' for Active; 'I' for Inactive)
REMARK    1  A    between atoms: C1_2  and  C2_3 
REMARK    2  A    between atoms: C2_3  and  N1_4 
REMARK    3  A    between atoms: N1_4  and  C3_5 
REMARK    4  A    between atoms: C3_5  and  C4_6 
REMARK    5  A    between atoms: C9_13  and  N4_14 
REMARK    6  A    between atoms: N4_14  and  C10_15 
ROOT
HETATM    1  C4  UNL     1      23.327  -0.879  54.574  1.00  0.00     0.034 C 
HETATM    2  C5  UNL     1      22.108  -1.187  54.996  1.00  0.00     0.028 C 
HETATM    3  C6  UNL     1      20.904  -0.923  54.230  1.00  0.00     0.032 C 
HETATM    4  C7  UNL     1      20.979  -0.369  53.046  1.00  0.00     0.066 C 
HETATM    5  N2  UNL     1      19.770  -0.096  52.310  1.00  0.00    -0.244 NA
HETATM    6  C8  UNL     1      19.878   0.699  51.271  1.00  0.00     0.235 C 
HETATM    7  N3  UNL     1      21.122   1.226  50.899  1.00  0.00    -0.226 NA
HETATM    8  C9  UNL     1      22.221   0.985  51.473  1.00  0.00     0.134 C 
HETATM    9  C16 UNL     1      22.285  -0.107  52.468  1.00  0.00     0.204 C 
HETATM   10  N5  UNL     1      23.405  -0.140  53.335  1.00  0.00    -0.375 N 
HETATM   11  H16 UNL     1      24.293   0.361  53.108  1.00  0.00     0.160 HD
ENDROOT
BRANCH   8  12
HETATM   12  N4  UNL     1      23.478   1.520  51.129  1.00  0.00    -0.342 N 
HETATM   13  H10 UNL     1      24.363   1.093  50.806  1.00  0.00     0.167 HD
BRANCH  12  14
HETATM   14  C10 UNL     1      23.582   2.957  51.229  1.00  0.00     0.034 A 
HETATM   15  C11 UNL     1      23.367   3.514  52.487  1.00  0.00     0.029 A 
HETATM   16  C12 UNL     1      23.479   4.890  52.602  1.00  0.00     0.004 A 
HETATM   17  C13 UNL     1      23.789   5.682  51.515  1.00  0.00     0.019 A 
HETATM   18  C14 UNL     1      23.997   5.112  50.279  1.00  0.00     0.013 A 
HETATM   19 BR1  UNL     1      24.439   6.068  48.682  1.00  0.00    -0.051 Br
HETATM   20  C15 UNL     1      23.889   3.760  50.159  1.00  0.00     0.048 A 
ENDBRANCH  12  14
ENDBRANCH   8  12
BRANCH   1  21
HETATM   21  C3  UNL     1      24.630  -1.107  55.261  1.00  0.00     0.326 C 
BRANCH  21  22
HETATM   22  N1  UNL     1      25.739  -0.755  54.388  1.00  0.00     0.095 N 
HETATM   23  H4  UNL     1      25.311  -0.300  53.544  1.00  0.00     0.316 HD
BRANCH  22  24
HETATM   24  C2  UNL     1      26.639   0.199  54.992  1.00  0.00     0.339 C 
BRANCH  24  25
HETATM   25  C1  UNL     1      28.036   0.085  54.456  1.00  0.00     0.261 C 
HETATM   26  O1  UNL     1      28.329  -1.025  54.089  1.00  0.00    -0.305 OA
ENDBRANCH  24  25
ENDBRANCH  22  24
ENDBRANCH  21  22
ENDBRANCH   1  21
TORSDOF 6
ENDMDL
MODEL 7
REMARK VINA RESULT:      -6.4      5.029      7.663
REMARK  6 active torsions:
REMARK  status: ('A' for Active; 'I' for Inactive)
REMARK    1  A    between atoms: C1_2  and  C2_3 
REMARK    2  A    between atoms: C2_3  and  N1_4 
REMARK    3  A    between atoms: N1_4  and  C3_5 
REMARK    4  A    between atoms: C3_5  and  C4_6 
REMARK    5  A    between atoms: C9_13  and  N4_14 
REMARK    6  A    between atoms: N4_14  and  C10_15 
ROOT
HETATM    1  C4  UNL     1      26.433   4.784  49.176  1.00  0.00     0.034 C 
HETATM    2  C5  UNL     1      25.533   5.680  48.797  1.00  0.00     0.028 C 
HETATM    3  C6  UNL     1      25.876   6.953  48.189  1.00  0.00     0.032 C 
HETATM    4  C7  UNL     1      27.128   7.267  47.969  1.00  0.00     0.066 C 
HETATM    5  N2  UNL     1      27.448   8.545  47.384  1.00  0.00    -0.244 NA
HETATM    6  C8  UNL     1      28.705   8.921  47.440  1.00  0.00     0.235 C 
HETATM    7  N3  UNL     1      29.675   8.095  48.022  1.00  0.00    -0.226 NA
HETATM    8  C9  UNL     1      29.464   6.947  48.507  1.00  0.00     0.134 C 
HETATM    9  C16 UNL     1      28.163   6.290  48.253  1.00  0.00     0.204 C 
HETATM   10  N5  UNL     1      27.817   5.184  49.067  1.00  0.00    -0.375 N 
HETATM   11  H16 UNL     1      28.536   4.645  49.601  1.00  0.00     0.160 HD
ENDROOT
BRANCH   8  12
HETATM   12  N4  UNL     1      30.419   6.110  49.115  1.00  0.00    -0.342 N 
HETATM   13  H10 UNL     1      30.400   5.512  49.960  1.00  0.00     0.167 HD
BRANCH  12  14
HETATM   14  C10 UNL     1      31.696   6.044  48.442  1.00  0.00     0.034 A 
HETATM   15  C11 UNL     1      32.786   6.588  49.116  1.00  0.00     0.029 A 
HETATM   16  C12 UNL     1      34.020   6.518  48.489  1.00  0.00     0.004 A 
HETATM   17  C13 UNL     1      34.167   5.936  47.247  1.00  0.00     0.019 A 
HETATM   18  C14 UNL     1      33.076   5.404  46.598  1.00  0.00     0.013 A 
HETATM   19 BR1  UNL     1      33.115   4.560  44.881  1.00  0.00    -0.051 Br
HETATM   20  C15 UNL     1      31.859   5.468  47.207  1.00  0.00     0.048 A 
ENDBRANCH  12  14
ENDBRANCH   8  12
BRANCH   1  21
HETATM   21  C3  UNL     1      26.205   3.449  49.799  1.00  0.00     0.326 C 
BRANCH  21  22
HETATM   22  N1  UNL     1      26.902   3.350  51.072  1.00  0.00     0.095 N 
HETATM   23  H4  UNL     1      26.531   4.132  51.667  1.00  0.00     0.316 HD
BRANCH  22  24
HETATM   24  C2  UNL     1      26.632   2.110  51.758  1.00  0.00     0.339 C 
BRANCH  24  25
HETATM   25  C1  UNL     1      27.684   1.778  52.776  1.00  0.00     0.261 C 
HETATM   26  O1  UNL     1      28.551   2.610  52.871  1.00  0.00    -0.305 OA
ENDBRANCH  24  25
ENDBRANCH  22  24
ENDBRANCH  21  22
ENDBRANCH   1  21
TORSDOF 6
ENDMDL
MODEL 8
REMARK VINA RESULT:      -6.3      3.219      6.516
REMARK  6 active torsions:
REMARK  status: ('A' for Active; 'I' for Inactive)
REMARK    1  A    between atoms: C1_2  and  C2_3 
REMARK    2  A    between atoms: C2_3  and  N1_4 
REMARK    3  A    between atoms: N1_4  and  C3_5 
REMARK    4  A    between atoms: C3_5  and  C4_6 
REMARK    5  A    between atoms: C9_13  and  N4_14 
REMARK    6  A    between atoms: N4_14  and  C10_15 
ROOT
HETATM    1  C4  UNL     1      26.086   2.568  52.341  1.00  0.00     0.034 C 
HETATM    2  C5  UNL     1      26.669   2.583  51.150  1.00  0.00     0.028 C 
HETATM    3  C6  UNL     1      26.058   3.157  49.965  1.00  0.00     0.032 C 
HETATM    4  C7  UNL     1      24.875   3.715  50.034  1.00  0.00     0.066 C 
HETATM    5  N2  UNL     1      24.277   4.261  48.841  1.00  0.00    -0.244 NA
HETATM    6  C8  UNL     1      22.999   4.553  48.903  1.00  0.00     0.235 C 
HETATM    7  N3  UNL     1      22.276   4.360  50.088  1.00  0.00    -0.226 NA
HETATM    8  C9  UNL     1      22.755   3.932  51.176  1.00  0.00     0.134 C 
HETATM    9  C16 UNL     1      24.224   3.839  51.325  1.00  0.00     0.204 C 
HETATM   10  N5  UNL     1      24.725   3.053  52.391  1.00  0.00    -0.375 N 
HETATM   11  H16 UNL     1      24.138   2.807  53.219  1.00  0.00     0.160 HD
ENDROOT
BRANCH   8  12
HETATM   12  N4  UNL     1      22.043   3.711  52.372  1.00  0.00    -0.342 N 
HETATM   13  H10 UNL     1      21.944   4.254  53.246  1.00  0.00     0.167 HD
BRANCH  12  14
HETATM   14  C10 UNL     1      21.279   2.486  52.413  1.00  0.00     0.034 A 
HETATM   15  C11 UNL     1      20.009   2.521  51.844  1.00  0.00     0.029 A 
HETATM   16  C12 UNL     1      19.270   1.350  51.862  1.00  0.00     0.004 A 
HETATM   17  C13 UNL     1      19.769   0.191  52.423  1.00  0.00     0.019 A 
HETATM   18  C14 UNL     1      21.026   0.177  52.982  1.00  0.00     0.013 A 
HETATM   19 BR1  UNL     1      21.860  -1.344  53.790  1.00  0.00    -0.051 Br
HETATM   20  C15 UNL     1      21.759   1.325  52.967  1.00  0.00     0.048 A 
ENDBRANCH  12  14
ENDBRANCH   8  12
BRANCH   1  21
HETATM   21  C3  UNL     1      26.613   2.020  53.623  1.00  0.00     0.326 C 
BRANCH  21  22
HETATM   22  N1  UNL     1      27.941   2.544  53.898  1.00  0.00     0.095 N 
HETATM   23  H4  UNL     1      27.856   3.104  54.782  1.00  0.00     0.316 HD
BRANCH  22  24
HETATM   24  C2  UNL     1      28.912   1.501  54.130  1.00  0.00     0.339 C 
BRANCH  24  25
HETATM   25  C1  UNL     1      28.303   0.285  54.766  1.00  0.00     0.261 C 
HETATM   26  O1  UNL     1      28.736  -0.756  54.340  1.00  0.00    -0.305 OA
ENDBRANCH  24  25
ENDBRANCH  22  24
ENDBRANCH  21  22
ENDBRANCH   1  21
TORSDOF 6
ENDMDL
MODEL 9
REMARK VINA RESULT:      -6.2      3.440      5.567
REMARK  6 active torsions:
REMARK  status: ('A' for Active; 'I' for Inactive)
REMARK    1  A    between atoms: C1_2  and  C2_3 
REMARK    2  A    between atoms: C2_3  and  N1_4 
REMARK    3  A    between atoms: N1_4  and  C3_5 
REMARK    4  A    between atoms: C3_5  and  C4_6 
REMARK    5  A    between atoms: C9_13  and  N4_14 
REMARK    6  A    between atoms: N4_14  and  C10_15 
ROOT
HETATM    1  C4  UNL     1      23.550   3.326  52.284  1.00  0.00     0.034 C 
HETATM    2  C5  UNL     1      22.224   3.331  52.270  1.00  0.00     0.028 C 
HETATM    3  C6  UNL     1      21.433   4.424  51.733  1.00  0.00     0.032 C 
HETATM    4  C7  UNL     1      22.019   5.472  51.211  1.00  0.00     0.066 C 
HETATM    5  N2  UNL     1      21.215   6.555  50.702  1.00  0.00    -0.244 NA
HETATM    6  C8  UNL     1      21.838   7.683  50.449  1.00  0.00     0.235 C 
HETATM    7  N3  UNL     1      23.220   7.798  50.646  1.00  0.00    -0.226 NA
HETATM    8  C9  UNL     1      23.983   6.873  51.042  1.00  0.00     0.134 C 
HETATM    9  C16 UNL     1      23.465   5.487  51.088  1.00  0.00     0.204 C 
HETATM   10  N5  UNL     1      24.198   4.538  51.841  1.00  0.00    -0.375 N 
HETATM   11  H16 UNL     1      25.201   4.689  52.092  1.00  0.00     0.160 HD
ENDROOT
BRANCH   8  12
HETATM   12  N4  UNL     1      25.370   6.972  51.266  1.00  0.00    -0.342 N 
HETATM   13  H10 UNL     1      25.965   6.811  52.097  1.00  0.00     0.167 HD
BRANCH  12  14
HETATM   14  C10 UNL     1      26.151   7.373  50.119  1.00  0.00     0.034 A 
HETATM   15  C11 UNL     1      26.323   6.422  49.117  1.00  0.00     0.029 A 
HETATM   16  C12 UNL     1      27.056   6.797  48.003  1.00  0.00     0.004 A 
HETATM   17  C13 UNL     1      27.598   8.062  47.887  1.00  0.00     0.019 A 
HETATM   18  C14 UNL     1      27.416   8.987  48.890  1.00  0.00     0.013 A 
HETATM   19 BR1  UNL     1      28.094  10.776  48.878  1.00  0.00    -0.051 Br
HETATM   20  C15 UNL     1      26.696   8.626  49.988  1.00  0.00     0.048 A 
ENDBRANCH  12  14
ENDBRANCH   8  12
BRANCH   1  21
HETATM   21  C3  UNL     1      24.466   2.266  52.796  1.00  0.00     0.326 C 
BRANCH  21  22
HETATM   22  N1  UNL     1      25.682   2.856  53.334  1.00  0.00     0.095 N 
HETATM   23  H4  UNL     1      25.402   3.343  54.221  1.00  0.00     0.316 HD
BRANCH  22  24
HETATM   24  C2  UNL     1      26.676   1.865  53.672  1.00  0.00     0.339 C 
BRANCH  24  25
HETATM   25  C1  UNL     1      28.062   2.439  53.722  1.00  0.00     0.261 C 
HETATM   26  O1  UNL     1      28.648   2.391  52.670  1.00  0.00    -0.305 OA
ENDBRANCH  24  25
ENDBRANCH  22  24
ENDBRANCH  21  22
ENDBRANCH   1  21
TORSDOF 6
ENDMDL
