MODEL 1
REMARK VINA RESULT:      -8.5      0.000      0.000
REMARK  6 active torsions:
REMARK  status: ('A' for Active; 'I' for Inactive)
REMARK    1  A    between atoms: C2_2  and  S1_3 
REMARK    2  A    between atoms: S1_3  and  N1_6 
REMARK    3  A    between atoms: N1_6  and  C3_7 
REMARK    4  A    between atoms: C3_7  and  C4_8 
REMARK    5  A    between atoms: C9_15  and  N4_16 
REMARK    6  A    between atoms: N4_16  and  C10_17 
ROOT
HETATM    1  C4  UNL     1      24.855   0.382  53.600  1.00  0.00    -0.043 A 
HETATM    2  C5  UNL     1      23.862  -0.574  53.574  1.00  0.00     0.011 A 
HETATM    3  C6  UNL     1      22.710  -0.280  52.893  1.00  0.00     0.033 A 
HETATM    4  C7  UNL     1      22.566   0.930  52.261  1.00  0.00     0.072 A 
HETATM    5  N2  UNL     1      21.406   1.149  51.610  1.00  0.00    -0.241 NA
HETATM    6  C8  UNL     1      21.152   2.293  50.958  1.00  0.00     0.236 A 
HETATM    7  N3  UNL     1      22.118   3.211  50.988  1.00  0.00    -0.224 NA
HETATM    8  C9  UNL     1      23.300   3.100  51.599  1.00  0.00     0.142 A 
HETATM    9  C16 UNL     1      23.528   1.916  52.258  1.00  0.00     0.039 A 
HETATM   10  C17 UNL     1      24.663   1.583  52.950  1.00  0.00     0.026 A 
ENDROOT
BRANCH   8  11
HETATM   11  N4  UNL     1      24.318   4.081  51.623  1.00  0.00    -0.340 N 
HETATM   12  H10 UNL     1      24.492   4.677  52.451  1.00  0.00     0.167 HD
BRANCH  11  13
HETATM   13  C10 UNL     1      25.255   4.451  50.625  1.00  0.00     0.035 A 
HETATM   14  C11 UNL     1      26.274   3.649  50.113  1.00  0.00     0.029 A 
HETATM   15  C12 UNL     1      27.146   4.067  49.146  1.00  0.00     0.004 A 
HETATM   16  C13 UNL     1      27.075   5.314  48.613  1.00  0.00     0.019 A 
HETATM   17  C14 UNL     1      26.087   6.155  49.079  1.00  0.00     0.013 A 
HETATM   18 BR1  UNL     1      26.022   7.893  48.307  1.00  0.00    -0.051 Br
HETATM   19  C15 UNL     1      25.224   5.704  50.054  1.00  0.00     0.048 A 
ENDBRANCH  11  13
ENDBRANCH   8  11
BRANCH   1  20
HETATM   20  C3  UNL     1      26.098   0.065  54.335  1.00  0.00     0.142 C 
BRANCH  20  21
HETATM   21  N1  UNL     1      26.807   1.249  54.770  1.00  0.00    -0.215 NA
HETATM   22  H4  UNL     1      26.954   1.281  55.793  1.00  0.00     0.140 HD
BRANCH  21  23
HETATM   23  S1  UNL     1      28.356   1.206  53.988  1.00  0.00     0.215 S 
HETATM   24  O1  UNL     1      29.381   1.802  54.920  1.00  0.00    -0.211 OA
HETATM   25  O2  UNL     1      28.258   2.052  52.742  1.00  0.00    -0.211 OA
BRANCH  23  26
HETATM   26  C2  UNL     1      28.778  -0.443  53.553  1.00  0.00     0.144 C 
HETATM   27  C1  UNL     1      30.097  -0.715  53.517  1.00  0.00     0.024 C 
ENDBRANCH  23  26
ENDBRANCH  21  23
ENDBRANCH  20  21
ENDBRANCH   1  20
TORSDOF 6
ENDMDL
MODEL 2
REMARK VINA RESULT:      -8.4      1.830      2.955
REMARK  6 active torsions:
REMARK  status: ('A' for Active; 'I' for Inactive)
REMARK    1  A    between atoms: C2_2  and  S1_3 
REMARK    2  A    between atoms: S1_3  and  N1_6 
REMARK    3  A    between atoms: N1_6  and  C3_7 
REMARK    4  A    between atoms: C3_7  and  C4_8 
REMARK    5  A    between atoms: C9_15  and  N4_16 
REMARK    6  A    between atoms: N4_16  and  C10_17 
ROOT
HETATM    1  C4  UNL     1      25.068  -0.446  54.515  1.00  0.00    -0.043 A 
HETATM    2  C5  UNL     1      24.574  -1.190  55.564  1.00  0.00     0.011 A 
HETATM    3  C6  UNL     1      23.229  -1.452  55.582  1.00  0.00     0.033 A 
HETATM    4  C7  UNL     1      22.415  -0.981  54.582  1.00  0.00     0.072 A 
HETATM    5  N2  UNL     1      21.103  -1.279  54.666  1.00  0.00    -0.241 NA
HETATM    6  C8  UNL     1      20.213  -0.873  53.747  1.00  0.00     0.236 A 
HETATM    7  N3  UNL     1      20.702  -0.154  52.737  1.00  0.00    -0.224 NA
HETATM    8  C9  UNL     1      21.977   0.197  52.555  1.00  0.00     0.142 A 
HETATM    9  C16 UNL     1      22.862  -0.234  53.515  1.00  0.00     0.039 A 
HETATM   10  C17 UNL     1      24.211   0.005  53.533  1.00  0.00     0.026 A 
ENDROOT
BRANCH   8  11
HETATM   11  N4  UNL     1      22.484   0.960  51.478  1.00  0.00    -0.340 N 
HETATM   12  H10 UNL     1      22.583   0.572  50.525  1.00  0.00     0.167 HD
BRANCH  11  13
HETATM   13  C10 UNL     1      22.933   2.305  51.442  1.00  0.00     0.035 A 
HETATM   14  C11 UNL     1      22.369   3.381  52.127  1.00  0.00     0.029 A 
HETATM   15  C12 UNL     1      22.854   4.657  52.051  1.00  0.00     0.004 A 
HETATM   16  C13 UNL     1      23.936   4.965  51.289  1.00  0.00     0.019 A 
HETATM   17  C14 UNL     1      24.538   3.943  50.588  1.00  0.00     0.013 A 
HETATM   18 BR1  UNL     1      26.050   4.415  49.534  1.00  0.00    -0.051 Br
HETATM   19  C15 UNL     1      24.026   2.666  50.686  1.00  0.00     0.048 A 
ENDBRANCH  11  13
ENDBRANCH   8  11
BRANCH   1  20
HETATM   20  C3  UNL     1      26.520  -0.163  54.495  1.00  0.00     0.142 C 
BRANCH  20  21
HETATM   21  N1  UNL     1      26.814   1.253  54.526  1.00  0.00    -0.215 NA
HETATM   22  H4  UNL     1      26.861   1.637  55.485  1.00  0.00     0.140 HD
BRANCH  21  23
HETATM   23  S1  UNL     1      28.365   1.447  53.772  1.00  0.00     0.215 S 
HETATM   24  O1  UNL     1      29.328   2.001  54.792  1.00  0.00    -0.211 OA
HETATM   25  O2  UNL     1      28.202   2.439  52.646  1.00  0.00    -0.211 OA
BRANCH  23  26
HETATM   26  C2  UNL     1      28.933  -0.087  53.132  1.00  0.00     0.144 C 
HETATM   27  C1  UNL     1      30.078  -0.552  53.668  1.00  0.00     0.024 C 
ENDBRANCH  23  26
ENDBRANCH  21  23
ENDBRANCH  20  21
ENDBRANCH   1  20
TORSDOF 6
ENDMDL
MODEL 3
REMARK VINA RESULT:      -8.3      2.065      2.779
REMARK  6 active torsions:
REMARK  status: ('A' for Active; 'I' for Inactive)
REMARK    1  A    between atoms: C2_2  and  S1_3 
REMARK    2  A    between atoms: S1_3  and  N1_6 
REMARK    3  A    between atoms: N1_6  and  C3_7 
REMARK    4  A    between atoms: C3_7  and  C4_8 
REMARK    5  A    between atoms: C9_15  and  N4_16 
REMARK    6  A    between atoms: N4_16  and  C10_17 
ROOT
HETATM    1  C4  UNL     1      23.559  -0.718  54.334  1.00  0.00    -0.043 A 
HETATM    2  C5  UNL     1      22.505  -1.300  55.005  1.00  0.00     0.011 A 
HETATM    3  C6  UNL     1      21.250  -1.147  54.476  1.00  0.00     0.033 A 
HETATM    4  C7  UNL     1      21.066  -0.437  53.315  1.00  0.00     0.072 A 
HETATM    5  N2  UNL     1      19.804  -0.330  52.854  1.00  0.00    -0.241 NA
HETATM    6  C8  UNL     1      19.503   0.340  51.731  1.00  0.00     0.236 A 
HETATM    7  N3  UNL     1      20.530   0.898  51.090  1.00  0.00    -0.224 NA
HETATM    8  C9  UNL     1      21.813   0.855  51.455  1.00  0.00     0.142 A 
HETATM    9  C16 UNL     1      22.086   0.161  52.610  1.00  0.00     0.039 A 
HETATM   10  C17 UNL     1      23.324  -0.014  53.172  1.00  0.00     0.026 A 
ENDROOT
BRANCH   8  11
HETATM   11  N4  UNL     1      22.895   1.451  50.766  1.00  0.00    -0.340 N 
HETATM   12  H10 UNL     1      23.479   0.924  50.095  1.00  0.00     0.167 HD
BRANCH  11  13
HETATM   13  C10 UNL     1      23.392   2.778  50.818  1.00  0.00     0.035 A 
HETATM   14  C11 UNL     1      22.858   3.829  51.563  1.00  0.00     0.029 A 
HETATM   15  C12 UNL     1      23.389   5.089  51.571  1.00  0.00     0.004 A 
HETATM   16  C13 UNL     1      24.489   5.404  50.839  1.00  0.00     0.019 A 
HETATM   17  C14 UNL     1      25.062   4.406  50.082  1.00  0.00     0.013 A 
HETATM   18 BR1  UNL     1      26.602   4.888  49.072  1.00  0.00    -0.051 Br
HETATM   19  C15 UNL     1      24.505   3.146  50.095  1.00  0.00     0.048 A 
ENDBRANCH  11  13
ENDBRANCH   8  11
BRANCH   1  20
HETATM   20  C3  UNL     1      24.914  -0.883  54.905  1.00  0.00     0.142 C 
BRANCH  20  21
HETATM   21  N1  UNL     1      25.930  -1.060  53.890  1.00  0.00    -0.215 NA
HETATM   22  H4  UNL     1      25.568  -0.939  52.928  1.00  0.00     0.140 HD
BRANCH  21  23
HETATM   23  S1  UNL     1      27.134   0.153  54.188  1.00  0.00     0.215 S 
HETATM   24  O1  UNL     1      28.419  -0.533  54.579  1.00  0.00    -0.211 OA
HETATM   25  O2  UNL     1      26.649   1.002  55.337  1.00  0.00    -0.211 OA
BRANCH  23  26
HETATM   26  C2  UNL     1      27.360   1.157  52.764  1.00  0.00     0.144 C 
HETATM   27  C1  UNL     1      26.665   0.783  51.672  1.00  0.00     0.024 C 
ENDBRANCH  23  26
ENDBRANCH  21  23
ENDBRANCH  20  21
ENDBRANCH   1  20
TORSDOF 6
ENDMDL
MODEL 4
REMARK VINA RESULT:      -8.2      3.204      5.546
REMARK  6 active torsions:
REMARK  status: ('A' for Active; 'I' for Inactive)
REMARK    1  A    between atoms: C2_2  and  S1_3 
REMARK    2  A    between atoms: S1_3  and  N1_6 
REMARK    3  A    between atoms: N1_6  and  C3_7 
REMARK    4  A    between atoms: C3_7  and  C4_8 
REMARK    5  A    between atoms: C9_15  and  N4_16 
REMARK    6  A    between atoms: N4_16  and  C10_17 
ROOT
HETATM    1  C4  UNL     1      26.196   2.539  51.752  1.00  0.00    -0.043 A 
HETATM    2  C5  UNL     1      26.619   2.915  50.495  1.00  0.00     0.011 A 
HETATM    3  C6  UNL     1      25.661   3.184  49.553  1.00  0.00     0.033 A 
HETATM    4  C7  UNL     1      24.328   3.080  49.867  1.00  0.00     0.072 A 
HETATM    5  N2  UNL     1      23.443   3.362  48.891  1.00  0.00    -0.241 NA
HETATM    6  C8  UNL     1      22.117   3.294  49.081  1.00  0.00     0.236 A 
HETATM    7  N3  UNL     1      21.718   2.931  50.299  1.00  0.00    -0.224 NA
HETATM    8  C9  UNL     1      22.504   2.630  51.336  1.00  0.00     0.142 A 
HETATM    9  C16 UNL     1      23.857   2.709  51.107  1.00  0.00     0.039 A 
HETATM   10  C17 UNL     1      24.847   2.448  52.019  1.00  0.00     0.026 A 
ENDROOT
BRANCH   8  11
HETATM   11  N4  UNL     1      22.070   2.246  52.626  1.00  0.00    -0.340 N 
HETATM   12  H10 UNL     1      21.965   2.925  53.398  1.00  0.00     0.167 HD
BRANCH  11  13
HETATM   13  C10 UNL     1      21.708   0.969  53.125  1.00  0.00     0.035 A 
HETATM   14  C11 UNL     1      22.556   0.060  53.758  1.00  0.00     0.029 A 
HETATM   15  C12 UNL     1      22.141  -1.158  54.220  1.00  0.00     0.004 A 
HETATM   16  C13 UNL     1      20.853  -1.570  54.088  1.00  0.00     0.019 A 
HETATM   17  C14 UNL     1      19.967  -0.715  53.471  1.00  0.00     0.013 A 
HETATM   18 BR1  UNL     1      18.173  -1.329  53.308  1.00  0.00    -0.051 Br
HETATM   19  C15 UNL     1      20.414   0.507  53.017  1.00  0.00     0.048 A 
ENDBRANCH  11  13
ENDBRANCH   8  11
BRANCH   1  20
HETATM   20  C3  UNL     1      27.230   2.248  52.768  1.00  0.00     0.142 C 
BRANCH  20  21
HETATM   21  N1  UNL     1      26.666   1.878  54.048  1.00  0.00    -0.215 NA
HETATM   22  H4  UNL     1      25.637   1.776  54.024  1.00  0.00     0.140 HD
BRANCH  21  23
HETATM   23  S1  UNL     1      27.367   0.347  54.466  1.00  0.00     0.215 S 
HETATM   24  O1  UNL     1      26.421  -0.378  55.390  1.00  0.00    -0.211 OA
HETATM   25  O2  UNL     1      28.662   0.623  55.192  1.00  0.00    -0.211 OA
BRANCH  23  26
HETATM   26  C2  UNL     1      27.688  -0.597  53.020  1.00  0.00     0.144 C 
HETATM   27  C1  UNL     1      26.629  -1.251  52.506  1.00  0.00     0.024 C 
ENDBRANCH  23  26
ENDBRANCH  21  23
ENDBRANCH  20  21
ENDBRANCH   1  20
TORSDOF 6
ENDMDL
MODEL 5
REMARK VINA RESULT:      -8.0      3.423      5.373
REMARK  6 active torsions:
REMARK  status: ('A' for Active; 'I' for Inactive)
REMARK    1  A    between atoms: C2_2  and  S1_3 
REMARK    2  A    between atoms: S1_3  and  N1_6 
REMARK    3  A    between atoms: N1_6  and  C3_7 
REMARK    4  A    between atoms: C3_7  and  C4_8 
REMARK    5  A    between atoms: C9_15  and  N4_16 
REMARK    6  A    between atoms: N4_16  and  C10_17 
ROOT
HETATM    1  C4  UNL     1      24.195  -0.237  53.475  1.00  0.00    -0.043 A 
HETATM    2  C5  UNL     1      24.818  -0.658  54.630  1.00  0.00     0.011 A 
HETATM    3  C6  UNL     1      26.068  -0.164  54.897  1.00  0.00     0.033 A 
HETATM    4  C7  UNL     1      26.665   0.721  54.034  1.00  0.00     0.072 A 
HETATM    5  N2  UNL     1      27.894   1.166  54.363  1.00  0.00    -0.241 NA
HETATM    6  C8  UNL     1      28.575   2.031  53.596  1.00  0.00     0.236 A 
HETATM    7  N3  UNL     1      27.963   2.433  52.482  1.00  0.00    -0.224 NA
HETATM    8  C9  UNL     1      26.753   2.058  52.061  1.00  0.00     0.142 A 
HETATM    9  C16 UNL     1      26.083   1.171  52.869  1.00  0.00     0.039 A 
HETATM   10  C17 UNL     1      24.835   0.653  52.639  1.00  0.00     0.026 A 
ENDROOT
BRANCH   8  11
HETATM   11  N4  UNL     1      26.113   2.492  50.876  1.00  0.00    -0.340 N 
HETATM   12  H10 UNL     1      25.491   1.874  50.327  1.00  0.00     0.167 HD
BRANCH  11  13
HETATM   13  C10 UNL     1      26.162   3.747  50.218  1.00  0.00     0.035 A 
HETATM   14  C11 UNL     1      27.050   4.115  49.208  1.00  0.00     0.029 A 
HETATM   15  C12 UNL     1      27.041   5.345  48.612  1.00  0.00     0.004 A 
HETATM   16  C13 UNL     1      26.152   6.307  48.973  1.00  0.00     0.019 A 
HETATM   17  C14 UNL     1      25.248   6.003  49.967  1.00  0.00     0.013 A 
HETATM   18 BR1  UNL     1      24.020   7.376  50.443  1.00  0.00    -0.051 Br
HETATM   19  C15 UNL     1      25.281   4.753  50.548  1.00  0.00     0.048 A 
ENDBRANCH  11  13
ENDBRANCH   8  11
BRANCH   1  20
HETATM   20  C3  UNL     1      22.846  -0.771  53.186  1.00  0.00     0.142 C 
BRANCH  20  21
HETATM   21  N1  UNL     1      21.807  -0.096  53.934  1.00  0.00    -0.215 NA
HETATM   22  H4  UNL     1      22.140   0.759  54.411  1.00  0.00     0.140 HD
BRANCH  21  23
HETATM   23  S1  UNL     1      20.588   0.350  52.782  1.00  0.00     0.215 S 
HETATM   24  O1  UNL     1      21.133   0.125  51.394  1.00  0.00    -0.211 OA
HETATM   25  O2  UNL     1      20.296   1.818  52.975  1.00  0.00    -0.211 OA
BRANCH  23  26
HETATM   26  C2  UNL     1      19.123  -0.585  53.046  1.00  0.00     0.144 C 
HETATM   27  C1  UNL     1      18.125  -0.361  52.169  1.00  0.00     0.024 C 
ENDBRANCH  23  26
ENDBRANCH  21  23
ENDBRANCH  20  21
ENDBRANCH   1  20
TORSDOF 6
ENDMDL
MODEL 6
REMARK VINA RESULT:      -7.7      3.109      4.679
REMARK  6 active torsions:
REMARK  status: ('A' for Active; 'I' for Inactive)
REMARK    1  A    between atoms: C2_2  and  S1_3 
REMARK    2  A    between atoms: S1_3  and  N1_6 
REMARK    3  A    between atoms: N1_6  and  C3_7 
REMARK    4  A    between atoms: C3_7  and  C4_8 
REMARK    5  A    between atoms: C9_15  and  N4_16 
REMARK    6  A    between atoms: N4_16  and  C10_17 
ROOT
HETATM    1  C4  UNL     1      25.757   3.140  50.442  1.00  0.00    -0.043 A 
HETATM    2  C5  UNL     1      24.445   2.864  50.126  1.00  0.00     0.011 A 
HETATM    3  C6  UNL     1      23.765   3.780  49.367  1.00  0.00     0.033 A 
HETATM    4  C7  UNL     1      24.385   4.929  48.943  1.00  0.00     0.072 A 
HETATM    5  N2  UNL     1      23.654   5.783  48.200  1.00  0.00    -0.241 NA
HETATM    6  C8  UNL     1      24.152   6.937  47.731  1.00  0.00     0.236 A 
HETATM    7  N3  UNL     1      25.423   7.195  48.042  1.00  0.00    -0.224 NA
HETATM    8  C9  UNL     1      26.235   6.423  48.768  1.00  0.00     0.142 A 
HETATM    9  C16 UNL     1      25.692   5.249  49.233  1.00  0.00     0.039 A 
HETATM   10  C17 UNL     1      26.336   4.308  49.993  1.00  0.00     0.026 A 
ENDROOT
BRANCH   8  11
HETATM   11  N4  UNL     1      27.582   6.707  49.091  1.00  0.00    -0.340 N 
HETATM   12  H10 UNL     1      28.026   6.363  49.959  1.00  0.00     0.167 HD
BRANCH  11  13
HETATM   13  C10 UNL     1      28.555   7.454  48.379  1.00  0.00     0.035 A 
HETATM   14  C11 UNL     1      29.148   7.094  47.170  1.00  0.00     0.029 A 
HETATM   15  C12 UNL     1      30.082   7.864  46.533  1.00  0.00     0.004 A 
HETATM   16  C13 UNL     1      30.500   9.050  47.047  1.00  0.00     0.019 A 
HETATM   17  C14 UNL     1      29.949   9.460  48.241  1.00  0.00     0.013 A 
HETATM   18 BR1  UNL     1      30.561  11.126  48.927  1.00  0.00    -0.051 Br
HETATM   19  C15 UNL     1      29.010   8.663  48.859  1.00  0.00     0.048 A 
ENDBRANCH  11  13
ENDBRANCH   8  11
BRANCH   1  20
HETATM   20  C3  UNL     1      26.491   2.151  51.261  1.00  0.00     0.142 C 
BRANCH  20  21
HETATM   21  N1  UNL     1      27.642   2.722  51.927  1.00  0.00    -0.215 NA
HETATM   22  H4  UNL     1      27.561   3.743  52.075  1.00  0.00     0.140 HD
BRANCH  21  23
HETATM   23  S1  UNL     1      27.748   1.943  53.474  1.00  0.00     0.215 S 
HETATM   24  O1  UNL     1      26.460   2.184  54.221  1.00  0.00    -0.211 OA
HETATM   25  O2  UNL     1      28.890   2.581  54.227  1.00  0.00    -0.211 OA
BRANCH  23  26
HETATM   26  C2  UNL     1      28.054   0.225  53.277  1.00  0.00     0.144 C 
HETATM   27  C1  UNL     1      29.282  -0.193  53.640  1.00  0.00     0.024 C 
ENDBRANCH  23  26
ENDBRANCH  21  23
ENDBRANCH  20  21
ENDBRANCH   1  20
TORSDOF 6
ENDMDL
MODEL 7
REMARK VINA RESULT:      -7.6      3.671      6.691
REMARK  6 active torsions:
REMARK  status: ('A' for Active; 'I' for Inactive)
REMARK    1  A    between atoms: C2_2  and  S1_3 
REMARK    2  A    between atoms: S1_3  and  N1_6 
REMARK    3  A    between atoms: N1_6  and  C3_7 
REMARK    4  A    between atoms: C3_7  and  C4_8 
REMARK    5  A    between atoms: C9_15  and  N4_16 
REMARK    6  A    between atoms: N4_16  and  C10_17 
ROOT
HETATM    1  C4  UNL     1      25.985   1.191  52.028  1.00  0.00    -0.043 A 
HETATM    2  C5  UNL     1      26.996   0.641  52.786  1.00  0.00     0.011 A 
HETATM    3  C6  UNL     1      26.640  -0.157  53.841  1.00  0.00     0.033 A 
HETATM    4  C7  UNL     1      25.316  -0.392  54.120  1.00  0.00     0.072 A 
HETATM    5  N2  UNL     1      25.042  -1.188  55.172  1.00  0.00    -0.241 NA
HETATM    6  C8  UNL     1      23.787  -1.487  55.540  1.00  0.00     0.236 A 
HETATM    7  N3  UNL     1      22.817  -0.951  54.800  1.00  0.00    -0.224 NA
HETATM    8  C9  UNL     1      22.974  -0.152  53.741  1.00  0.00     0.142 A 
HETATM    9  C16 UNL     1      24.272   0.135  53.392  1.00  0.00     0.039 A 
HETATM   10  C17 UNL     1      24.671   0.927  52.347  1.00  0.00     0.026 A 
ENDROOT
BRANCH   8  11
HETATM   11  N4  UNL     1      21.936   0.411  52.963  1.00  0.00    -0.340 N 
HETATM   12  H10 UNL     1      22.073   1.266  52.397  1.00  0.00     0.167 HD
BRANCH  11  13
HETATM   13  C10 UNL     1      20.595  -0.012  52.785  1.00  0.00     0.035 A 
HETATM   14  C11 UNL     1      19.873  -0.847  53.638  1.00  0.00     0.029 A 
HETATM   15  C12 UNL     1      18.577  -1.216  53.408  1.00  0.00     0.004 A 
HETATM   16  C13 UNL     1      17.896  -0.787  52.313  1.00  0.00     0.019 A 
HETATM   17  C14 UNL     1      18.556   0.041  51.432  1.00  0.00     0.013 A 
HETATM   18 BR1  UNL     1      17.568   0.620  49.913  1.00  0.00    -0.051 Br
HETATM   19  C15 UNL     1      19.863   0.396  51.692  1.00  0.00     0.048 A 
ENDBRANCH  11  13
ENDBRANCH   8  11
BRANCH   1  20
HETATM   20  C3  UNL     1      26.370   2.053  50.889  1.00  0.00     0.142 C 
BRANCH  20  21
HETATM   21  N1  UNL     1      26.446   3.453  51.248  1.00  0.00    -0.215 NA
HETATM   22  H4  UNL     1      27.404   3.837  51.182  1.00  0.00     0.140 HD
BRANCH  21  23
HETATM   23  S1  UNL     1      25.428   4.301  50.128  1.00  0.00     0.215 S 
HETATM   24  O1  UNL     1      24.373   5.046  50.907  1.00  0.00    -0.211 OA
HETATM   25  O2  UNL     1      24.765   3.270  49.247  1.00  0.00    -0.211 OA
BRANCH  23  26
HETATM   26  C2  UNL     1      26.381   5.399  49.142  1.00  0.00     0.144 C 
HETATM   27  C1  UNL     1      27.520   4.887  48.637  1.00  0.00     0.024 C 
ENDBRANCH  23  26
ENDBRANCH  21  23
ENDBRANCH  20  21
ENDBRANCH   1  20
TORSDOF 6
ENDMDL
MODEL 8
REMARK VINA RESULT:      -7.6      3.129      5.846
REMARK  6 active torsions:
REMARK  status: ('A' for Active; 'I' for Inactive)
REMARK    1  A    between atoms: C2_2  and  S1_3 
REMARK    2  A    between atoms: S1_3  and  N1_6 
REMARK    3  A    between atoms: N1_6  and  C3_7 
REMARK    4  A    between atoms: C3_7  and  C4_8 
REMARK    5  A    between atoms: C9_15  and  N4_16 
REMARK    6  A    between atoms: N4_16  and  C10_17 
ROOT
HETATM    1  C4  UNL     1      25.423   3.204  49.943  1.00  0.00    -0.043 A 
HETATM    2  C5  UNL     1      25.526   4.507  49.505  1.00  0.00     0.011 A 
HETATM    3  C6  UNL     1      24.390   5.115  49.039  1.00  0.00     0.033 A 
HETATM    4  C7  UNL     1      23.197   4.435  49.016  1.00  0.00     0.072 A 
HETATM    5  N2  UNL     1      22.121   5.097  48.545  1.00  0.00    -0.241 NA
HETATM    6  C8  UNL     1      20.905   4.536  48.475  1.00  0.00     0.236 A 
HETATM    7  N3  UNL     1      20.817   3.276  48.900  1.00  0.00    -0.224 NA
HETATM    8  C9  UNL     1      21.812   2.529  49.384  1.00  0.00     0.142 A 
HETATM    9  C16 UNL     1      23.045   3.135  49.442  1.00  0.00     0.039 A 
HETATM   10  C17 UNL     1      24.203   2.563  49.900  1.00  0.00     0.026 A 
ENDROOT
BRANCH   8  11
HETATM   11  N4  UNL     1      21.706   1.192  49.834  1.00  0.00    -0.340 N 
HETATM   12  H10 UNL     1      22.172   0.408  49.348  1.00  0.00     0.167 HD
BRANCH  11  13
HETATM   13  C10 UNL     1      21.009   0.655  50.945  1.00  0.00     0.035 A 
HETATM   14  C11 UNL     1      19.625   0.527  51.067  1.00  0.00     0.029 A 
HETATM   15  C12 UNL     1      19.014  -0.004  52.169  1.00  0.00     0.004 A 
HETATM   16  C13 UNL     1      19.728  -0.448  53.236  1.00  0.00     0.019 A 
HETATM   17  C14 UNL     1      21.101  -0.349  53.174  1.00  0.00     0.013 A 
HETATM   18 BR1  UNL     1      22.064  -0.983  54.688  1.00  0.00    -0.051 Br
HETATM   19  C15 UNL     1      21.688   0.190  52.050  1.00  0.00     0.048 A 
ENDBRANCH  11  13
ENDBRANCH   8  11
BRANCH   1  20
HETATM   20  C3  UNL     1      26.650   2.548  50.446  1.00  0.00     0.142 C 
BRANCH  20  21
HETATM   21  N1  UNL     1      27.148   3.154  51.662  1.00  0.00    -0.215 NA
HETATM   22  H4  UNL     1      26.497   3.850  52.065  1.00  0.00     0.140 HD
BRANCH  21  23
HETATM   23  S1  UNL     1      27.354   1.862  52.802  1.00  0.00     0.215 S 
HETATM   24  O1  UNL     1      26.733   2.275  54.113  1.00  0.00    -0.211 OA
HETATM   25  O2  UNL     1      28.837   1.657  52.992  1.00  0.00    -0.211 OA
BRANCH  23  26
HETATM   26  C2  UNL     1      26.624   0.384  52.194  1.00  0.00     0.144 C 
HETATM   27  C1  UNL     1      25.551  -0.059  52.878  1.00  0.00     0.024 C 
ENDBRANCH  23  26
ENDBRANCH  21  23
ENDBRANCH  20  21
ENDBRANCH   1  20
TORSDOF 6
ENDMDL
MODEL 9
REMARK VINA RESULT:      -7.6      4.589      6.944
REMARK  6 active torsions:
REMARK  status: ('A' for Active; 'I' for Inactive)
REMARK    1  A    between atoms: C2_2  and  S1_3 
REMARK    2  A    between atoms: S1_3  and  N1_6 
REMARK    3  A    between atoms: N1_6  and  C3_7 
REMARK    4  A    between atoms: C3_7  and  C4_8 
REMARK    5  A    between atoms: C9_15  and  N4_16 
REMARK    6  A    between atoms: N4_16  and  C10_17 
ROOT
HETATM    1  C4  UNL     1      26.477   4.298  49.544  1.00  0.00    -0.043 A 
HETATM    2  C5  UNL     1      25.475   5.242  49.476  1.00  0.00     0.011 A 
HETATM    3  C6  UNL     1      25.752   6.422  48.838  1.00  0.00     0.033 A 
HETATM    4  C7  UNL     1      26.992   6.641  48.289  1.00  0.00     0.072 A 
HETATM    5  N2  UNL     1      27.192   7.825  47.676  1.00  0.00    -0.241 NA
HETATM    6  C8  UNL     1      28.361   8.150  47.105  1.00  0.00     0.236 A 
HETATM    7  N3  UNL     1      29.323   7.231  47.177  1.00  0.00    -0.224 NA
HETATM    8  C9  UNL     1      29.235   6.032  47.756  1.00  0.00     0.142 A 
HETATM    9  C16 UNL     1      28.023   5.730  48.332  1.00  0.00     0.039 A 
HETATM   10  C17 UNL     1      27.705   4.564  48.979  1.00  0.00     0.026 A 
ENDROOT
BRANCH   8  11
HETATM   11  N4  UNL     1      30.263   5.063  47.825  1.00  0.00    -0.340 N 
HETATM   12  H10 UNL     1      30.065   4.048  47.849  1.00  0.00     0.167 HD
BRANCH  11  13
HETATM   13  C10 UNL     1      31.671   5.227  47.873  1.00  0.00     0.035 A 
HETATM   14  C11 UNL     1      32.376   6.042  48.757  1.00  0.00     0.029 A 
HETATM   15  C12 UNL     1      33.739   6.154  48.752  1.00  0.00     0.004 A 
HETATM   16  C13 UNL     1      34.508   5.465  47.867  1.00  0.00     0.019 A 
HETATM   17  C14 UNL     1      33.867   4.642  46.968  1.00  0.00     0.013 A 
HETATM   18 BR1  UNL     1      34.979   3.695  45.747  1.00  0.00    -0.051 Br
HETATM   19  C15 UNL     1      32.492   4.550  46.998  1.00  0.00     0.048 A 
ENDBRANCH  11  13
ENDBRANCH   8  11
BRANCH   1  20
HETATM   20  C3  UNL     1      26.177   3.024  50.233  1.00  0.00     0.142 C 
BRANCH  20  21
HETATM   21  N1  UNL     1      25.746   3.217  51.601  1.00  0.00    -0.215 NA
HETATM   22  H4  UNL     1      24.739   3.024  51.740  1.00  0.00     0.140 HD
BRANCH  21  23
HETATM   23  S1  UNL     1      26.663   2.103  52.565  1.00  0.00     0.215 S 
HETATM   24  O1  UNL     1      26.295   2.305  54.013  1.00  0.00    -0.211 OA
HETATM   25  O2  UNL     1      28.124   2.430  52.368  1.00  0.00    -0.211 OA
BRANCH  23  26
HETATM   26  C2  UNL     1      26.352   0.450  52.057  1.00  0.00     0.144 C 
HETATM   27  C1  UNL     1      27.191  -0.479  52.555  1.00  0.00     0.024 C 
ENDBRANCH  23  26
ENDBRANCH  21  23
ENDBRANCH  20  21
ENDBRANCH   1  20
TORSDOF 6
ENDMDL
