MODEL 1
REMARK VINA RESULT:      -8.3      0.000      0.000
REMARK  7 active torsions:
REMARK  status: ('A' for Active; 'I' for Inactive)
REMARK    1  A    between atoms: C6_7  and  C8_9 
REMARK    2  A    between atoms: C8_9  and  N1_10 
REMARK    3  A    between atoms: N1_10  and  C9_11 
REMARK    4  A    between atoms: N1_10  and  C16_18 
REMARK    5  A    between atoms: C9_11  and  C10_12 
REMARK    6  A    between atoms: C16_18  and  N2_20 
REMARK    7  A    between atoms: N2_20  and  C17_21 
ROOT
HETATM    1  N1  UNL     1      24.311   2.666  51.915  1.00  0.00    -0.351 N 
ENDROOT
BRANCH   1   2
HETATM    2  C8  UNL     1      23.532   3.783  52.388  1.00  0.00     0.163 C 
BRANCH   2   3
HETATM    3  C6  UNL     1      23.187   4.813  51.366  1.00  0.00     0.078 C 
HETATM    4  O1  UNL     1      23.164   4.312  50.076  1.00  0.00    -0.370 OA
HETATM    5  C4  UNL     1      22.855   5.302  49.146  1.00  0.00     0.141 C 
HETATM    6  C3  UNL     1      24.074   6.176  48.963  1.00  0.00     0.007 C 
HETATM    7  C5  UNL     1      22.672   4.628  47.791  1.00  0.00     0.044 C 
HETATM    8  C2  UNL     1      24.548   6.476  50.153  1.00  0.00    -0.082 C 
HETATM    9  C1  UNL     1      25.777   7.352  50.127  1.00  0.00     0.043 C 
HETATM   10  C23 UNL     1      24.025   6.061  51.482  1.00  0.00     0.072 C 
HETATM   11  C7  UNL     1      21.734   5.229  51.659  1.00  0.00     0.048 C 
ENDBRANCH   2   3
ENDBRANCH   1   2
BRANCH   1  12
HETATM   12  C9  UNL     1      23.559   1.515  51.496  1.00  0.00     0.164 C 
BRANCH  12  13
HETATM   13  C10 UNL     1      22.852   0.821  52.604  1.00  0.00    -0.040 A 
HETATM   14  C11 UNL     1      23.546  -0.128  53.329  1.00  0.00     0.009 A 
HETATM   15  C12 UNL     1      22.997  -0.848  54.387  1.00  0.00     0.001 A 
HETATM   16  C13 UNL     1      21.689  -0.616  54.749  1.00  0.00     0.000 A 
HETATM   17  C14 UNL     1      20.957   0.323  54.053  1.00  0.00     0.001 A 
HETATM   18  C15 UNL     1      21.552   0.997  53.024  1.00  0.00     0.009 A 
ENDBRANCH  12  13
ENDBRANCH   1  12
BRANCH   1  19
HETATM   19  C16 UNL     1      25.760   2.628  51.823  1.00  0.00     0.174 C 
HETATM   20  S1  UNL     1      26.356   3.071  50.341  1.00  0.00    -0.041 SA
BRANCH  19  21
HETATM   21  N2  UNL     1      26.622   2.252  52.878  1.00  0.00    -0.333 N 
HETATM   22  H21 UNL     1      26.543   2.950  53.652  1.00  0.00     0.168 HD
BRANCH  21  23
HETATM   23  C17 UNL     1      27.524   1.187  53.088  1.00  0.00     0.034 A 
HETATM   24  C18 UNL     1      28.823   1.294  53.514  1.00  0.00     0.029 A 
HETATM   25  C19 UNL     1      29.702   0.256  53.716  1.00  0.00     0.002 A 
HETATM   26  C20 UNL     1      29.175  -0.981  53.452  1.00  0.00     0.000 A 
HETATM   27  C21 UNL     1      27.887  -1.192  53.021  1.00  0.00     0.002 A 
HETATM   28  C22 UNL     1      27.084  -0.093  52.848  1.00  0.00     0.029 A 
ENDBRANCH  21  23
ENDBRANCH  19  21
ENDBRANCH   1  19
TORSDOF 7
ENDMDL
MODEL 2
REMARK VINA RESULT:      -8.1      2.255      3.743
REMARK  7 active torsions:
REMARK  status: ('A' for Active; 'I' for Inactive)
REMARK    1  A    between atoms: C6_7  and  C8_9 
REMARK    2  A    between atoms: C8_9  and  N1_10 
REMARK    3  A    between atoms: N1_10  and  C9_11 
REMARK    4  A    between atoms: N1_10  and  C16_18 
REMARK    5  A    between atoms: C9_11  and  C10_12 
REMARK    6  A    between atoms: C16_18  and  N2_20 
REMARK    7  A    between atoms: N2_20  and  C17_21 
ROOT
HETATM    1  N1  UNL     1      23.212   2.637  51.297  1.00  0.00    -0.351 N 
ENDROOT
BRANCH   1   2
HETATM    2  C8  UNL     1      22.992   1.753  50.180  1.00  0.00     0.163 C 
BRANCH   2   3
HETATM    3  C6  UNL     1      21.781   2.034  49.358  1.00  0.00     0.078 C 
HETATM    4  O1  UNL     1      21.254   3.295  49.580  1.00  0.00    -0.370 OA
HETATM    5  C4  UNL     1      20.115   3.519  48.810  1.00  0.00     0.141 C 
HETATM    6  C3  UNL     1      18.969   2.750  49.426  1.00  0.00     0.007 C 
HETATM    7  C5  UNL     1      19.718   4.981  48.980  1.00  0.00     0.044 C 
HETATM    8  C2  UNL     1      19.388   1.533  49.695  1.00  0.00    -0.082 C 
HETATM    9  C1  UNL     1      18.341   0.642  50.320  1.00  0.00     0.043 C 
HETATM   10  C23 UNL     1      20.736   0.952  49.460  1.00  0.00     0.072 C 
HETATM   11  C7  UNL     1      22.257   2.052  47.894  1.00  0.00     0.048 C 
ENDBRANCH   2   3
ENDBRANCH   1   2
BRANCH   1  12
HETATM   12  C9  UNL     1      22.201   2.612  52.320  1.00  0.00     0.164 C 
BRANCH  12  13
HETATM   13  C10 UNL     1      22.014   1.279  52.950  1.00  0.00    -0.040 A 
HETATM   14  C11 UNL     1      20.725   0.848  53.197  1.00  0.00     0.009 A 
HETATM   15  C12 UNL     1      20.417  -0.377  53.783  1.00  0.00     0.001 A 
HETATM   16  C13 UNL     1      21.441  -1.224  54.145  1.00  0.00     0.000 A 
HETATM   17  C14 UNL     1      22.744  -0.835  53.917  1.00  0.00     0.001 A 
HETATM   18  C15 UNL     1      22.983   0.380  53.338  1.00  0.00     0.009 A 
ENDBRANCH  12  13
ENDBRANCH   1  12
BRANCH   1  19
HETATM   19  C16 UNL     1      24.357   3.515  51.465  1.00  0.00     0.174 C 
HETATM   20  S1  UNL     1      24.103   5.066  50.939  1.00  0.00    -0.041 SA
BRANCH  19  21
HETATM   21  N2  UNL     1      25.595   3.121  52.021  1.00  0.00    -0.333 N 
HETATM   22  H21 UNL     1      26.274   3.912  51.945  1.00  0.00     0.168 HD
BRANCH  21  23
HETATM   23  C17 UNL     1      26.080   1.939  52.620  1.00  0.00     0.034 A 
HETATM   24  C18 UNL     1      26.286   1.731  53.960  1.00  0.00     0.029 A 
HETATM   25  C19 UNL     1      26.761   0.580  54.542  1.00  0.00     0.002 A 
HETATM   26  C20 UNL     1      27.036  -0.424  53.651  1.00  0.00     0.000 A 
HETATM   27  C21 UNL     1      26.863  -0.315  52.292  1.00  0.00     0.002 A 
HETATM   28  C22 UNL     1      26.385   0.875  51.803  1.00  0.00     0.029 A 
ENDBRANCH  21  23
ENDBRANCH  19  21
ENDBRANCH   1  19
TORSDOF 7
ENDMDL
MODEL 3
REMARK VINA RESULT:      -8.1      1.269      2.785
REMARK  7 active torsions:
REMARK  status: ('A' for Active; 'I' for Inactive)
REMARK    1  A    between atoms: C6_7  and  C8_9 
REMARK    2  A    between atoms: C8_9  and  N1_10 
REMARK    3  A    between atoms: N1_10  and  C9_11 
REMARK    4  A    between atoms: N1_10  and  C16_18 
REMARK    5  A    between atoms: C9_11  and  C10_12 
REMARK    6  A    between atoms: C16_18  and  N2_20 
REMARK    7  A    between atoms: N2_20  and  C17_21 
ROOT
HETATM    1  N1  UNL     1      24.423   2.632  51.264  1.00  0.00    -0.351 N 
ENDROOT
BRANCH   1   2
HETATM    2  C8  UNL     1      23.562   2.332  50.147  1.00  0.00     0.163 C 
BRANCH   2   3
HETATM    3  C6  UNL     1      22.605   3.406  49.758  1.00  0.00     0.078 C 
HETATM    4  O1  UNL     1      22.925   4.640  50.297  1.00  0.00    -0.370 OA
HETATM    5  C4  UNL     1      22.004   5.618  49.927  1.00  0.00     0.141 C 
HETATM    6  C3  UNL     1      20.742   5.407  50.732  1.00  0.00     0.007 C 
HETATM    7  C5  UNL     1      22.533   6.964  50.409  1.00  0.00     0.044 C 
HETATM    8  C2  UNL     1      20.439   4.128  50.694  1.00  0.00    -0.082 C 
HETATM    9  C1  UNL     1      19.190   3.764  51.461  1.00  0.00     0.043 C 
HETATM   10  C23 UNL     1      21.166   3.031  50.001  1.00  0.00     0.072 C 
HETATM   11  C7  UNL     1      22.764   3.583  48.236  1.00  0.00     0.048 C 
ENDBRANCH   2   3
ENDBRANCH   1   2
BRANCH   1  12
HETATM   12  C9  UNL     1      23.778   2.704  52.547  1.00  0.00     0.164 C 
BRANCH  12  13
HETATM   13  C10 UNL     1      23.133   1.433  52.969  1.00  0.00    -0.040 A 
HETATM   14  C11 UNL     1      21.757   1.408  53.092  1.00  0.00     0.009 A 
HETATM   15  C12 UNL     1      21.035   0.283  53.480  1.00  0.00     0.001 A 
HETATM   16  C13 UNL     1      21.710  -0.883  53.763  1.00  0.00     0.000 A 
HETATM   17  C14 UNL     1      23.085  -0.905  53.654  1.00  0.00     0.001 A 
HETATM   18  C15 UNL     1      23.738   0.232  53.268  1.00  0.00     0.009 A 
ENDBRANCH  12  13
ENDBRANCH   1  12
BRANCH   1  19
HETATM   19  C16 UNL     1      25.857   2.847  51.187  1.00  0.00     0.174 C 
HETATM   20  S1  UNL     1      26.382   3.393  49.713  1.00  0.00    -0.041 SA
BRANCH  19  21
HETATM   21  N2  UNL     1      26.760   2.622  52.251  1.00  0.00    -0.333 N 
HETATM   22  H21 UNL     1      26.923   3.521  52.760  1.00  0.00     0.168 HD
BRANCH  21  23
HETATM   23  C17 UNL     1      27.455   1.495  52.738  1.00  0.00     0.034 A 
HETATM   24  C18 UNL     1      27.135   0.181  52.511  1.00  0.00     0.029 A 
HETATM   25  C19 UNL     1      27.812  -0.916  52.987  1.00  0.00     0.002 A 
HETATM   26  C20 UNL     1      28.904  -0.609  53.756  1.00  0.00     0.000 A 
HETATM   27  C21 UNL     1      29.307   0.674  54.041  1.00  0.00     0.002 A 
HETATM   28  C22 UNL     1      28.567   1.706  53.521  1.00  0.00     0.029 A 
ENDBRANCH  21  23
ENDBRANCH  19  21
ENDBRANCH   1  19
TORSDOF 7
ENDMDL
MODEL 4
REMARK VINA RESULT:      -8.0      1.631      2.427
REMARK  7 active torsions:
REMARK  status: ('A' for Active; 'I' for Inactive)
REMARK    1  A    between atoms: C6_7  and  C8_9 
REMARK    2  A    between atoms: C8_9  and  N1_10 
REMARK    3  A    between atoms: N1_10  and  C9_11 
REMARK    4  A    between atoms: N1_10  and  C16_18 
REMARK    5  A    between atoms: C9_11  and  C10_12 
REMARK    6  A    between atoms: C16_18  and  N2_20 
REMARK    7  A    between atoms: N2_20  and  C17_21 
ROOT
HETATM    1  N1  UNL     1      24.420   1.933  52.261  1.00  0.00    -0.351 N 
ENDROOT
BRANCH   1   2
HETATM    2  C8  UNL     1      23.657   3.070  52.713  1.00  0.00     0.163 C 
BRANCH   2   3
HETATM    3  C6  UNL     1      22.739   3.676  51.708  1.00  0.00     0.078 C 
HETATM    4  O1  UNL     1      21.408   3.371  51.934  1.00  0.00    -0.370 OA
HETATM    5  C4  UNL     1      20.579   3.939  50.969  1.00  0.00     0.141 C 
HETATM    6  C3  UNL     1      20.719   3.138  49.695  1.00  0.00     0.007 C 
HETATM    7  C5  UNL     1      19.135   3.706  51.399  1.00  0.00     0.044 C 
HETATM    8  C2  UNL     1      22.000   2.941  49.471  1.00  0.00    -0.082 C 
HETATM    9  C1  UNL     1      22.295   2.148  48.221  1.00  0.00     0.043 C 
HETATM   10  C23 UNL     1      23.156   3.400  50.286  1.00  0.00     0.072 C 
HETATM   11  C7  UNL     1      22.839   5.200  51.908  1.00  0.00     0.048 C 
ENDBRANCH   2   3
ENDBRANCH   1   2
BRANCH   1  12
HETATM   12  C9  UNL     1      23.652   0.839  51.730  1.00  0.00     0.164 C 
BRANCH  12  13
HETATM   13  C10 UNL     1      22.787   0.167  52.734  1.00  0.00    -0.040 A 
HETATM   14  C11 UNL     1      23.394  -0.460  53.805  1.00  0.00     0.009 A 
HETATM   15  C12 UNL     1      22.697  -1.125  54.810  1.00  0.00     0.001 A 
HETATM   16  C13 UNL     1      21.322  -1.174  54.753  1.00  0.00     0.000 A 
HETATM   17  C14 UNL     1      20.673  -0.562  53.701  1.00  0.00     0.001 A 
HETATM   18  C15 UNL     1      21.413   0.076  52.745  1.00  0.00     0.009 A 
ENDBRANCH  12  13
ENDBRANCH   1  12
BRANCH   1  19
HETATM   19  C16 UNL     1      25.868   1.824  52.292  1.00  0.00     0.174 C 
HETATM   20  S1  UNL     1      26.635   2.649  51.076  1.00  0.00    -0.041 SA
BRANCH  19  21
HETATM   21  N2  UNL     1      26.597   1.088  53.254  1.00  0.00    -0.333 N 
HETATM   22  H21 UNL     1      26.467   1.528  54.194  1.00  0.00     0.168 HD
BRANCH  21  23
HETATM   23  C17 UNL     1      27.425  -0.053  53.209  1.00  0.00     0.034 A 
HETATM   24  C18 UNL     1      28.748  -0.113  53.565  1.00  0.00     0.029 A 
HETATM   25  C19 UNL     1      29.555  -1.225  53.519  1.00  0.00     0.002 A 
HETATM   26  C20 UNL     1      28.924  -2.354  53.066  1.00  0.00     0.000 A 
HETATM   27  C21 UNL     1      27.603  -2.397  52.686  1.00  0.00     0.002 A 
HETATM   28  C22 UNL     1      26.878  -1.235  52.767  1.00  0.00     0.029 A 
ENDBRANCH  21  23
ENDBRANCH  19  21
ENDBRANCH   1  19
TORSDOF 7
ENDMDL
MODEL 5
REMARK VINA RESULT:      -8.0      2.327      5.639
REMARK  7 active torsions:
REMARK  status: ('A' for Active; 'I' for Inactive)
REMARK    1  A    between atoms: C6_7  and  C8_9 
REMARK    2  A    between atoms: C8_9  and  N1_10 
REMARK    3  A    between atoms: N1_10  and  C9_11 
REMARK    4  A    between atoms: N1_10  and  C16_18 
REMARK    5  A    between atoms: C9_11  and  C10_12 
REMARK    6  A    between atoms: C16_18  and  N2_20 
REMARK    7  A    between atoms: N2_20  and  C17_21 
ROOT
HETATM    1  N1  UNL     1      23.645   2.874  51.066  1.00  0.00    -0.351 N 
ENDROOT
BRANCH   1   2
HETATM    2  C8  UNL     1      23.111   1.812  50.250  1.00  0.00     0.163 C 
BRANCH   2   3
HETATM    3  C6  UNL     1      21.654   1.540  50.409  1.00  0.00     0.078 C 
HETATM    4  O1  UNL     1      20.946   2.634  50.877  1.00  0.00    -0.370 OA
HETATM    5  C4  UNL     1      19.592   2.342  51.030  1.00  0.00     0.141 C 
HETATM    6  C3  UNL     1      19.429   1.494  52.271  1.00  0.00     0.007 C 
HETATM    7  C5  UNL     1      18.870   3.641  51.368  1.00  0.00     0.044 C 
HETATM    8  C2  UNL     1      20.337   0.544  52.243  1.00  0.00    -0.082 C 
HETATM    9  C1  UNL     1      20.295  -0.389  53.429  1.00  0.00     0.043 C 
HETATM   10  C23 UNL     1      21.372   0.291  51.204  1.00  0.00     0.072 C 
HETATM   11  C7  UNL     1      21.112   1.291  48.989  1.00  0.00     0.048 C 
ENDBRANCH   2   3
ENDBRANCH   1   2
BRANCH   1  12
HETATM   12  C9  UNL     1      23.871   2.544  52.447  1.00  0.00     0.164 C 
BRANCH  12  13
HETATM   13  C10 UNL     1      24.716   1.338  52.649  1.00  0.00    -0.040 A 
HETATM   14  C11 UNL     1      25.978   1.324  52.088  1.00  0.00     0.009 A 
HETATM   15  C12 UNL     1      26.864   0.255  52.202  1.00  0.00     0.001 A 
HETATM   16  C13 UNL     1      26.480  -0.861  52.911  1.00  0.00     0.000 A 
HETATM   17  C14 UNL     1      25.229  -0.891  53.488  1.00  0.00     0.001 A 
HETATM   18  C15 UNL     1      24.404   0.189  53.341  1.00  0.00     0.009 A 
ENDBRANCH  12  13
ENDBRANCH   1  12
BRANCH   1  19
HETATM   19  C16 UNL     1      23.975   4.210  50.601  1.00  0.00     0.174 C 
HETATM   20  S1  UNL     1      23.570   5.415  51.664  1.00  0.00    -0.041 SA
BRANCH  19  21
HETATM   21  N2  UNL     1      24.585   4.500  49.360  1.00  0.00    -0.333 N 
HETATM   22  H21 UNL     1      23.974   4.153  48.586  1.00  0.00     0.168 HD
BRANCH  21  23
HETATM   23  C17 UNL     1      25.791   5.123  48.971  1.00  0.00     0.034 A 
HETATM   24  C18 UNL     1      27.029   4.537  48.920  1.00  0.00     0.029 A 
HETATM   25  C19 UNL     1      28.203   5.146  48.543  1.00  0.00     0.002 A 
HETATM   26  C20 UNL     1      28.062   6.464  48.194  1.00  0.00     0.000 A 
HETATM   27  C21 UNL     1      26.865   7.140  48.211  1.00  0.00     0.002 A 
HETATM   28  C22 UNL     1      25.747   6.447  48.603  1.00  0.00     0.029 A 
ENDBRANCH  21  23
ENDBRANCH  19  21
ENDBRANCH   1  19
TORSDOF 7
ENDMDL
MODEL 6
REMARK VINA RESULT:      -7.7      1.756      6.075
REMARK  7 active torsions:
REMARK  status: ('A' for Active; 'I' for Inactive)
REMARK    1  A    between atoms: C6_7  and  C8_9 
REMARK    2  A    between atoms: C8_9  and  N1_10 
REMARK    3  A    between atoms: N1_10  and  C9_11 
REMARK    4  A    between atoms: N1_10  and  C16_18 
REMARK    5  A    between atoms: C9_11  and  C10_12 
REMARK    6  A    between atoms: C16_18  and  N2_20 
REMARK    7  A    between atoms: N2_20  and  C17_21 
ROOT
HETATM    1  N1  UNL     1      25.151   2.307  51.598  1.00  0.00    -0.351 N 
ENDROOT
BRANCH   1   2
HETATM    2  C8  UNL     1      24.086   2.046  52.534  1.00  0.00     0.163 C 
BRANCH   2   3
HETATM    3  C6  UNL     1      22.795   1.596  51.940  1.00  0.00     0.078 C 
HETATM    4  O1  UNL     1      22.810   1.581  50.556  1.00  0.00    -0.370 OA
HETATM    5  C4  UNL     1      21.585   1.172  50.033  1.00  0.00     0.141 C 
HETATM    6  C3  UNL     1      20.605   2.315  50.176  1.00  0.00     0.007 C 
HETATM    7  C5  UNL     1      21.751   1.010  48.526  1.00  0.00     0.044 C 
HETATM    8  C2  UNL     1      20.706   2.793  51.397  1.00  0.00    -0.082 C 
HETATM    9  C1  UNL     1      19.779   3.949  51.688  1.00  0.00     0.043 C 
HETATM   10  C23 UNL     1      21.603   2.337  52.492  1.00  0.00     0.072 C 
HETATM   11  C7  UNL     1      22.629   0.123  52.354  1.00  0.00     0.048 C 
ENDBRANCH   2   3
ENDBRANCH   1   2
BRANCH   1  12
HETATM   12  C9  UNL     1      26.107   1.246  51.430  1.00  0.00     0.164 C 
BRANCH  12  13
HETATM   13  C10 UNL     1      27.155   1.207  52.481  1.00  0.00    -0.040 A 
HETATM   14  C11 UNL     1      27.457  -0.011  53.059  1.00  0.00     0.009 A 
HETATM   15  C12 UNL     1      28.416  -0.180  54.054  1.00  0.00     0.001 A 
HETATM   16  C13 UNL     1      29.117   0.917  54.504  1.00  0.00     0.000 A 
HETATM   17  C14 UNL     1      28.849   2.153  53.956  1.00  0.00     0.001 A 
HETATM   18  C15 UNL     1      27.896   2.256  52.981  1.00  0.00     0.009 A 
ENDBRANCH  12  13
ENDBRANCH   1  12
BRANCH   1  19
HETATM   19  C16 UNL     1      25.314   3.527  50.827  1.00  0.00     0.174 C 
HETATM   20  S1  UNL     1      26.442   3.417  49.617  1.00  0.00    -0.041 SA
BRANCH  19  21
HETATM   21  N2  UNL     1      24.595   4.722  51.054  1.00  0.00    -0.333 N 
HETATM   22  H21 UNL     1      25.046   5.253  51.834  1.00  0.00     0.168 HD
BRANCH  21  23
HETATM   23  C17 UNL     1      23.449   5.313  50.479  1.00  0.00     0.034 A 
HETATM   24  C18 UNL     1      22.892   4.996  49.267  1.00  0.00     0.029 A 
HETATM   25  C19 UNL     1      21.777   5.574  48.707  1.00  0.00     0.002 A 
HETATM   26  C20 UNL     1      21.208   6.553  49.479  1.00  0.00     0.000 A 
HETATM   27  C21 UNL     1      21.690   6.942  50.706  1.00  0.00     0.002 A 
HETATM   28  C22 UNL     1      22.810   6.307  51.182  1.00  0.00     0.029 A 
ENDBRANCH  21  23
ENDBRANCH  19  21
ENDBRANCH   1  19
TORSDOF 7
ENDMDL
MODEL 7
REMARK VINA RESULT:      -7.7      1.596      1.958
REMARK  7 active torsions:
REMARK  status: ('A' for Active; 'I' for Inactive)
REMARK    1  A    between atoms: C6_7  and  C8_9 
REMARK    2  A    between atoms: C8_9  and  N1_10 
REMARK    3  A    between atoms: N1_10  and  C9_11 
REMARK    4  A    between atoms: N1_10  and  C16_18 
REMARK    5  A    between atoms: C9_11  and  C10_12 
REMARK    6  A    between atoms: C16_18  and  N2_20 
REMARK    7  A    between atoms: N2_20  and  C17_21 
ROOT
HETATM    1  N1  UNL     1      24.379   3.498  50.703  1.00  0.00    -0.351 N 
ENDROOT
BRANCH   1   2
HETATM    2  C8  UNL     1      23.582   4.493  51.377  1.00  0.00     0.163 C 
BRANCH   2   3
HETATM    3  C6  UNL     1      23.403   5.782  50.652  1.00  0.00     0.078 C 
HETATM    4  O1  UNL     1      23.368   5.632  49.276  1.00  0.00    -0.370 OA
HETATM    5  C4  UNL     1      23.216   6.856  48.629  1.00  0.00     0.141 C 
HETATM    6  C3  UNL     1      24.538   7.586  48.683  1.00  0.00     0.007 C 
HETATM    7  C5  UNL     1      23.005   6.576  47.145  1.00  0.00     0.044 C 
HETATM    8  C2  UNL     1      25.000   7.512  49.912  1.00  0.00    -0.082 C 
HETATM    9  C1  UNL     1      26.326   8.204  50.119  1.00  0.00     0.043 C 
HETATM   10  C23 UNL     1      24.380   6.844  51.088  1.00  0.00     0.072 C 
HETATM   11  C7  UNL     1      22.000   6.291  51.033  1.00  0.00     0.048 C 
ENDBRANCH   2   3
ENDBRANCH   1   2
BRANCH   1  12
HETATM   12  C9  UNL     1      23.646   2.529  49.934  1.00  0.00     0.164 C 
BRANCH  12  13
HETATM   13  C10 UNL     1      22.771   1.648  50.751  1.00  0.00    -0.040 A 
HETATM   14  C11 UNL     1      23.239   1.219  51.978  1.00  0.00     0.009 A 
HETATM   15  C12 UNL     1      22.519   0.391  52.835  1.00  0.00     0.001 A 
HETATM   16  C13 UNL     1      21.266  -0.038  52.458  1.00  0.00     0.000 A 
HETATM   17  C14 UNL     1      20.758   0.365  51.241  1.00  0.00     0.001 A 
HETATM   18  C15 UNL     1      21.513   1.179  50.443  1.00  0.00     0.009 A 
ENDBRANCH  12  13
ENDBRANCH   1  12
BRANCH   1  19
HETATM   19  C16 UNL     1      25.828   3.417  50.735  1.00  0.00     0.174 C 
HETATM   20  S1  UNL     1      26.572   4.057  49.399  1.00  0.00    -0.041 SA
BRANCH  19  21
HETATM   21  N2  UNL     1      26.577   2.850  51.791  1.00  0.00    -0.333 N 
HETATM   22  H21 UNL     1      27.293   3.540  52.115  1.00  0.00     0.168 HD
BRANCH  21  23
HETATM   23  C17 UNL     1      26.563   1.607  52.459  1.00  0.00     0.034 A 
HETATM   24  C18 UNL     1      26.670   0.370  51.877  1.00  0.00     0.029 A 
HETATM   25  C19 UNL     1      26.654  -0.841  52.529  1.00  0.00     0.002 A 
HETATM   26  C20 UNL     1      26.517  -0.741  53.889  1.00  0.00     0.000 A 
HETATM   27  C21 UNL     1      26.403   0.450  54.565  1.00  0.00     0.002 A 
HETATM   28  C22 UNL     1      26.429   1.607  53.828  1.00  0.00     0.029 A 
ENDBRANCH  21  23
ENDBRANCH  19  21
ENDBRANCH   1  19
TORSDOF 7
ENDMDL
MODEL 8
REMARK VINA RESULT:      -7.6      7.402     10.508
REMARK  7 active torsions:
REMARK  status: ('A' for Active; 'I' for Inactive)
REMARK    1  A    between atoms: C6_7  and  C8_9 
REMARK    2  A    between atoms: C8_9  and  N1_10 
REMARK    3  A    between atoms: N1_10  and  C9_11 
REMARK    4  A    between atoms: N1_10  and  C16_18 
REMARK    5  A    between atoms: C9_11  and  C10_12 
REMARK    6  A    between atoms: C16_18  and  N2_20 
REMARK    7  A    between atoms: N2_20  and  C17_21 
ROOT
HETATM    1  N1  UNL     1      31.941   7.321  48.503  1.00  0.00    -0.351 N 
ENDROOT
BRANCH   1   2
HETATM    2  C8  UNL     1      33.091   7.997  47.957  1.00  0.00     0.163 C 
BRANCH   2   3
HETATM    3  C6  UNL     1      33.037   8.295  46.498  1.00  0.00     0.078 C 
HETATM    4  O1  UNL     1      31.752   8.522  46.037  1.00  0.00    -0.370 OA
HETATM    5  C4  UNL     1      31.735   8.782  44.668  1.00  0.00     0.141 C 
HETATM    6  C3  UNL     1      31.946   7.476  43.937  1.00  0.00     0.007 C 
HETATM    7  C5  UNL     1      30.318   9.197  44.289  1.00  0.00     0.044 C 
HETATM    8  C2  UNL     1      32.950   6.844  44.504  1.00  0.00    -0.082 C 
HETATM    9  C1  UNL     1      33.279   5.512  43.874  1.00  0.00     0.043 C 
HETATM   10  C23 UNL     1      33.775   7.281  45.662  1.00  0.00     0.072 C 
HETATM   11  C7  UNL     1      33.771   9.637  46.313  1.00  0.00     0.048 C 
ENDBRANCH   2   3
ENDBRANCH   1   2
BRANCH   1  12
HETATM   12  C9  UNL     1      32.208   6.073  49.165  1.00  0.00     0.164 C 
BRANCH  12  13
HETATM   13  C10 UNL     1      32.707   5.006  48.260  1.00  0.00    -0.040 A 
HETATM   14  C11 UNL     1      31.798   4.363  47.442  1.00  0.00     0.009 A 
HETATM   15  C12 UNL     1      32.139   3.347  46.553  1.00  0.00     0.001 A 
HETATM   16  C13 UNL     1      33.452   2.944  46.467  1.00  0.00     0.000 A 
HETATM   17  C14 UNL     1      34.395   3.557  47.264  1.00  0.00     0.001 A 
HETATM   18  C15 UNL     1      33.999   4.549  48.118  1.00  0.00     0.009 A 
ENDBRANCH  12  13
ENDBRANCH   1  12
BRANCH   1  19
HETATM   19  C16 UNL     1      30.573   7.806  48.446  1.00  0.00     0.174 C 
HETATM   20  S1  UNL     1      30.322   9.225  49.265  1.00  0.00    -0.041 SA
BRANCH  19  21
HETATM   21  N2  UNL     1      29.520   7.156  47.763  1.00  0.00    -0.333 N 
HETATM   22  H21 UNL     1      29.705   7.186  46.735  1.00  0.00     0.168 HD
BRANCH  21  23
HETATM   23  C17 UNL     1      28.329   6.513  48.164  1.00  0.00     0.034 A 
HETATM   24  C18 UNL     1      27.090   7.090  48.272  1.00  0.00     0.029 A 
HETATM   25  C19 UNL     1      25.931   6.463  48.664  1.00  0.00     0.002 A 
HETATM   26  C20 UNL     1      26.087   5.135  48.961  1.00  0.00     0.000 A 
HETATM   27  C21 UNL     1      27.285   4.465  48.884  1.00  0.00     0.002 A 
HETATM   28  C22 UNL     1      28.389   5.176  48.483  1.00  0.00     0.029 A 
ENDBRANCH  21  23
ENDBRANCH  19  21
ENDBRANCH   1  19
TORSDOF 7
ENDMDL
MODEL 9
REMARK VINA RESULT:      -7.4      1.614      4.563
REMARK  7 active torsions:
REMARK  status: ('A' for Active; 'I' for Inactive)
REMARK    1  A    between atoms: C6_7  and  C8_9 
REMARK    2  A    between atoms: C8_9  and  N1_10 
REMARK    3  A    between atoms: N1_10  and  C9_11 
REMARK    4  A    between atoms: N1_10  and  C16_18 
REMARK    5  A    between atoms: C9_11  and  C10_12 
REMARK    6  A    between atoms: C16_18  and  N2_20 
REMARK    7  A    between atoms: N2_20  and  C17_21 
ROOT
HETATM    1  N1  UNL     1      24.657   2.794  50.839  1.00  0.00    -0.351 N 
ENDROOT
BRANCH   1   2
HETATM    2  C8  UNL     1      24.108   3.013  49.524  1.00  0.00     0.163 C 
BRANCH   2   3
HETATM    3  C6  UNL     1      23.043   4.051  49.429  1.00  0.00     0.078 C 
HETATM    4  O1  UNL     1      23.360   5.218  50.102  1.00  0.00    -0.370 OA
HETATM    5  C4  UNL     1      22.338   6.160  50.007  1.00  0.00     0.141 C 
HETATM    6  C3  UNL     1      21.217   5.736  50.928  1.00  0.00     0.007 C 
HETATM    7  C5  UNL     1      22.846   7.463  50.613  1.00  0.00     0.044 C 
HETATM    8  C2  UNL     1      20.990   4.455  50.738  1.00  0.00    -0.082 C 
HETATM    9  C1  UNL     1      19.887   3.887  51.598  1.00  0.00     0.043 C 
HETATM   10  C23 UNL     1      21.678   3.529  49.798  1.00  0.00     0.072 C 
HETATM   11  C7  UNL     1      22.974   4.452  47.944  1.00  0.00     0.048 C 
ENDBRANCH   2   3
ENDBRANCH   1   2
BRANCH   1  12
HETATM   12  C9  UNL     1      26.090   2.866  50.937  1.00  0.00     0.164 C 
BRANCH  12  13
HETATM   13  C10 UNL     1      26.695   1.773  51.740  1.00  0.00    -0.040 A 
HETATM   14  C11 UNL     1      27.518   2.115  52.795  1.00  0.00     0.009 A 
HETATM   15  C12 UNL     1      28.146   1.186  53.620  1.00  0.00     0.001 A 
HETATM   16  C13 UNL     1      27.949  -0.157  53.390  1.00  0.00     0.000 A 
HETATM   17  C14 UNL     1      27.135  -0.546  52.347  1.00  0.00     0.001 A 
HETATM   18  C15 UNL     1      26.546   0.413  51.572  1.00  0.00     0.009 A 
ENDBRANCH  12  13
ENDBRANCH   1  12
BRANCH   1  19
HETATM   19  C16 UNL     1      23.885   2.526  52.040  1.00  0.00     0.174 C 
HETATM   20  S1  UNL     1      23.979   3.720  53.186  1.00  0.00    -0.041 SA
BRANCH  19  21
HETATM   21  N2  UNL     1      23.109   1.363  52.252  1.00  0.00    -0.333 N 
HETATM   22  H21 UNL     1      22.481   1.213  51.430  1.00  0.00     0.168 HD
BRANCH  21  23
HETATM   23  C17 UNL     1      23.010   0.417  53.294  1.00  0.00     0.034 A 
HETATM   24  C18 UNL     1      24.053  -0.197  53.938  1.00  0.00     0.029 A 
HETATM   25  C19 UNL     1      23.955  -1.120  54.952  1.00  0.00     0.002 A 
HETATM   26  C20 UNL     1      22.667  -1.417  55.314  1.00  0.00     0.000 A 
HETATM   27  C21 UNL     1      21.556  -0.857  54.731  1.00  0.00     0.002 A 
HETATM   28  C22 UNL     1      21.755   0.056  53.725  1.00  0.00     0.029 A 
ENDBRANCH  21  23
ENDBRANCH  19  21
ENDBRANCH   1  19
TORSDOF 7
ENDMDL
