MODEL 1
REMARK VINA RESULT:      -9.7      0.000      0.000
REMARK  1 active torsions:
REMARK  status: ('A' for Active; 'I' for Inactive)
REMARK    1  A    between atoms: O1_2  and  C2_3 
ROOT
HETATM    1  C2  UNL     1      27.083   1.054  53.224  1.00  0.00     0.103 A 
HETATM    2  C3  UNL     1      26.713   0.095  54.160  1.00  0.00     0.072 A 
HETATM    3  C4  UNL     1      25.409  -0.293  54.362  1.00  0.00     0.073 A 
HETATM    4  N1  UNL     1      25.001  -1.215  55.252  1.00  0.00    -0.241 NA
HETATM    5  C5  UNL     1      23.699  -1.543  55.392  1.00  0.00     0.234 A 
HETATM    6  N2  UNL     1      22.786  -0.912  54.598  1.00  0.00    -0.241 NA
HETATM    7  C6  UNL     1      23.155   0.007  53.702  1.00  0.00     0.075 A 
HETATM    8  C7  UNL     1      24.478   0.335  53.567  1.00  0.00     0.025 A 
HETATM    9  C8  UNL     1      24.859   1.278  52.649  1.00  0.00     0.055 A 
HETATM   10  C9  UNL     1      26.141   1.700  52.409  1.00  0.00     0.103 A 
HETATM   11  O2  UNL     1      26.674   2.608  51.552  1.00  0.00    -0.348 OA
HETATM   12  C10 UNL     1      26.505   2.893  50.228  1.00  0.00     0.177 C 
HETATM   13  C11 UNL     1      25.131   3.317  49.768  1.00  0.00     0.046 C 
HETATM   14  C12 UNL     1      24.754   4.540  50.522  1.00  0.00     0.119 C 
HETATM   15  N3  UNL     1      23.531   5.152  50.263  1.00  0.00    -0.402 N 
HETATM   16  C13 UNL     1      23.484   6.508  49.891  1.00  0.00     0.143 C 
HETATM   17  C14 UNL     1      22.073   6.991  50.256  1.00  0.00     0.187 C 
HETATM   18  O3  UNL     1      21.271   6.380  49.292  1.00  0.00    -0.387 OA
HETATM   19  C15 UNL     1      21.209   5.014  49.431  1.00  0.00     0.194 C 
HETATM   20  C16 UNL     1      22.431   4.311  49.868  1.00  0.00     0.125 C 
HETATM   21  C17 UNL     1      22.093   3.524  51.074  1.00  0.00     0.136 A 
HETATM   22  C18 UNL     1      21.424   2.448  51.407  1.00  0.00     0.006 A 
HETATM   23 CL1  UNL     1      21.161   2.462  49.684  1.00  0.00    -0.177 Cl
HETATM   24  C19 UNL     1      21.092   1.654  52.600  1.00  0.00     0.081 A 
HETATM   25  C20 UNL     1      20.402   0.372  52.306  1.00  0.00    -0.022 A 
HETATM   26  C21 UNL     1      21.555   0.181  51.779  1.00  0.00     0.032 A 
HETATM   27  C22 UNL     1      22.096   0.615  52.907  1.00  0.00    -0.023 A 
ENDROOT
BRANCH   1  28
HETATM   28  O1  UNL     1      28.446   1.351  53.127  1.00  0.00    -0.353 OA
HETATM   29  C1  UNL     1      29.355   0.604  53.870  1.00  0.00     0.210 C 
ENDBRANCH   1  28
TORSDOF 1
ENDMDL
MODEL 2
REMARK VINA RESULT:      -9.3      2.962      5.273
REMARK  1 active torsions:
REMARK  status: ('A' for Active; 'I' for Inactive)
REMARK    1  A    between atoms: O1_2  and  C2_3 
ROOT
HETATM    1  C2  UNL     1      19.361  -0.712  53.355  1.00  0.00     0.103 A 
HETATM    2  C3  UNL     1      20.195  -1.411  54.219  1.00  0.00     0.072 A 
HETATM    3  C4  UNL     1      21.542  -1.153  54.335  1.00  0.00     0.073 A 
HETATM    4  N1  UNL     1      22.389  -1.799  55.156  1.00  0.00    -0.241 NA
HETATM    5  C5  UNL     1      23.701  -1.488  55.213  1.00  0.00     0.234 A 
HETATM    6  N2  UNL     1      24.162  -0.486  54.409  1.00  0.00    -0.241 NA
HETATM    7  C6  UNL     1      23.349   0.178  53.583  1.00  0.00     0.075 A 
HETATM    8  C7  UNL     1      22.019  -0.145  53.530  1.00  0.00     0.025 A 
HETATM    9  C8  UNL     1      21.183   0.535  52.683  1.00  0.00     0.055 A 
HETATM   10  C9  UNL     1      19.838   0.317  52.530  1.00  0.00     0.103 A 
HETATM   11  O2  UNL     1      18.888   0.892  51.749  1.00  0.00    -0.348 OA
HETATM   12  C10 UNL     1      18.552   2.177  51.433  1.00  0.00     0.177 C 
HETATM   13  C11 UNL     1      19.590   3.026  50.739  1.00  0.00     0.046 C 
HETATM   14  C12 UNL     1      19.953   2.353  49.466  1.00  0.00     0.119 C 
HETATM   15  N3  UNL     1      20.881   2.952  48.618  1.00  0.00    -0.402 N 
HETATM   16  C13 UNL     1      20.542   3.225  47.280  1.00  0.00     0.143 C 
HETATM   17  C14 UNL     1      21.874   3.305  46.521  1.00  0.00     0.187 C 
HETATM   18  O3  UNL     1      22.413   4.515  46.955  1.00  0.00    -0.387 OA
HETATM   19  C15 UNL     1      22.778   4.497  48.280  1.00  0.00     0.194 C 
HETATM   20  C16 UNL     1      21.928   3.737  49.217  1.00  0.00     0.125 C 
HETATM   21  C17 UNL     1      22.790   2.762  49.920  1.00  0.00     0.136 A 
HETATM   22  C18 UNL     1      23.723   2.737  50.838  1.00  0.00     0.006 A 
HETATM   23 CL1  UNL     1      23.394   4.448  50.770  1.00  0.00    -0.177 Cl
HETATM   24  C19 UNL     1      24.576   1.773  51.550  1.00  0.00     0.081 A 
HETATM   25  C20 UNL     1      25.362   2.361  52.665  1.00  0.00    -0.022 A 
HETATM   26  C21 UNL     1      24.159   2.499  53.085  1.00  0.00     0.032 A 
HETATM   27  C22 UNL     1      23.949   1.229  52.772  1.00  0.00    -0.023 A 
ENDROOT
BRANCH   1  28
HETATM   28  O1  UNL     1      18.012  -1.082  53.341  1.00  0.00    -0.353 OA
HETATM   29  C1  UNL     1      17.677  -2.424  53.495  1.00  0.00     0.210 C 
ENDBRANCH   1  28
TORSDOF 1
ENDMDL
MODEL 3
REMARK VINA RESULT:      -9.3      2.537      3.914
REMARK  1 active torsions:
REMARK  status: ('A' for Active; 'I' for Inactive)
REMARK    1  A    between atoms: O1_2  and  C2_3 
ROOT
HETATM    1  C2  UNL     1      25.557   2.878  50.253  1.00  0.00     0.103 A 
HETATM    2  C3  UNL     1      26.445   2.361  51.189  1.00  0.00     0.072 A 
HETATM    3  C4  UNL     1      26.053   1.553  52.230  1.00  0.00     0.073 A 
HETATM    4  N1  UNL     1      26.872   1.029  53.158  1.00  0.00    -0.241 NA
HETATM    5  C5  UNL     1      26.410   0.243  54.154  1.00  0.00     0.234 A 
HETATM    6  N2  UNL     1      25.072  -0.017  54.202  1.00  0.00    -0.241 NA
HETATM    7  C6  UNL     1      24.228   0.486  53.297  1.00  0.00     0.075 A 
HETATM    8  C7  UNL     1      24.705   1.284  52.290  1.00  0.00     0.025 A 
HETATM    9  C8  UNL     1      23.842   1.801  51.360  1.00  0.00     0.055 A 
HETATM   10  C9  UNL     1      24.180   2.609  50.305  1.00  0.00     0.103 A 
HETATM   11  O2  UNL     1      23.459   3.194  49.315  1.00  0.00    -0.348 OA
HETATM   12  C10 UNL     1      22.475   2.774  48.468  1.00  0.00     0.177 C 
HETATM   13  C11 UNL     1      21.182   2.286  49.076  1.00  0.00     0.046 C 
HETATM   14  C12 UNL     1      20.610   3.395  49.883  1.00  0.00     0.119 C 
HETATM   15  N3  UNL     1      19.393   3.209  50.533  1.00  0.00    -0.402 N 
HETATM   16  C13 UNL     1      18.322   4.090  50.293  1.00  0.00     0.143 C 
HETATM   17  C14 UNL     1      17.413   3.985  51.526  1.00  0.00     0.187 C 
HETATM   18  O3  UNL     1      16.820   2.732  51.376  1.00  0.00    -0.387 OA
HETATM   19  C15 UNL     1      17.710   1.695  51.521  1.00  0.00     0.194 C 
HETATM   20  C16 UNL     1      19.079   1.885  51.001  1.00  0.00     0.125 C 
HETATM   21  C17 UNL     1      20.023   1.632  52.111  1.00  0.00     0.136 A 
HETATM   22  C18 UNL     1      20.491   0.630  52.812  1.00  0.00     0.006 A 
HETATM   23 CL1  UNL     1      19.409  -0.216  51.740  1.00  0.00    -0.177 Cl
HETATM   24  C19 UNL     1      21.437   0.369  53.909  1.00  0.00     0.081 A 
HETATM   25  C20 UNL     1      21.685  -1.073  54.169  1.00  0.00    -0.022 A 
HETATM   26  C21 UNL     1      22.177  -0.925  52.995  1.00  0.00     0.032 A 
HETATM   27  C22 UNL     1      22.820   0.141  53.444  1.00  0.00    -0.023 A 
ENDROOT
BRANCH   1  28
HETATM   28  O1  UNL     1      26.096   3.686  49.247  1.00  0.00    -0.353 OA
HETATM   29  C1  UNL     1      26.222   5.054  49.474  1.00  0.00     0.210 C 
ENDBRANCH   1  28
TORSDOF 1
ENDMDL
MODEL 4
REMARK VINA RESULT:      -9.3      1.327      1.713
REMARK  1 active torsions:
REMARK  status: ('A' for Active; 'I' for Inactive)
REMARK    1  A    between atoms: O1_2  and  C2_3 
ROOT
HETATM    1  C2  UNL     1      25.949   0.337  52.641  1.00  0.00     0.103 A 
HETATM    2  C3  UNL     1      25.190  -0.481  53.471  1.00  0.00     0.072 A 
HETATM    3  C4  UNL     1      23.841  -0.299  53.674  1.00  0.00     0.073 A 
HETATM    4  N1  UNL     1      23.066  -1.062  54.464  1.00  0.00    -0.241 NA
HETATM    5  C5  UNL     1      21.746  -0.820  54.614  1.00  0.00     0.234 A 
HETATM    6  N2  UNL     1      21.202   0.233  53.937  1.00  0.00    -0.241 NA
HETATM    7  C6  UNL     1      21.943   1.011  53.143  1.00  0.00     0.075 A 
HETATM    8  C7  UNL     1      23.281   0.759  52.996  1.00  0.00     0.025 A 
HETATM    9  C8  UNL     1      24.043   1.555  52.183  1.00  0.00     0.055 A 
HETATM   10  C9  UNL     1      25.387   1.418  51.946  1.00  0.00     0.103 A 
HETATM   11  O2  UNL     1      26.270   2.111  51.182  1.00  0.00    -0.348 OA
HETATM   12  C10 UNL     1      26.260   2.603  49.909  1.00  0.00     0.177 C 
HETATM   13  C11 UNL     1      25.205   3.624  49.556  1.00  0.00     0.046 C 
HETATM   14  C12 UNL     1      25.375   4.787  50.465  1.00  0.00     0.119 C 
HETATM   15  N3  UNL     1      24.534   5.889  50.327  1.00  0.00    -0.402 N 
HETATM   16  C13 UNL     1      25.077   7.171  50.121  1.00  0.00     0.143 C 
HETATM   17  C14 UNL     1      24.001   8.159  50.594  1.00  0.00     0.187 C 
HETATM   18  O3  UNL     1      23.031   8.072  49.596  1.00  0.00    -0.387 OA
HETATM   19  C15 UNL     1      22.390   6.856  49.575  1.00  0.00     0.194 C 
HETATM   20  C16 UNL     1      23.187   5.652  49.878  1.00  0.00     0.125 C 
HETATM   21  C17 UNL     1      22.526   4.941  50.994  1.00  0.00     0.136 A 
HETATM   22  C18 UNL     1      21.457   4.220  51.222  1.00  0.00     0.006 A 
HETATM   23 CL1  UNL     1      21.253   4.557  49.525  1.00  0.00    -0.177 Cl
HETATM   24  C19 UNL     1      20.799   3.502  52.325  1.00  0.00     0.081 A 
HETATM   25  C20 UNL     1      19.632   2.682  51.907  1.00  0.00    -0.022 A 
HETATM   26  C21 UNL     1      20.602   2.086  51.316  1.00  0.00     0.032 A 
HETATM   27  C22 UNL     1      21.257   2.105  52.467  1.00  0.00    -0.023 A 
ENDROOT
BRANCH   1  28
HETATM   28  O1  UNL     1      27.310   0.035  52.528  1.00  0.00    -0.353 OA
HETATM   29  C1  UNL     1      28.139   0.231  53.628  1.00  0.00     0.210 C 
ENDBRANCH   1  28
TORSDOF 1
ENDMDL
MODEL 5
REMARK VINA RESULT:      -8.8      2.700      5.319
REMARK  1 active torsions:
REMARK  status: ('A' for Active; 'I' for Inactive)
REMARK    1  A    between atoms: O1_2  and  C2_3 
ROOT
HETATM    1  C2  UNL     1      25.253   0.384  52.615  1.00  0.00     0.103 A 
HETATM    2  C3  UNL     1      26.239   1.114  51.961  1.00  0.00     0.072 A 
HETATM    3  C4  UNL     1      25.965   2.207  51.172  1.00  0.00     0.073 A 
HETATM    4  N1  UNL     1      26.882   2.945  50.522  1.00  0.00    -0.241 NA
HETATM    5  C5  UNL     1      26.534   4.006  49.763  1.00  0.00     0.234 A 
HETATM    6  N2  UNL     1      25.211   4.324  49.667  1.00  0.00    -0.241 NA
HETATM    7  C6  UNL     1      24.273   3.613  50.300  1.00  0.00     0.075 A 
HETATM    8  C7  UNL     1      24.634   2.538  51.067  1.00  0.00     0.025 A 
HETATM    9  C8  UNL     1      23.675   1.808  51.718  1.00  0.00     0.055 A 
HETATM   10  C9  UNL     1      23.893   0.713  52.514  1.00  0.00     0.103 A 
HETATM   11  O2  UNL     1      23.067  -0.104  53.215  1.00  0.00    -0.348 OA
HETATM   12  C10 UNL     1      22.006   0.090  54.051  1.00  0.00     0.177 C 
HETATM   13  C11 UNL     1      20.788   0.787  53.494  1.00  0.00     0.046 C 
HETATM   14  C12 UNL     1      20.289  -0.013  52.346  1.00  0.00     0.119 C 
HETATM   15  N3  UNL     1      19.147   0.406  51.668  1.00  0.00    -0.402 N 
HETATM   16  C13 UNL     1      18.047  -0.462  51.535  1.00  0.00     0.143 C 
HETATM   17  C14 UNL     1      17.271   0.036  50.307  1.00  0.00     0.187 C 
HETATM   18  O3  UNL     1      16.681   1.214  50.763  1.00  0.00    -0.387 OA
HETATM   19  C15 UNL     1      17.593   2.211  51.016  1.00  0.00     0.194 C 
HETATM   20  C16 UNL     1      18.899   1.820  51.583  1.00  0.00     0.125 C 
HETATM   21  C17 UNL     1      19.955   2.347  50.692  1.00  0.00     0.136 A 
HETATM   22  C18 UNL     1      20.505   3.490  50.364  1.00  0.00     0.006 A 
HETATM   23 CL1  UNL     1      19.328   4.029  51.531  1.00  0.00    -0.177 Cl
HETATM   24  C19 UNL     1      21.561   4.020  49.488  1.00  0.00     0.081 A 
HETATM   25  C20 UNL     1      21.851   5.463  49.689  1.00  0.00    -0.022 A 
HETATM   26  C21 UNL     1      22.219   4.959  50.809  1.00  0.00     0.032 A 
HETATM   27  C22 UNL     1      22.892   4.044  50.128  1.00  0.00    -0.023 A 
ENDROOT
BRANCH   1  28
HETATM   28  O1  UNL     1      25.677  -0.705  53.384  1.00  0.00    -0.353 OA
HETATM   29  C1  UNL     1      26.772  -1.450  52.956  1.00  0.00     0.210 C 
ENDBRANCH   1  28
TORSDOF 1
ENDMDL
MODEL 6
REMARK VINA RESULT:      -8.7      2.596      4.678
REMARK  1 active torsions:
REMARK  status: ('A' for Active; 'I' for Inactive)
REMARK    1  A    between atoms: O1_2  and  C2_3 
ROOT
HETATM    1  C2  UNL     1      22.450   0.064  53.813  1.00  0.00     0.103 A 
HETATM    2  C3  UNL     1      23.730  -0.412  54.073  1.00  0.00     0.072 A 
HETATM    3  C4  UNL     1      24.848   0.038  53.410  1.00  0.00     0.073 A 
HETATM    4  N1  UNL     1      26.104  -0.390  53.626  1.00  0.00    -0.241 NA
HETATM    5  C5  UNL     1      27.153   0.101  52.932  1.00  0.00     0.234 A 
HETATM    6  N2  UNL     1      26.912   1.059  51.991  1.00  0.00    -0.241 NA
HETATM    7  C6  UNL     1      25.677   1.508  51.750  1.00  0.00     0.075 A 
HETATM    8  C7  UNL     1      24.618   1.004  52.458  1.00  0.00     0.025 A 
HETATM    9  C8  UNL     1      23.351   1.463  52.214  1.00  0.00     0.055 A 
HETATM   10  C9  UNL     1      22.205   1.049  52.844  1.00  0.00     0.103 A 
HETATM   11  O2  UNL     1      20.900   1.398  52.719  1.00  0.00    -0.348 OA
HETATM   12  C10 UNL     1      20.226   2.581  52.623  1.00  0.00     0.177 C 
HETATM   13  C11 UNL     1      20.543   3.480  51.452  1.00  0.00     0.046 C 
HETATM   14  C12 UNL     1      20.259   2.723  50.207  1.00  0.00     0.119 C 
HETATM   15  N3  UNL     1      20.446   3.343  48.974  1.00  0.00    -0.402 N 
HETATM   16  C13 UNL     1      19.386   3.415  48.051  1.00  0.00     0.143 C 
HETATM   17  C14 UNL     1      20.044   3.588  46.674  1.00  0.00     0.187 C 
HETATM   18  O3  UNL     1      20.510   4.902  46.710  1.00  0.00    -0.387 OA
HETATM   19  C15 UNL     1      21.539   5.083  47.604  1.00  0.00     0.194 C 
HETATM   20  C16 UNL     1      21.493   4.325  48.869  1.00  0.00     0.125 C 
HETATM   21  C17 UNL     1      22.754   3.563  48.986  1.00  0.00     0.136 A 
HETATM   22  C18 UNL     1      24.025   3.768  49.223  1.00  0.00     0.006 A 
HETATM   23 CL1  UNL     1      23.419   5.399  49.321  1.00  0.00    -0.177 Cl
HETATM   24  C19 UNL     1      25.283   3.015  49.351  1.00  0.00     0.081 A 
HETATM   25  C20 UNL     1      26.434   3.827  49.824  1.00  0.00    -0.022 A 
HETATM   26  C21 UNL     1      25.657   3.847  50.844  1.00  0.00     0.032 A 
HETATM   27  C22 UNL     1      25.537   2.533  50.724  1.00  0.00    -0.023 A 
ENDROOT
BRANCH   1  28
HETATM   28  O1  UNL     1      21.405  -0.484  54.563  1.00  0.00    -0.353 OA
HETATM   29  C1  UNL     1      20.946  -1.761  54.251  1.00  0.00     0.210 C 
ENDBRANCH   1  28
TORSDOF 1
ENDMDL
MODEL 7
REMARK VINA RESULT:      -8.6      2.618      6.245
REMARK  1 active torsions:
REMARK  status: ('A' for Active; 'I' for Inactive)
REMARK    1  A    between atoms: O1_2  and  C2_3 
ROOT
HETATM    1  C2  UNL     1      18.403   3.586  50.874  1.00  0.00     0.103 A 
HETATM    2  C3  UNL     1      17.536   2.530  51.125  1.00  0.00     0.072 A 
HETATM    3  C4  UNL     1      17.941   1.345  51.694  1.00  0.00     0.073 A 
HETATM    4  N1  UNL     1      17.142   0.296  51.958  1.00  0.00    -0.241 NA
HETATM    5  C5  UNL     1      17.615  -0.837  52.518  1.00  0.00     0.234 A 
HETATM    6  N2  UNL     1      18.945  -0.901  52.820  1.00  0.00    -0.241 NA
HETATM    7  C6  UNL     1      19.768   0.121  52.572  1.00  0.00     0.075 A 
HETATM    8  C7  UNL     1      19.280   1.268  52.002  1.00  0.00     0.025 A 
HETATM    9  C8  UNL     1      20.122   2.318  51.748  1.00  0.00     0.055 A 
HETATM   10  C9  UNL     1      19.770   3.518  51.185  1.00  0.00     0.103 A 
HETATM   11  O2  UNL     1      20.470   4.637  50.872  1.00  0.00    -0.348 OA
HETATM   12  C10 UNL     1      21.403   5.397  51.516  1.00  0.00     0.177 C 
HETATM   13  C11 UNL     1      22.702   4.736  51.910  1.00  0.00     0.046 C 
HETATM   14  C12 UNL     1      23.346   4.222  50.674  1.00  0.00     0.119 C 
HETATM   15  N3  UNL     1      24.581   3.585  50.763  1.00  0.00    -0.402 N 
HETATM   16  C13 UNL     1      25.672   4.053  50.007  1.00  0.00     0.143 C 
HETATM   17  C14 UNL     1      26.627   2.857  49.871  1.00  0.00     0.187 C 
HETATM   18  O3  UNL     1      27.167   2.738  51.151  1.00  0.00    -0.387 OA
HETATM   19  C15 UNL     1      26.247   2.332  52.087  1.00  0.00     0.194 C 
HETATM   20  C16 UNL     1      24.866   2.838  51.959  1.00  0.00     0.125 C 
HETATM   21  C17 UNL     1      23.960   1.670  51.912  1.00  0.00     0.136 A 
HETATM   22  C18 UNL     1      23.485   0.744  52.707  1.00  0.00     0.006 A 
HETATM   23 CL1  UNL     1      24.491   1.630  53.821  1.00  0.00    -0.177 Cl
HETATM   24  C19 UNL     1      22.576  -0.412  52.672  1.00  0.00     0.081 A 
HETATM   25  C20 UNL     1      22.287  -1.002  54.004  1.00  0.00    -0.022 A 
HETATM   26  C21 UNL     1      21.753   0.159  54.105  1.00  0.00     0.032 A 
HETATM   27  C22 UNL     1      21.168  -0.056  52.937  1.00  0.00    -0.023 A 
ENDROOT
BRANCH   1  28
HETATM   28  O1  UNL     1      17.853   4.732  50.291  1.00  0.00    -0.353 OA
HETATM   29  C1  UNL     1      17.533   4.715  48.936  1.00  0.00     0.210 C 
ENDBRANCH   1  28
TORSDOF 1
ENDMDL
MODEL 8
REMARK VINA RESULT:      -8.6      2.747      6.481
REMARK  1 active torsions:
REMARK  status: ('A' for Active; 'I' for Inactive)
REMARK    1  A    between atoms: O1_2  and  C2_3 
ROOT
HETATM    1  C2  UNL     1      20.711   4.317  51.021  1.00  0.00     0.103 A 
HETATM    2  C3  UNL     1      19.417   3.855  50.814  1.00  0.00     0.072 A 
HETATM    3  C4  UNL     1      18.981   2.624  51.246  1.00  0.00     0.073 A 
HETATM    4  N1  UNL     1      17.741   2.133  51.072  1.00  0.00    -0.241 NA
HETATM    5  C5  UNL     1      17.388   0.912  51.524  1.00  0.00     0.234 A 
HETATM    6  N2  UNL     1      18.329   0.169  52.176  1.00  0.00    -0.241 NA
HETATM    7  C6  UNL     1      19.570   0.624  52.368  1.00  0.00     0.075 A 
HETATM    8  C7  UNL     1      19.921   1.865  51.904  1.00  0.00     0.025 A 
HETATM    9  C8  UNL     1      21.193   2.335  52.100  1.00  0.00     0.055 A 
HETATM   10  C9  UNL     1      21.677   3.551  51.692  1.00  0.00     0.103 A 
HETATM   11  O2  UNL     1      22.887   4.153  51.805  1.00  0.00    -0.348 OA
HETATM   12  C10 UNL     1      23.788   4.317  52.817  1.00  0.00     0.177 C 
HETATM   13  C11 UNL     1      24.385   3.076  53.437  1.00  0.00     0.046 C 
HETATM   14  C12 UNL     1      25.079   2.319  52.364  1.00  0.00     0.119 C 
HETATM   15  N3  UNL     1      25.741   1.136  52.683  1.00  0.00    -0.402 N 
HETATM   16  C13 UNL     1      27.105   0.984  52.371  1.00  0.00     0.143 C 
HETATM   17  C14 UNL     1      27.347  -0.530  52.295  1.00  0.00     0.187 C 
HETATM   18  O3  UNL     1      27.292  -0.927  53.630  1.00  0.00    -0.387 OA
HETATM   19  C15 UNL     1      26.034  -0.811  54.173  1.00  0.00     0.194 C 
HETATM   20  C16 UNL     1      25.205   0.335  53.751  1.00  0.00     0.125 C 
HETATM   21  C17 UNL     1      23.927  -0.199  53.232  1.00  0.00     0.136 A 
HETATM   22  C18 UNL     1      22.828  -0.757  53.673  1.00  0.00     0.006 A 
HETATM   23 CL1  UNL     1      23.688  -0.529  55.172  1.00  0.00    -0.177 Cl
HETATM   24  C19 UNL     1      21.549  -1.281  53.166  1.00  0.00     0.081 A 
HETATM   25  C20 UNL     1      20.579  -1.653  54.227  1.00  0.00    -0.022 A 
HETATM   26  C21 UNL     1      20.671  -0.384  54.384  1.00  0.00     0.032 A 
HETATM   27  C22 UNL     1      20.492  -0.253  53.078  1.00  0.00    -0.023 A 
ENDROOT
BRANCH   1  28
HETATM   28  O1  UNL     1      21.016   5.590  50.528  1.00  0.00    -0.353 OA
HETATM   29  C1  UNL     1      20.093   6.237  49.710  1.00  0.00     0.210 C 
ENDBRANCH   1  28
TORSDOF 1
ENDMDL
MODEL 9
REMARK VINA RESULT:      -8.1      2.231      7.435
REMARK  1 active torsions:
REMARK  status: ('A' for Active; 'I' for Inactive)
REMARK    1  A    between atoms: O1_2  and  C2_3 
ROOT
HETATM    1  C2  UNL     1      20.180   3.521  51.701  1.00  0.00     0.103 A 
HETATM    2  C3  UNL     1      20.199   4.732  51.018  1.00  0.00     0.072 A 
HETATM    3  C4  UNL     1      21.335   5.250  50.440  1.00  0.00     0.073 A 
HETATM    4  N1  UNL     1      21.404   6.413  49.770  1.00  0.00    -0.241 NA
HETATM    5  C5  UNL     1      22.558   6.857  49.230  1.00  0.00     0.234 A 
HETATM    6  N2  UNL     1      23.676   6.088  49.377  1.00  0.00    -0.241 NA
HETATM    7  C6  UNL     1      23.645   4.927  50.036  1.00  0.00     0.075 A 
HETATM    8  C7  UNL     1      22.469   4.484  50.582  1.00  0.00     0.025 A 
HETATM    9  C8  UNL     1      22.433   3.293  51.258  1.00  0.00     0.055 A 
HETATM   10  C9  UNL     1      21.331   2.733  51.851  1.00  0.00     0.103 A 
HETATM   11  O2  UNL     1      21.135   1.583  52.545  1.00  0.00    -0.348 OA
HETATM   12  C10 UNL     1      21.502   0.280  52.370  1.00  0.00     0.177 C 
HETATM   13  C11 UNL     1      22.977  -0.037  52.328  1.00  0.00     0.046 C 
HETATM   14  C12 UNL     1      23.576   0.409  53.613  1.00  0.00     0.119 C 
HETATM   15  N3  UNL     1      24.935   0.204  53.839  1.00  0.00    -0.402 N 
HETATM   16  C13 UNL     1      25.361  -0.510  54.975  1.00  0.00     0.143 C 
HETATM   17  C14 UNL     1      26.805  -0.056  55.233  1.00  0.00     0.187 C 
HETATM   18  O3  UNL     1      27.517  -0.666  54.200  1.00  0.00    -0.387 OA
HETATM   19  C15 UNL     1      27.215  -0.152  52.962  1.00  0.00     0.194 C 
HETATM   20  C16 UNL     1      25.818   0.246  52.704  1.00  0.00     0.125 C 
HETATM   21  C17 UNL     1      25.823   1.660  52.270  1.00  0.00     0.136 A 
HETATM   22  C18 UNL     1      26.159   2.382  51.230  1.00  0.00     0.006 A 
HETATM   23 CL1  UNL     1      26.587   0.792  50.660  1.00  0.00    -0.177 Cl
HETATM   24  C19 UNL     1      26.158   3.785  50.786  1.00  0.00     0.081 A 
HETATM   25  C20 UNL     1      26.525   3.973  49.359  1.00  0.00    -0.022 A 
HETATM   26  C21 UNL     1      25.419   3.329  49.268  1.00  0.00     0.032 A 
HETATM   27  C22 UNL     1      24.897   4.188  50.130  1.00  0.00    -0.023 A 
ENDROOT
BRANCH   1  28
HETATM   28  O1  UNL     1      18.954   3.116  52.238  1.00  0.00    -0.353 OA
HETATM   29  C1  UNL     1      17.991   2.574  51.392  1.00  0.00     0.210 C 
ENDBRANCH   1  28
TORSDOF 1
ENDMDL
