MODEL 1
REMARK VINA RESULT:      -8.6      0.000      0.000
REMARK  6 active torsions:
REMARK  status: ('A' for Active; 'I' for Inactive)
REMARK    1  A    between atoms: C3_3  and  C4_4 
REMARK    2  A    between atoms: C11_12  and  C12_13 
REMARK    3  A    between atoms: C13_14  and  C14_15 
REMARK    4  A    between atoms: C14_15  and  C15_16 
REMARK    5  A    between atoms: C15_16  and  N1_17 
REMARK    6  A    between atoms: C20_23  and  O3_24 
ROOT
HETATM    1  C4  UNL     1      25.743   3.914  49.259  1.00  0.00     0.011 C 
HETATM    2  C5  UNL     1      24.957   3.147  50.036  1.00  0.00    -0.005 C 
HETATM    3  C6  UNL     1      23.647   2.964  49.395  1.00  0.00     0.210 C 
HETATM    4  O1  UNL     1      22.429   3.304  49.911  1.00  0.00    -0.372 OA
HETATM    5  C7  UNL     1      21.754   2.704  51.015  1.00  0.00     0.102 A 
HETATM    6  C8  UNL     1      22.790   2.245  51.657  1.00  0.00     0.035 A 
HETATM    7  C9  UNL     1      23.697   1.724  52.418  1.00  0.00     0.048 A 
HETATM    8  C10 UNL     1      24.409   1.177  53.249  1.00  0.00    -0.025 A 
HETATM    9  C11 UNL     1      22.883   1.446  52.983  1.00  0.00     0.008 A 
HETATM   10  C12 UNL     1      21.752   1.965  52.254  1.00  0.00     0.036 A 
HETATM   11  C13 UNL     1      25.453   2.016  52.358  1.00  0.00     0.020 A 
HETATM   12  C20 UNL     1      25.764   2.757  51.217  1.00  0.00     0.061 C 
ENDROOT
BRANCH  11  13
HETATM   13  C14 UNL     1      26.537   1.811  53.386  1.00  0.00     0.047 C 
BRANCH  13  14
HETATM   14  C15 UNL     1      26.460   0.508  54.087  1.00  0.00     0.273 C 
BRANCH  14  15
HETATM   15  N1  UNL     1      27.713  -0.208  54.065  1.00  0.00     0.092 N 
HETATM   16  C16 UNL     1      28.841   0.732  54.025  1.00  0.00     0.298 C 
HETATM   17  C17 UNL     1      30.091   0.002  53.529  1.00  0.00     0.198 C 
HETATM   18  O2  UNL     1      30.049  -1.335  53.882  1.00  0.00    -0.388 OA
HETATM   19  C18 UNL     1      29.039  -2.049  53.274  1.00  0.00     0.198 C 
HETATM   20  C19 UNL     1      27.901  -1.098  52.966  1.00  0.00     0.298 C 
ENDBRANCH  14  15
ENDBRANCH  13  14
ENDBRANCH  11  13
BRANCH  12  21
HETATM   21  O3  UNL     1      27.083   3.134  51.325  1.00  0.00    -0.363 OA
HETATM   22  H25 UNL     1      27.537   3.688  50.584  1.00  0.00     0.217 HD
ENDBRANCH  12  21
BRANCH   1  23
HETATM   23  C3  UNL     1      27.108   4.445  49.328  1.00  0.00    -0.004 C 
HETATM   24  C2  UNL     1      27.576   5.355  48.493  1.00  0.00    -0.031 C 
HETATM   25  C1  UNL     1      28.708   6.191  48.082  1.00  0.00     0.036 C 
ENDBRANCH   1  23
TORSDOF 6
ENDMDL
MODEL 2
REMARK VINA RESULT:      -8.5      2.014      2.943
REMARK  6 active torsions:
REMARK  status: ('A' for Active; 'I' for Inactive)
REMARK    1  A    between atoms: C3_3  and  C4_4 
REMARK    2  A    between atoms: C11_12  and  C12_13 
REMARK    3  A    between atoms: C13_14  and  C14_15 
REMARK    4  A    between atoms: C14_15  and  C15_16 
REMARK    5  A    between atoms: C15_16  and  N1_17 
REMARK    6  A    between atoms: C20_23  and  O3_24 
ROOT
HETATM    1  C4  UNL     1      22.634   2.240  49.838  1.00  0.00     0.011 C 
HETATM    2  C5  UNL     1      22.349   1.311  50.769  1.00  0.00    -0.005 C 
HETATM    3  C6  UNL     1      21.026   0.729  50.505  1.00  0.00     0.210 C 
HETATM    4  O1  UNL     1      19.951   0.722  51.348  1.00  0.00    -0.372 OA
HETATM    5  C7  UNL     1      19.810  -0.002  52.569  1.00  0.00     0.102 A 
HETATM    6  C8  UNL     1      21.069  -0.112  52.883  1.00  0.00     0.035 A 
HETATM    7  C9  UNL     1      22.261  -0.314  53.345  1.00  0.00     0.048 A 
HETATM    8  C10 UNL     1      23.300  -0.594  53.925  1.00  0.00    -0.025 A 
HETATM    9  C11 UNL     1      21.750  -0.792  54.100  1.00  0.00     0.008 A 
HETATM   10  C12 UNL     1      20.362  -0.656  53.731  1.00  0.00     0.036 A 
HETATM   11  C13 UNL     1      23.769   0.473  52.818  1.00  0.00     0.020 A 
HETATM   12  C20 UNL     1      23.526   1.223  51.666  1.00  0.00     0.061 C 
ENDROOT
BRANCH  11  13
HETATM   13  C14 UNL     1      25.103   0.636  53.500  1.00  0.00     0.047 C 
BRANCH  13  14
HETATM   14  C15 UNL     1      25.984  -0.550  53.385  1.00  0.00     0.273 C 
BRANCH  14  15
HETATM   15  N1  UNL     1      27.385  -0.202  53.394  1.00  0.00     0.092 N 
HETATM   16  C16 UNL     1      28.211  -1.387  53.125  1.00  0.00     0.298 C 
HETATM   17  C17 UNL     1      29.641  -1.125  53.600  1.00  0.00     0.198 C 
HETATM   18  O2  UNL     1      29.948   0.221  53.510  1.00  0.00    -0.388 OA
HETATM   19  C18 UNL     1      29.214   1.026  54.355  1.00  0.00     0.198 C 
HETATM   20  C19 UNL     1      27.879   0.356  54.610  1.00  0.00     0.298 C 
ENDBRANCH  14  15
ENDBRANCH  13  14
ENDBRANCH  11  13
BRANCH  12  21
HETATM   21  O3  UNL     1      24.655   1.972  51.423  1.00  0.00    -0.363 OA
HETATM   22  H25 UNL     1      24.716   2.583  50.596  1.00  0.00     0.217 HD
ENDBRANCH  12  21
BRANCH   1  23
HETATM   23  C3  UNL     1      23.749   3.148  49.552  1.00  0.00    -0.004 C 
HETATM   24  C2  UNL     1      23.588   4.368  49.074  1.00  0.00    -0.031 C 
HETATM   25  C1  UNL     1      24.217   5.616  48.630  1.00  0.00     0.036 C 
ENDBRANCH   1  23
TORSDOF 6
ENDMDL
MODEL 3
REMARK VINA RESULT:      -8.2      2.665      5.901
REMARK  6 active torsions:
REMARK  status: ('A' for Active; 'I' for Inactive)
REMARK    1  A    between atoms: C3_3  and  C4_4 
REMARK    2  A    between atoms: C11_12  and  C12_13 
REMARK    3  A    between atoms: C13_14  and  C14_15 
REMARK    4  A    between atoms: C14_15  and  C15_16 
REMARK    5  A    between atoms: C15_16  and  N1_17 
REMARK    6  A    between atoms: C20_23  and  O3_24 
ROOT
HETATM    1  C4  UNL     1      26.039  -0.881  54.065  1.00  0.00     0.011 C 
HETATM    2  C5  UNL     1      24.788  -0.387  54.074  1.00  0.00    -0.005 C 
HETATM    3  C6  UNL     1      24.052  -0.911  55.233  1.00  0.00     0.210 C 
HETATM    4  O1  UNL     1      22.891  -1.630  55.210  1.00  0.00    -0.372 OA
HETATM    5  C7  UNL     1      21.592  -1.172  54.839  1.00  0.00     0.102 A 
HETATM    6  C8  UNL     1      21.941  -0.199  54.047  1.00  0.00     0.035 A 
HETATM    7  C9  UNL     1      22.107   0.797  53.238  1.00  0.00     0.048 A 
HETATM    8  C10 UNL     1      22.073   1.746  52.468  1.00  0.00    -0.025 A 
HETATM    9  C11 UNL     1      21.077   0.805  53.240  1.00  0.00     0.008 A 
HETATM   10  C12 UNL     1      20.716  -0.279  54.121  1.00  0.00     0.036 A 
HETATM   11  C13 UNL     1      23.610   1.277  52.412  1.00  0.00     0.020 A 
HETATM   12  C20 UNL     1      24.677   0.532  52.916  1.00  0.00     0.061 C 
ENDROOT
BRANCH  11  13
HETATM   13  C14 UNL     1      23.852   2.121  51.187  1.00  0.00     0.047 C 
BRANCH  13  14
HETATM   14  C15 UNL     1      23.889   3.577  51.460  1.00  0.00     0.273 C 
BRANCH  14  15
HETATM   15  N1  UNL     1      24.918   4.256  50.707  1.00  0.00     0.092 N 
HETATM   16  C16 UNL     1      24.375   5.461  50.067  1.00  0.00     0.298 C 
HETATM   17  C17 UNL     1      25.300   5.888  48.925  1.00  0.00     0.198 C 
HETATM   18  O2  UNL     1      26.608   5.526  49.193  1.00  0.00    -0.388 OA
HETATM   19  C18 UNL     1      26.819   4.165  49.241  1.00  0.00     0.198 C 
HETATM   20  C19 UNL     1      25.528   3.496  49.665  1.00  0.00     0.298 C 
ENDBRANCH  14  15
ENDBRANCH  13  14
ENDBRANCH  11  13
BRANCH  12  21
HETATM   21  O3  UNL     1      25.764   0.784  52.110  1.00  0.00    -0.363 OA
HETATM   22  H25 UNL     1      26.301   0.011  51.690  1.00  0.00     0.217 HD
ENDBRANCH  12  21
BRANCH   1  23
HETATM   23  C3  UNL     1      27.224  -0.754  53.210  1.00  0.00    -0.004 C 
HETATM   24  C2  UNL     1      28.458  -0.730  53.680  1.00  0.00    -0.031 C 
HETATM   25  C1  UNL     1      29.891  -0.635  53.386  1.00  0.00     0.036 C 
ENDBRANCH   1  23
TORSDOF 6
ENDMDL
MODEL 4
REMARK VINA RESULT:      -8.1      2.526      7.000
REMARK  6 active torsions:
REMARK  status: ('A' for Active; 'I' for Inactive)
REMARK    1  A    between atoms: C3_3  and  C4_4 
REMARK    2  A    between atoms: C11_12  and  C12_13 
REMARK    3  A    between atoms: C13_14  and  C14_15 
REMARK    4  A    between atoms: C14_15  and  C15_16 
REMARK    5  A    between atoms: C15_16  and  N1_17 
REMARK    6  A    between atoms: C20_23  and  O3_24 
ROOT
HETATM    1  C4  UNL     1      23.432  -0.444  53.424  1.00  0.00     0.011 C 
HETATM    2  C5  UNL     1      24.703  -0.034  53.264  1.00  0.00    -0.005 C 
HETATM    3  C6  UNL     1      25.610  -0.910  54.019  1.00  0.00     0.210 C 
HETATM    4  O1  UNL     1      26.477  -0.537  55.006  1.00  0.00    -0.372 OA
HETATM    5  C7  UNL     1      27.661   0.247  54.871  1.00  0.00     0.102 A 
HETATM    6  C8  UNL     1      27.339   0.914  53.801  1.00  0.00     0.035 A 
HETATM    7  C9  UNL     1      27.186   1.658  52.752  1.00  0.00     0.048 A 
HETATM    8  C10 UNL     1      27.215   2.427  51.802  1.00  0.00    -0.025 A 
HETATM    9  C11 UNL     1      28.128   1.987  53.005  1.00  0.00     0.008 A 
HETATM   10  C12 UNL     1      28.460   1.237  54.191  1.00  0.00     0.036 A 
HETATM   11  C13 UNL     1      25.674   1.970  51.864  1.00  0.00     0.020 A 
HETATM   12  C20 UNL     1      24.670   1.126  52.340  1.00  0.00     0.061 C 
ENDROOT
BRANCH  11  13
HETATM   13  C14 UNL     1      25.279   3.077  50.920  1.00  0.00     0.047 C 
BRANCH  13  14
HETATM   14  C15 UNL     1      26.168   3.206  49.742  1.00  0.00     0.273 C 
BRANCH  14  15
HETATM   15  N1  UNL     1      26.073   4.504  49.116  1.00  0.00     0.092 N 
HETATM   16  C16 UNL     1      27.398   4.963  48.680  1.00  0.00     0.298 C 
HETATM   17  C17 UNL     1      27.366   6.478  48.471  1.00  0.00     0.198 C 
HETATM   18  O2  UNL     1      26.103   6.893  48.089  1.00  0.00    -0.388 OA
HETATM   19  C18 UNL     1      25.134   6.715  49.053  1.00  0.00     0.198 C 
HETATM   20  C19 UNL     1      25.541   5.548  49.929  1.00  0.00     0.298 C 
ENDBRANCH  14  15
ENDBRANCH  13  14
ENDBRANCH  11  13
BRANCH  12  21
HETATM   21  O3  UNL     1      23.486   1.547  51.779  1.00  0.00    -0.363 OA
HETATM   22  H25 UNL     1      23.226   1.269  50.822  1.00  0.00     0.217 HD
ENDBRANCH  12  21
BRANCH   1  23
HETATM   23  C3  UNL     1      22.111  -0.013  52.955  1.00  0.00    -0.004 C 
HETATM   24  C2  UNL     1      20.980  -0.535  53.392  1.00  0.00    -0.031 C 
HETATM   25  C1  UNL     1      19.515  -0.543  53.328  1.00  0.00     0.036 C 
ENDBRANCH   1  23
TORSDOF 6
ENDMDL
MODEL 5
REMARK VINA RESULT:      -8.0      2.489      6.099
REMARK  6 active torsions:
REMARK  status: ('A' for Active; 'I' for Inactive)
REMARK    1  A    between atoms: C3_3  and  C4_4 
REMARK    2  A    between atoms: C11_12  and  C12_13 
REMARK    3  A    between atoms: C13_14  and  C14_15 
REMARK    4  A    between atoms: C14_15  and  C15_16 
REMARK    5  A    between atoms: C15_16  and  N1_17 
REMARK    6  A    between atoms: C20_23  and  O3_24 
ROOT
HETATM    1  C4  UNL     1      26.201   1.468  53.316  1.00  0.00     0.011 C 
HETATM    2  C5  UNL     1      25.259   1.902  52.459  1.00  0.00    -0.005 C 
HETATM    3  C6  UNL     1      23.930   1.473  52.917  1.00  0.00     0.210 C 
HETATM    4  O1  UNL     1      23.036   0.703  52.230  1.00  0.00    -0.372 OA
HETATM    5  C7  UNL     1      22.302   1.059  51.059  1.00  0.00     0.102 A 
HETATM    6  C8  UNL     1      23.115   1.955  50.579  1.00  0.00     0.035 A 
HETATM    7  C9  UNL     1      23.799   2.865  49.963  1.00  0.00     0.048 A 
HETATM    8  C10 UNL     1      24.305   3.723  49.253  1.00  0.00    -0.025 A 
HETATM    9  C11 UNL     1      23.014   2.826  49.299  1.00  0.00     0.008 A 
HETATM   10  C12 UNL     1      22.131   1.828  49.851  1.00  0.00     0.036 A 
HETATM   11  C13 UNL     1      25.496   3.321  50.257  1.00  0.00     0.020 A 
HETATM   12  C20 UNL     1      25.956   2.685  51.411  1.00  0.00     0.061 C 
ENDROOT
BRANCH  11  13
HETATM   13  C14 UNL     1      26.502   4.039  49.394  1.00  0.00     0.047 C 
BRANCH  13  14
HETATM   14  C15 UNL     1      26.305   5.506  49.337  1.00  0.00     0.273 C 
BRANCH  14  15
HETATM   15  N1  UNL     1      27.193   6.147  48.395  1.00  0.00     0.092 N 
HETATM   16  C16 UNL     1      28.498   5.475  48.380  1.00  0.00     0.298 C 
HETATM   17  C17 UNL     1      29.543   6.413  47.773  1.00  0.00     0.198 C 
HETATM   18  O2  UNL     1      28.961   7.263  46.849  1.00  0.00    -0.388 OA
HETATM   19  C18 UNL     1      28.057   8.152  47.391  1.00  0.00     0.198 C 
HETATM   20  C19 UNL     1      27.461   7.527  48.636  1.00  0.00     0.298 C 
ENDBRANCH  14  15
ENDBRANCH  13  14
ENDBRANCH  11  13
BRANCH  12  21
HETATM   21  O3  UNL     1      27.315   2.897  51.476  1.00  0.00    -0.363 OA
HETATM   22  H25 UNL     1      27.701   3.692  52.006  1.00  0.00     0.217 HD
ENDBRANCH  12  21
BRANCH   1  23
HETATM   23  C3  UNL     1      27.661   1.556  53.422  1.00  0.00    -0.004 C 
HETATM   24  C2  UNL     1      28.446   0.499  53.520  1.00  0.00    -0.031 C 
HETATM   25  C1  UNL     1      29.812  -0.019  53.642  1.00  0.00     0.036 C 
ENDBRANCH   1  23
TORSDOF 6
ENDMDL
MODEL 6
REMARK VINA RESULT:      -7.7      2.462      5.407
REMARK  6 active torsions:
REMARK  status: ('A' for Active; 'I' for Inactive)
REMARK    1  A    between atoms: C3_3  and  C4_4 
REMARK    2  A    between atoms: C11_12  and  C12_13 
REMARK    3  A    between atoms: C13_14  and  C14_15 
REMARK    4  A    between atoms: C14_15  and  C15_16 
REMARK    5  A    between atoms: C15_16  and  N1_17 
REMARK    6  A    between atoms: C20_23  and  O3_24 
ROOT
HETATM    1  C4  UNL     1      19.905   0.382  52.730  1.00  0.00     0.011 C 
HETATM    2  C5  UNL     1      20.992   1.084  52.363  1.00  0.00    -0.005 C 
HETATM    3  C6  UNL     1      20.583   2.315  51.672  1.00  0.00     0.210 C 
HETATM    4  O1  UNL     1      20.921   2.692  50.403  1.00  0.00    -0.372 OA
HETATM    5  C7  UNL     1      22.207   3.084  49.927  1.00  0.00     0.102 A 
HETATM    6  C8  UNL     1      22.944   2.445  50.789  1.00  0.00     0.035 A 
HETATM    7  C9  UNL     1      23.821   1.882  51.557  1.00  0.00     0.048 A 
HETATM    8  C10 UNL     1      24.779   1.437  52.172  1.00  0.00    -0.025 A 
HETATM    9  C11 UNL     1      24.486   2.372  50.942  1.00  0.00     0.008 A 
HETATM   10  C12 UNL     1      23.648   3.069  49.998  1.00  0.00     0.036 A 
HETATM   11  C13 UNL     1      23.545   0.565  52.724  1.00  0.00     0.020 A 
HETATM   12  C20 UNL     1      22.175   0.337  52.855  1.00  0.00     0.061 C 
ENDROOT
BRANCH  11  13
HETATM   13  C14 UNL     1      24.491  -0.421  53.360  1.00  0.00     0.047 C 
BRANCH  13  14
HETATM   14  C15 UNL     1      25.739   0.190  53.874  1.00  0.00     0.273 C 
BRANCH  14  15
HETATM   15  N1  UNL     1      26.862  -0.717  53.823  1.00  0.00     0.092 N 
HETATM   16  C16 UNL     1      28.122   0.016  54.002  1.00  0.00     0.298 C 
HETATM   17  C17 UNL     1      29.281  -0.837  53.481  1.00  0.00     0.198 C 
HETATM   18  O2  UNL     1      28.998  -2.184  53.621  1.00  0.00    -0.388 OA
HETATM   19  C18 UNL     1      27.947  -2.624  52.846  1.00  0.00     0.198 C 
HETATM   20  C19 UNL     1      27.005  -1.461  52.615  1.00  0.00     0.298 C 
ENDBRANCH  14  15
ENDBRANCH  13  14
ENDBRANCH  11  13
BRANCH  12  21
HETATM   21  O3  UNL     1      22.024  -0.814  53.594  1.00  0.00    -0.363 OA
HETATM   22  H25 UNL     1      22.759  -1.124  54.247  1.00  0.00     0.217 HD
ENDBRANCH  12  21
BRANCH   1  23
HETATM   23  C3  UNL     1      19.642  -0.883  53.424  1.00  0.00    -0.004 C 
HETATM   24  C2  UNL     1      18.498  -1.536  53.334  1.00  0.00    -0.031 C 
HETATM   25  C1  UNL     1      17.707  -2.704  53.732  1.00  0.00     0.036 C 
ENDBRANCH   1  23
TORSDOF 6
ENDMDL
MODEL 7
REMARK VINA RESULT:      -7.6      2.749      6.255
REMARK  6 active torsions:
REMARK  status: ('A' for Active; 'I' for Inactive)
REMARK    1  A    between atoms: C3_3  and  C4_4 
REMARK    2  A    between atoms: C11_12  and  C12_13 
REMARK    3  A    between atoms: C13_14  and  C14_15 
REMARK    4  A    between atoms: C14_15  and  C15_16 
REMARK    5  A    between atoms: C15_16  and  N1_17 
REMARK    6  A    between atoms: C20_23  and  O3_24 
ROOT
HETATM    1  C4  UNL     1      26.744   2.868  50.577  1.00  0.00     0.011 C 
HETATM    2  C5  UNL     1      25.954   2.238  51.465  1.00  0.00    -0.005 C 
HETATM    3  C6  UNL     1      26.780   1.519  52.446  1.00  0.00     0.210 C 
HETATM    4  O1  UNL     1      26.757   0.180  52.711  1.00  0.00    -0.372 OA
HETATM    5  C7  UNL     1      25.714  -0.566  53.335  1.00  0.00     0.102 A 
HETATM    6  C8  UNL     1      24.708   0.201  53.026  1.00  0.00     0.035 A 
HETATM    7  C9  UNL     1      23.603   0.841  52.812  1.00  0.00     0.048 A 
HETATM    8  C10 UNL     1      22.477   1.306  52.709  1.00  0.00    -0.025 A 
HETATM    9  C11 UNL     1      23.198   0.068  53.358  1.00  0.00     0.008 A 
HETATM   10  C12 UNL     1      24.329  -0.765  53.686  1.00  0.00     0.036 A 
HETATM   11  C13 UNL     1      23.331   2.162  51.648  1.00  0.00     0.020 A 
HETATM   12  C20 UNL     1      24.553   2.569  51.111  1.00  0.00     0.061 C 
ENDROOT
BRANCH  11  13
HETATM   13  C14 UNL     1      22.069   2.702  51.026  1.00  0.00     0.047 C 
BRANCH  13  14
HETATM   14  C15 UNL     1      21.371   3.707  51.861  1.00  0.00     0.273 C 
BRANCH  14  15
HETATM   15  N1  UNL     1      21.102   4.932  51.145  1.00  0.00     0.092 N 
HETATM   16  C16 UNL     1      20.924   4.661  49.713  1.00  0.00     0.298 C 
HETATM   17  C17 UNL     1      21.119   5.958  48.925  1.00  0.00     0.198 C 
HETATM   18  O2  UNL     1      20.746   7.053  49.684  1.00  0.00    -0.388 OA
HETATM   19  C18 UNL     1      21.538   7.268  50.791  1.00  0.00     0.198 C 
HETATM   20  C19 UNL     1      22.110   5.937  51.235  1.00  0.00     0.298 C 
ENDBRANCH  14  15
ENDBRANCH  13  14
ENDBRANCH  11  13
BRANCH  12  21
HETATM   21  O3  UNL     1      24.274   3.432  50.075  1.00  0.00    -0.363 OA
HETATM   22  H25 UNL     1      24.225   3.093  49.103  1.00  0.00     0.217 HD
ENDBRANCH  12  21
BRANCH   1  23
HETATM   23  C3  UNL     1      26.546   3.719  49.399  1.00  0.00    -0.004 C 
HETATM   24  C2  UNL     1      27.281   4.787  49.144  1.00  0.00    -0.031 C 
HETATM   25  C1  UNL     1      27.553   5.914  48.248  1.00  0.00     0.036 C 
ENDBRANCH   1  23
TORSDOF 6
ENDMDL
MODEL 8
REMARK VINA RESULT:      -7.5      2.746      6.215
REMARK  6 active torsions:
REMARK  status: ('A' for Active; 'I' for Inactive)
REMARK    1  A    between atoms: C3_3  and  C4_4 
REMARK    2  A    between atoms: C11_12  and  C12_13 
REMARK    3  A    between atoms: C13_14  and  C14_15 
REMARK    4  A    between atoms: C14_15  and  C15_16 
REMARK    5  A    between atoms: C15_16  and  N1_17 
REMARK    6  A    between atoms: C20_23  and  O3_24 
ROOT
HETATM    1  C4  UNL     1      26.621   3.223  50.516  1.00  0.00     0.011 C 
HETATM    2  C5  UNL     1      26.074   2.414  51.442  1.00  0.00    -0.005 C 
HETATM    3  C6  UNL     1      27.122   1.890  52.329  1.00  0.00     0.210 C 
HETATM    4  O1  UNL     1      27.429   0.578  52.549  1.00  0.00    -0.372 OA
HETATM    5  C7  UNL     1      26.640  -0.397  53.228  1.00  0.00     0.102 A 
HETATM    6  C8  UNL     1      25.463   0.122  53.026  1.00  0.00     0.035 A 
HETATM    7  C9  UNL     1      24.227   0.494  52.922  1.00  0.00     0.048 A 
HETATM    8  C10 UNL     1      23.020   0.689  52.925  1.00  0.00    -0.025 A 
HETATM    9  C11 UNL     1      24.057  -0.360  53.472  1.00  0.00     0.008 A 
HETATM   10  C12 UNL     1      25.372  -0.915  53.680  1.00  0.00     0.036 A 
HETATM   11  C13 UNL     1      23.563   1.734  51.829  1.00  0.00     0.020 A 
HETATM   12  C20 UNL     1      24.610   2.419  51.211  1.00  0.00     0.061 C 
ENDROOT
BRANCH  11  13
HETATM   13  C14 UNL     1      22.163   1.977  51.328  1.00  0.00     0.047 C 
BRANCH  13  14
HETATM   14  C15 UNL     1      21.535   0.791  50.700  1.00  0.00     0.273 C 
BRANCH  14  15
HETATM   15  N1  UNL     1      20.093   0.840  50.742  1.00  0.00     0.092 N 
HETATM   16  C16 UNL     1      19.630   2.223  50.914  1.00  0.00     0.298 C 
HETATM   17  C17 UNL     1      18.189   2.215  51.427  1.00  0.00     0.198 C 
HETATM   18  O2  UNL     1      17.516   1.094  50.977  1.00  0.00    -0.388 OA
HETATM   19  C18 UNL     1      18.004  -0.096  51.473  1.00  0.00     0.198 C 
HETATM   20  C19 UNL     1      19.476   0.085  51.783  1.00  0.00     0.298 C 
ENDBRANCH  14  15
ENDBRANCH  13  14
ENDBRANCH  11  13
BRANCH  12  21
HETATM   21  O3  UNL     1      24.054   3.210  50.231  1.00  0.00    -0.363 OA
HETATM   22  H25 UNL     1      23.059   3.477  50.268  1.00  0.00     0.217 HD
ENDBRANCH  12  21
BRANCH   1  23
HETATM   23  C3  UNL     1      26.135   4.023  49.387  1.00  0.00    -0.004 C 
HETATM   24  C2  UNL     1      26.544   5.254  49.141  1.00  0.00    -0.031 C 
HETATM   25  C1  UNL     1      26.454   6.438  48.282  1.00  0.00     0.036 C 
ENDBRANCH   1  23
TORSDOF 6
ENDMDL
MODEL 9
REMARK VINA RESULT:      -7.5      2.863      7.410
REMARK  6 active torsions:
REMARK  status: ('A' for Active; 'I' for Inactive)
REMARK    1  A    between atoms: C3_3  and  C4_4 
REMARK    2  A    between atoms: C11_12  and  C12_13 
REMARK    3  A    between atoms: C13_14  and  C14_15 
REMARK    4  A    between atoms: C14_15  and  C15_16 
REMARK    5  A    between atoms: C15_16  and  N1_17 
REMARK    6  A    between atoms: C20_23  and  O3_24 
ROOT
HETATM    1  C4  UNL     1      23.473  -0.672  54.149  1.00  0.00     0.011 C 
HETATM    2  C5  UNL     1      24.581  -0.134  53.607  1.00  0.00    -0.005 C 
HETATM    3  C6  UNL     1      25.752  -0.956  53.944  1.00  0.00     0.210 C 
HETATM    4  O1  UNL     1      26.872  -0.551  54.612  1.00  0.00    -0.372 OA
HETATM    5  C7  UNL     1      27.879   0.349  54.153  1.00  0.00     0.102 A 
HETATM    6  C8  UNL     1      27.166   1.034  53.307  1.00  0.00     0.035 A 
HETATM    7  C9  UNL     1      26.612   1.811  52.432  1.00  0.00     0.048 A 
HETATM    8  C10 UNL     1      26.260   2.626  51.591  1.00  0.00    -0.025 A 
HETATM    9  C11 UNL     1      27.556   2.216  52.382  1.00  0.00     0.008 A 
HETATM   10  C12 UNL     1      28.325   1.443  53.326  1.00  0.00     0.036 A 
HETATM   11  C13 UNL     1      24.869   2.020  52.127  1.00  0.00     0.020 A 
HETATM   12  C20 UNL     1      24.152   1.061  52.842  1.00  0.00     0.061 C 
ENDROOT
BRANCH  11  13
HETATM   13  C14 UNL     1      24.098   3.131  51.460  1.00  0.00     0.047 C 
BRANCH  13  14
HETATM   14  C15 UNL     1      24.084   3.047  49.981  1.00  0.00     0.273 C 
BRANCH  14  15
HETATM   15  N1  UNL     1      22.746   3.071  49.437  1.00  0.00     0.092 N 
HETATM   16  C16 UNL     1      21.847   3.828  50.318  1.00  0.00     0.298 C 
HETATM   17  C17 UNL     1      20.398   3.452  50.005  1.00  0.00     0.198 C 
HETATM   18  O2  UNL     1      20.261   3.098  48.675  1.00  0.00    -0.388 OA
HETATM   19  C18 UNL     1      20.937   1.949  48.324  1.00  0.00     0.198 C 
HETATM   20  C19 UNL     1      22.131   1.799  49.243  1.00  0.00     0.298 C 
ENDBRANCH  14  15
ENDBRANCH  13  14
ENDBRANCH  11  13
BRANCH  12  21
HETATM   21  O3  UNL     1      22.820   1.394  52.744  1.00  0.00    -0.363 OA
HETATM   22  H25 UNL     1      22.133   1.034  53.422  1.00  0.00     0.217 HD
ENDBRANCH  12  21
BRANCH   1  23
HETATM   23  C3  UNL     1      22.043  -0.347  54.183  1.00  0.00    -0.004 C 
HETATM   24  C2  UNL     1      21.091  -1.237  53.969  1.00  0.00    -0.031 C 
HETATM   25  C1  UNL     1      19.655  -1.512  53.874  1.00  0.00     0.036 C 
ENDBRANCH   1  23
TORSDOF 6
ENDMDL
