MODEL 1
REMARK VINA RESULT:      -8.7      0.000      0.000
REMARK  5 active torsions:
REMARK  status: ('A' for Active; 'I' for Inactive)
REMARK    1  A    between atoms: N1_8  and  C7_9 
REMARK    2  A    between atoms: C12_16  and  C13_17 
REMARK    3  A    between atoms: C13_17  and  C14_19 
REMARK    4  A    between atoms: C14_19  and  O2_20 
REMARK    5  A    between atoms: O2_20  and  C15_21 
ROOT
HETATM    1  C7  UNL     1      20.899   1.307  51.626  1.00  0.00     0.112 C 
HETATM    2  N2  UNL     1      19.907   0.441  51.591  1.00  0.00    -0.228 NA
HETATM    3  C8  UNL     1      19.527  -0.323  52.752  1.00  0.00     0.234 C 
HETATM    4  N3  UNL     1      19.720  -1.071  53.812  1.00  0.00    -0.254 NA
HETATM    5  C9  UNL     1      21.066  -1.456  54.183  1.00  0.00     0.118 C 
HETATM    6  C10 UNL     1      22.365  -1.222  54.199  1.00  0.00     0.020 C 
HETATM    7  C11 UNL     1      23.192  -0.154  53.698  1.00  0.00     0.013 C 
HETATM    8  C12 UNL     1      22.915   0.972  53.063  1.00  0.00    -0.003 C 
HETATM    9  C21 UNL     1      21.493   1.331  52.973  1.00  0.00     0.121 C 
ENDROOT
BRANCH   8  10
HETATM   10  C13 UNL     1      23.899   1.969  52.592  1.00  0.00     0.179 C 
HETATM   11  O1  UNL     1      23.740   3.184  52.858  1.00  0.00    -0.290 OA
BRANCH  10  12
HETATM   12  C14 UNL     1      25.040   1.422  51.813  1.00  0.00     0.259 C 
BRANCH  12  13
HETATM   13  O2  UNL     1      26.224   1.886  52.361  1.00  0.00    -0.344 OA
BRANCH  13  14
HETATM   14  C15 UNL     1      27.307   1.159  52.804  1.00  0.00     0.069 A 
HETATM   15  C16 UNL     1      27.036  -0.206  52.642  1.00  0.00     0.040 A 
HETATM   16  C17 UNL     1      27.977  -1.174  53.014  1.00  0.00     0.045 A 
HETATM   17  C18 UNL     1      29.188  -0.798  53.549  1.00  0.00     0.116 A 
HETATM   18  F1  UNL     1      30.149  -1.674  53.934  1.00  0.00    -0.206 F 
HETATM   19  C19 UNL     1      29.436   0.547  53.700  1.00  0.00     0.045 A 
HETATM   20  C20 UNL     1      28.526   1.511  53.341  1.00  0.00     0.040 A 
ENDBRANCH  13  14
ENDBRANCH  12  13
ENDBRANCH  10  12
ENDBRANCH   8  10
BRANCH   1  21
HETATM   21  N1  UNL     1      21.236   2.034  50.465  1.00  0.00    -0.334 N 
HETATM   22  C2  UNL     1      21.176   3.451  50.216  1.00  0.00     0.027 A 
HETATM   23  C1  UNL     1      20.668   4.224  51.361  1.00  0.00     0.070 C 
HETATM   24  C3  UNL     1      21.567   3.907  49.037  1.00  0.00     0.033 A 
HETATM   25 BR1  UNL     1      21.480   5.766  48.748  1.00  0.00    -0.049 Br
HETATM   26  C4  UNL     1      22.047   3.021  47.984  1.00  0.00     0.019 A 
HETATM   27  C5  UNL     1      22.085   1.727  48.234  1.00  0.00    -0.005 A 
HETATM   28  C6  UNL     1      21.688   1.039  49.490  1.00  0.00     0.157 A 
ENDBRANCH   1  21
TORSDOF 5
ENDMDL
MODEL 2
REMARK VINA RESULT:      -8.3      2.924      3.669
REMARK  5 active torsions:
REMARK  status: ('A' for Active; 'I' for Inactive)
REMARK    1  A    between atoms: N1_8  and  C7_9 
REMARK    2  A    between atoms: C12_16  and  C13_17 
REMARK    3  A    between atoms: C13_17  and  C14_19 
REMARK    4  A    between atoms: C14_19  and  O2_20 
REMARK    5  A    between atoms: O2_20  and  C15_21 
ROOT
HETATM    1  C7  UNL     1      20.691   1.222  51.620  1.00  0.00     0.112 C 
HETATM    2  N2  UNL     1      19.770   0.280  51.586  1.00  0.00    -0.228 NA
HETATM    3  C8  UNL     1      19.439  -0.499  52.752  1.00  0.00     0.234 C 
HETATM    4  N3  UNL     1      19.680  -1.219  53.822  1.00  0.00    -0.254 NA
HETATM    5  C9  UNL     1      21.049  -1.494  54.209  1.00  0.00     0.118 C 
HETATM    6  C10 UNL     1      22.325  -1.159  54.234  1.00  0.00     0.020 C 
HETATM    7  C11 UNL     1      23.070  -0.035  53.728  1.00  0.00     0.013 C 
HETATM    8  C12 UNL     1      22.713   1.060  53.079  1.00  0.00    -0.003 C 
HETATM    9  C21 UNL     1      21.268   1.306  52.973  1.00  0.00     0.121 C 
ENDROOT
BRANCH   8  10
HETATM   10  C13 UNL     1      23.621   2.126  52.606  1.00  0.00     0.179 C 
HETATM   11  O1  UNL     1      23.535   3.282  53.083  1.00  0.00    -0.290 OA
BRANCH  10  12
HETATM   12  C14 UNL     1      24.598   1.717  51.564  1.00  0.00     0.259 C 
BRANCH  12  13
HETATM   13  O2  UNL     1      24.424   2.513  50.444  1.00  0.00    -0.344 OA
BRANCH  13  14
HETATM   14  C15 UNL     1      25.315   3.393  49.870  1.00  0.00     0.069 A 
HETATM   15  C16 UNL     1      24.656   4.602  49.611  1.00  0.00     0.040 A 
HETATM   16  C17 UNL     1      25.336   5.678  49.025  1.00  0.00     0.045 A 
HETATM   17  C18 UNL     1      26.666   5.564  48.694  1.00  0.00     0.116 A 
HETATM   18  F1  UNL     1      27.392   6.558  48.124  1.00  0.00    -0.206 F 
HETATM   19  C19 UNL     1      27.296   4.369  48.957  1.00  0.00     0.045 A 
HETATM   20  C20 UNL     1      26.647   3.303  49.530  1.00  0.00     0.040 A 
ENDBRANCH  13  14
ENDBRANCH  12  13
ENDBRANCH  10  12
ENDBRANCH   8  10
BRANCH   1  21
HETATM   21  N1  UNL     1      20.981   1.960  50.455  1.00  0.00    -0.334 N 
HETATM   22  C2  UNL     1      20.862   3.374  50.207  1.00  0.00     0.027 A 
HETATM   23  C1  UNL     1      20.342   4.127  51.361  1.00  0.00     0.070 C 
HETATM   24  C3  UNL     1      21.217   3.845  49.022  1.00  0.00     0.033 A 
HETATM   25 BR1  UNL     1      21.053   5.699  48.735  1.00  0.00    -0.049 Br
HETATM   26  C4  UNL     1      21.715   2.977  47.962  1.00  0.00     0.019 A 
HETATM   27  C5  UNL     1      21.807   1.686  48.211  1.00  0.00    -0.005 A 
HETATM   28  C6  UNL     1      21.456   0.983  49.473  1.00  0.00     0.157 A 
ENDBRANCH   1  21
TORSDOF 5
ENDMDL
MODEL 3
REMARK VINA RESULT:      -8.1      4.056      6.880
REMARK  5 active torsions:
REMARK  status: ('A' for Active; 'I' for Inactive)
REMARK    1  A    between atoms: N1_8  and  C7_9 
REMARK    2  A    between atoms: C12_16  and  C13_17 
REMARK    3  A    between atoms: C13_17  and  C14_19 
REMARK    4  A    between atoms: C14_19  and  O2_20 
REMARK    5  A    between atoms: O2_20  and  C15_21 
ROOT
HETATM    1  C7  UNL     1      25.080   1.962  52.642  1.00  0.00     0.112 C 
HETATM    2  N2  UNL     1      25.989   1.880  53.592  1.00  0.00    -0.228 NA
HETATM    3  C8  UNL     1      26.313   0.626  54.223  1.00  0.00     0.234 C 
HETATM    4  N3  UNL     1      26.066  -0.527  54.801  1.00  0.00    -0.254 NA
HETATM    5  C9  UNL     1      24.695  -0.945  55.008  1.00  0.00     0.118 C 
HETATM    6  C10 UNL     1      23.424  -0.930  54.656  1.00  0.00     0.020 C 
HETATM    7  C11 UNL     1      22.691  -0.288  53.596  1.00  0.00     0.013 C 
HETATM    8  C12 UNL     1      23.060   0.493  52.595  1.00  0.00    -0.003 C 
HETATM    9  C21 UNL     1      24.508   0.630  52.382  1.00  0.00     0.121 C 
ENDROOT
BRANCH   8  10
HETATM   10  C13 UNL     1      22.164   1.095  51.585  1.00  0.00     0.179 C 
HETATM   11  O1  UNL     1      22.502   1.116  50.378  1.00  0.00    -0.290 OA
BRANCH  10  12
HETATM   12  C14 UNL     1      20.887   1.644  52.110  1.00  0.00     0.259 C 
BRANCH  12  13
HETATM   13  O2  UNL     1      19.831   1.038  51.451  1.00  0.00    -0.344 OA
BRANCH  13  14
HETATM   14  C15 UNL     1      18.917   0.133  51.944  1.00  0.00     0.069 A 
HETATM   15  C16 UNL     1      17.801   0.107  51.098  1.00  0.00     0.040 A 
HETATM   16  C17 UNL     1      16.714  -0.735  51.368  1.00  0.00     0.045 A 
HETATM   17  C18 UNL     1      16.727  -1.554  52.474  1.00  0.00     0.116 A 
HETATM   18  F1  UNL     1      15.715  -2.395  52.803  1.00  0.00    -0.206 F 
HETATM   19  C19 UNL     1      17.832  -1.515  53.293  1.00  0.00     0.045 A 
HETATM   20  C20 UNL     1      18.906  -0.696  53.044  1.00  0.00     0.040 A 
ENDBRANCH  13  14
ENDBRANCH  12  13
ENDBRANCH  10  12
ENDBRANCH   8  10
BRANCH   1  21
HETATM   21  N1  UNL     1      24.796   3.211  52.051  1.00  0.00    -0.334 N 
HETATM   22  C2  UNL     1      25.312   3.795  50.840  1.00  0.00     0.027 A 
HETATM   23  C1  UNL     1      26.291   2.939  50.149  1.00  0.00     0.070 C 
HETATM   24  C3  UNL     1      24.877   4.990  50.474  1.00  0.00     0.033 A 
HETATM   25 BR1  UNL     1      25.568   5.721  48.882  1.00  0.00    -0.049 Br
HETATM   26  C4  UNL     1      23.902   5.734  51.262  1.00  0.00     0.019 A 
HETATM   27  C5  UNL     1      23.451   5.181  52.371  1.00  0.00    -0.005 A 
HETATM   28  C6  UNL     1      23.823   3.857  52.935  1.00  0.00     0.157 A 
ENDBRANCH   1  21
TORSDOF 5
ENDMDL
MODEL 4
REMARK VINA RESULT:      -8.1      2.999      4.986
REMARK  5 active torsions:
REMARK  status: ('A' for Active; 'I' for Inactive)
REMARK    1  A    between atoms: N1_8  and  C7_9 
REMARK    2  A    between atoms: C12_16  and  C13_17 
REMARK    3  A    between atoms: C13_17  and  C14_19 
REMARK    4  A    between atoms: C14_19  and  O2_20 
REMARK    5  A    between atoms: O2_20  and  C15_21 
ROOT
HETATM    1  C7  UNL     1      22.209   4.427  50.577  1.00  0.00     0.112 C 
HETATM    2  N2  UNL     1      21.459   5.331  51.174  1.00  0.00    -0.228 NA
HETATM    3  C8  UNL     1      21.594   6.737  50.888  1.00  0.00     0.234 C 
HETATM    4  N3  UNL     1      22.235   7.864  50.688  1.00  0.00    -0.254 NA
HETATM    5  C9  UNL     1      23.681   7.892  50.766  1.00  0.00     0.118 C 
HETATM    6  C10 UNL     1      24.849   7.290  50.646  1.00  0.00     0.020 C 
HETATM    7  C11 UNL     1      25.251   5.958  50.274  1.00  0.00     0.013 C 
HETATM    8  C12 UNL     1      24.571   4.886  49.903  1.00  0.00    -0.003 C 
HETATM    9  C21 UNL     1      23.138   5.088  49.644  1.00  0.00     0.121 C 
ENDROOT
BRANCH   8  10
HETATM   10  C13 UNL     1      25.143   3.565  49.567  1.00  0.00     0.179 C 
HETATM   11  O1  UNL     1      24.644   2.881  48.642  1.00  0.00    -0.290 OA
BRANCH  10  12
HETATM   12  C14 UNL     1      26.309   3.148  50.387  1.00  0.00     0.259 C 
BRANCH  12  13
HETATM   13  O2  UNL     1      26.081   1.874  50.880  1.00  0.00    -0.344 OA
BRANCH  13  14
HETATM   14  C15 UNL     1      26.749   1.211  51.886  1.00  0.00     0.069 A 
HETATM   15  C16 UNL     1      27.492   2.140  52.627  1.00  0.00     0.040 A 
HETATM   16  C17 UNL     1      28.269   1.730  53.718  1.00  0.00     0.045 A 
HETATM   17  C18 UNL     1      28.317   0.404  54.080  1.00  0.00     0.116 A 
HETATM   18  F1  UNL     1      29.045  -0.070  55.121  1.00  0.00    -0.206 F 
HETATM   19  C19 UNL     1      27.580  -0.493  53.340  1.00  0.00     0.045 A 
HETATM   20  C20 UNL     1      26.812  -0.111  52.268  1.00  0.00     0.040 A 
ENDBRANCH  13  14
ENDBRANCH  12  13
ENDBRANCH  10  12
ENDBRANCH   8  10
BRANCH   1  21
HETATM   21  N1  UNL     1      22.041   3.062  50.887  1.00  0.00    -0.334 N 
HETATM   22  C2  UNL     1      22.618   2.282  51.952  1.00  0.00     0.027 A 
HETATM   23  C1  UNL     1      23.525   3.054  52.816  1.00  0.00     0.070 C 
HETATM   24  C3  UNL     1      22.292   1.003  52.051  1.00  0.00     0.033 A 
HETATM   25 BR1  UNL     1      23.061   0.014  53.458  1.00  0.00    -0.049 Br
HETATM   26  C4  UNL     1      21.378   0.361  51.115  1.00  0.00     0.019 A 
HETATM   27  C5  UNL     1      20.870   1.095  50.145  1.00  0.00    -0.005 A 
HETATM   28  C6  UNL     1      21.120   2.536  49.878  1.00  0.00     0.157 A 
ENDBRANCH   1  21
TORSDOF 5
ENDMDL
MODEL 5
REMARK VINA RESULT:      -7.8      3.325      5.440
REMARK  5 active torsions:
REMARK  status: ('A' for Active; 'I' for Inactive)
REMARK    1  A    between atoms: N1_8  and  C7_9 
REMARK    2  A    between atoms: C12_16  and  C13_17 
REMARK    3  A    between atoms: C13_17  and  C14_19 
REMARK    4  A    between atoms: C14_19  and  O2_20 
REMARK    5  A    between atoms: O2_20  and  C15_21 
ROOT
HETATM    1  C7  UNL     1      24.425   3.821  49.906  1.00  0.00     0.112 C 
HETATM    2  N2  UNL     1      25.733   3.968  49.837  1.00  0.00    -0.228 NA
HETATM    3  C8  UNL     1      26.633   3.049  50.485  1.00  0.00     0.234 C 
HETATM    4  N3  UNL     1      27.089   2.307  51.466  1.00  0.00    -0.254 NA
HETATM    5  C9  UNL     1      26.384   2.276  52.730  1.00  0.00     0.118 C 
HETATM    6  C10 UNL     1      25.267   2.383  53.426  1.00  0.00     0.020 C 
HETATM    7  C11 UNL     1      23.897   2.656  53.076  1.00  0.00     0.013 C 
HETATM    8  C12 UNL     1      23.292   2.871  51.919  1.00  0.00    -0.003 C 
HETATM    9  C21 UNL     1      24.099   2.634  50.714  1.00  0.00     0.121 C 
ENDROOT
BRANCH   8  10
HETATM   10  C13 UNL     1      21.855   3.159  51.730  1.00  0.00     0.179 C 
HETATM   11  O1  UNL     1      21.351   4.196  52.224  1.00  0.00    -0.290 OA
BRANCH  10  12
HETATM   12  C14 UNL     1      21.101   2.155  50.937  1.00  0.00     0.259 C 
BRANCH  12  13
HETATM   13  O2  UNL     1      20.416   1.318  51.802  1.00  0.00    -0.344 OA
BRANCH  13  14
HETATM   14  C15 UNL     1      20.914   0.569  52.845  1.00  0.00     0.069 A 
HETATM   15  C16 UNL     1      21.822  -0.369  52.338  1.00  0.00     0.040 A 
HETATM   16  C17 UNL     1      22.481  -1.265  53.192  1.00  0.00     0.045 A 
HETATM   17  C18 UNL     1      22.244  -1.236  54.546  1.00  0.00     0.116 A 
HETATM   18  F1  UNL     1      22.840  -2.069  55.435  1.00  0.00    -0.206 F 
HETATM   19  C19 UNL     1      21.349  -0.307  55.026  1.00  0.00     0.045 A 
HETATM   20  C20 UNL     1      20.694   0.578  54.205  1.00  0.00     0.040 A 
ENDBRANCH  13  14
ENDBRANCH  12  13
ENDBRANCH  10  12
ENDBRANCH   8  10
BRANCH   1  21
HETATM   21  N1  UNL     1      23.581   4.744  49.254  1.00  0.00    -0.334 N 
HETATM   22  C2  UNL     1      22.624   4.531  48.199  1.00  0.00     0.027 A 
HETATM   23  C1  UNL     1      22.553   3.131  47.749  1.00  0.00     0.070 C 
HETATM   24  C3  UNL     1      21.926   5.563  47.755  1.00  0.00     0.033 A 
HETATM   25 BR1  UNL     1      20.679   5.247  46.380  1.00  0.00    -0.049 Br
HETATM   26  C4  UNL     1      22.102   6.906  48.293  1.00  0.00     0.019 A 
HETATM   27  C5  UNL     1      22.991   7.077  49.253  1.00  0.00    -0.005 A 
HETATM   28  C6  UNL     1      23.860   6.042  49.871  1.00  0.00     0.157 A 
ENDBRANCH   1  21
TORSDOF 5
ENDMDL
MODEL 6
REMARK VINA RESULT:      -7.6      4.037      4.977
REMARK  5 active torsions:
REMARK  status: ('A' for Active; 'I' for Inactive)
REMARK    1  A    between atoms: N1_8  and  C7_9 
REMARK    2  A    between atoms: C12_16  and  C13_17 
REMARK    3  A    between atoms: C13_17  and  C14_19 
REMARK    4  A    between atoms: C14_19  and  O2_20 
REMARK    5  A    between atoms: O2_20  and  C15_21 
ROOT
HETATM    1  C7  UNL     1      22.430   1.268  52.017  1.00  0.00     0.112 C 
HETATM    2  N2  UNL     1      22.158   0.077  52.511  1.00  0.00    -0.228 NA
HETATM    3  C8  UNL     1      22.957  -0.510  53.557  1.00  0.00     0.234 C 
HETATM    4  N3  UNL     1      24.064  -0.862  54.167  1.00  0.00    -0.254 NA
HETATM    5  C9  UNL     1      25.345  -0.552  53.565  1.00  0.00     0.118 C 
HETATM    6  C10 UNL     1      26.097   0.208  52.792  1.00  0.00     0.020 C 
HETATM    7  C11 UNL     1      25.846   1.392  52.011  1.00  0.00     0.013 C 
HETATM    8  C12 UNL     1      24.767   2.132  51.824  1.00  0.00    -0.003 C 
HETATM    9  C21 UNL     1      23.617   1.826  52.688  1.00  0.00     0.121 C 
ENDROOT
BRANCH   8  10
HETATM   10  C13 UNL     1      24.670   3.327  50.960  1.00  0.00     0.179 C 
HETATM   11  O1  UNL     1      24.010   4.324  51.338  1.00  0.00    -0.290 OA
BRANCH  10  12
HETATM   12  C14 UNL     1      25.394   3.240  49.666  1.00  0.00     0.259 C 
BRANCH  12  13
HETATM   13  O2  UNL     1      26.612   3.888  49.785  1.00  0.00    -0.344 OA
BRANCH  13  14
HETATM   14  C15 UNL     1      27.095   4.947  49.049  1.00  0.00     0.069 A 
HETATM   15  C16 UNL     1      26.079   5.900  48.903  1.00  0.00     0.040 A 
HETATM   16  C17 UNL     1      26.305   7.087  48.192  1.00  0.00     0.045 A 
HETATM   17  C18 UNL     1      27.533   7.335  47.625  1.00  0.00     0.116 A 
HETATM   18  F1  UNL     1      27.829   8.457  46.922  1.00  0.00    -0.206 F 
HETATM   19  C19 UNL     1      28.519   6.387  47.780  1.00  0.00     0.045 A 
HETATM   20  C20 UNL     1      28.316   5.219  48.472  1.00  0.00     0.040 A 
ENDBRANCH  13  14
ENDBRANCH  12  13
ENDBRANCH  10  12
ENDBRANCH   8  10
BRANCH   1  21
HETATM   21  N1  UNL     1      21.620   1.804  50.995  1.00  0.00    -0.334 N 
HETATM   22  C2  UNL     1      20.704   2.915  51.033  1.00  0.00     0.027 A 
HETATM   23  C1  UNL     1      20.614   3.552  52.358  1.00  0.00     0.070 C 
HETATM   24  C3  UNL     1      20.059   3.247  49.927  1.00  0.00     0.033 A 
HETATM   25 BR1  UNL     1      18.874   4.707  50.012  1.00  0.00    -0.049 Br
HETATM   26  C4  UNL     1      20.242   2.520  48.676  1.00  0.00     0.019 A 
HETATM   27  C5  UNL     1      21.080   1.502  48.669  1.00  0.00    -0.005 A 
HETATM   28  C6  UNL     1      21.885   0.988  49.808  1.00  0.00     0.157 A 
ENDBRANCH   1  21
TORSDOF 5
ENDMDL
MODEL 7
REMARK VINA RESULT:      -7.6      4.049      6.955
REMARK  5 active torsions:
REMARK  status: ('A' for Active; 'I' for Inactive)
REMARK    1  A    between atoms: N1_8  and  C7_9 
REMARK    2  A    between atoms: C12_16  and  C13_17 
REMARK    3  A    between atoms: C13_17  and  C14_19 
REMARK    4  A    between atoms: C14_19  and  O2_20 
REMARK    5  A    between atoms: O2_20  and  C15_21 
ROOT
HETATM    1  C7  UNL     1      23.646   2.099  51.602  1.00  0.00     0.112 C 
HETATM    2  N2  UNL     1      24.834   1.707  52.017  1.00  0.00    -0.228 NA
HETATM    3  C8  UNL     1      25.060   0.377  52.522  1.00  0.00     0.234 C 
HETATM    4  N3  UNL     1      24.810  -0.692  53.241  1.00  0.00    -0.254 NA
HETATM    5  C9  UNL     1      23.645  -0.722  54.102  1.00  0.00     0.118 C 
HETATM    6  C10 UNL     1      22.419  -0.330  54.388  1.00  0.00     0.020 C 
HETATM    7  C11 UNL     1      21.479   0.554  53.748  1.00  0.00     0.013 C 
HETATM    8  C12 UNL     1      21.529   1.260  52.631  1.00  0.00    -0.003 C 
HETATM    9  C21 UNL     1      22.679   0.998  51.752  1.00  0.00     0.121 C 
ENDROOT
BRANCH   8  10
HETATM   10  C13 UNL     1      20.467   2.148  52.114  1.00  0.00     0.179 C 
HETATM   11  O1  UNL     1      20.167   3.196  52.734  1.00  0.00    -0.290 OA
BRANCH  10  12
HETATM   12  C14 UNL     1      19.821   1.704  50.852  1.00  0.00     0.259 C 
BRANCH  12  13
HETATM   13  O2  UNL     1      19.464   0.372  50.972  1.00  0.00    -0.344 OA
BRANCH  13  14
HETATM   14  C15 UNL     1      18.215  -0.165  51.192  1.00  0.00     0.069 A 
HETATM   15  C16 UNL     1      18.182  -0.729  52.474  1.00  0.00     0.040 A 
HETATM   16  C17 UNL     1      17.020  -1.346  52.957  1.00  0.00     0.045 A 
HETATM   17  C18 UNL     1      15.890  -1.409  52.176  1.00  0.00     0.116 A 
HETATM   18  F1  UNL     1      14.729  -1.990  52.571  1.00  0.00    -0.206 F 
HETATM   19  C19 UNL     1      15.941  -0.850  50.920  1.00  0.00     0.045 A 
HETATM   20  C20 UNL     1      17.070  -0.240  50.429  1.00  0.00     0.040 A 
ENDBRANCH  13  14
ENDBRANCH  12  13
ENDBRANCH  10  12
ENDBRANCH   8  10
BRANCH   1  21
HETATM   21  N1  UNL     1      23.472   3.410  51.114  1.00  0.00    -0.334 N 
HETATM   22  C2  UNL     1      23.209   3.866  49.772  1.00  0.00     0.027 A 
HETATM   23  C1  UNL     1      23.133   2.773  48.789  1.00  0.00     0.070 C 
HETATM   24  C3  UNL     1      23.065   5.163  49.558  1.00  0.00     0.033 A 
HETATM   25 BR1  UNL     1      22.717   5.723  47.794  1.00  0.00    -0.049 Br
HETATM   26  C4  UNL     1      23.170   6.142  50.633  1.00  0.00     0.019 A 
HETATM   27  C5  UNL     1      23.419   5.700  51.851  1.00  0.00    -0.005 A 
HETATM   28  C6  UNL     1      23.611   4.289  52.276  1.00  0.00     0.157 A 
ENDBRANCH   1  21
TORSDOF 5
ENDMDL
MODEL 8
REMARK VINA RESULT:      -7.5      9.459     12.196
REMARK  5 active torsions:
REMARK  status: ('A' for Active; 'I' for Inactive)
REMARK    1  A    between atoms: N1_8  and  C7_9 
REMARK    2  A    between atoms: C12_16  and  C13_17 
REMARK    3  A    between atoms: C13_17  and  C14_19 
REMARK    4  A    between atoms: C14_19  and  O2_20 
REMARK    5  A    between atoms: O2_20  and  C15_21 
ROOT
HETATM    1  C7  UNL     1      32.843   8.124  47.073  1.00  0.00     0.112 C 
HETATM    2  N2  UNL     1      33.135   9.286  46.525  1.00  0.00    -0.228 NA
HETATM    3  C8  UNL     1      32.891  10.529  47.212  1.00  0.00     0.234 C 
HETATM    4  N3  UNL     1      32.204  11.395  47.919  1.00  0.00    -0.254 NA
HETATM    5  C9  UNL     1      30.862  11.063  48.353  1.00  0.00     0.118 C 
HETATM    6  C10 UNL     1      29.954  10.170  48.696  1.00  0.00     0.020 C 
HETATM    7  C11 UNL     1      29.960   8.734  48.805  1.00  0.00     0.013 C 
HETATM    8  C12 UNL     1      30.899   7.823  48.613  1.00  0.00    -0.003 C 
HETATM    9  C21 UNL     1      32.262   8.334  48.410  1.00  0.00     0.121 C 
ENDROOT
BRANCH   8  10
HETATM   10  C13 UNL     1      30.734   6.360  48.752  1.00  0.00     0.179 C 
HETATM   11  O1  UNL     1      31.444   5.722  49.565  1.00  0.00    -0.290 OA
BRANCH  10  12
HETATM   12  C14 UNL     1      29.698   5.749  47.880  1.00  0.00     0.259 C 
BRANCH  12  13
HETATM   13  O2  UNL     1      28.816   5.027  48.666  1.00  0.00    -0.344 OA
BRANCH  13  14
HETATM   14  C15 UNL     1      27.453   5.182  48.789  1.00  0.00     0.069 A 
HETATM   15  C16 UNL     1      26.904   3.994  49.287  1.00  0.00     0.040 A 
HETATM   16  C17 UNL     1      25.525   3.878  49.511  1.00  0.00     0.045 A 
HETATM   17  C18 UNL     1      24.686   4.935  49.243  1.00  0.00     0.116 A 
HETATM   18  F1  UNL     1      23.344   4.900  49.432  1.00  0.00    -0.206 F 
HETATM   19  C19 UNL     1      25.244   6.094  48.755  1.00  0.00     0.045 A 
HETATM   20  C20 UNL     1      26.592   6.226  48.529  1.00  0.00     0.040 A 
ENDBRANCH  13  14
ENDBRANCH  12  13
ENDBRANCH  10  12
ENDBRANCH   8  10
BRANCH   1  21
HETATM   21  N1  UNL     1      33.100   6.932  46.364  1.00  0.00    -0.334 N 
HETATM   22  C2  UNL     1      33.927   5.808  46.721  1.00  0.00     0.027 A 
HETATM   23  C1  UNL     1      34.602   5.969  48.020  1.00  0.00     0.070 C 
HETATM   24  C3  UNL     1      33.999   4.781  45.890  1.00  0.00     0.033 A 
HETATM   25 BR1  UNL     1      35.085   3.327  46.392  1.00  0.00    -0.049 Br
HETATM   26  C4  UNL     1      33.276   4.757  44.625  1.00  0.00     0.019 A 
HETATM   27  C5  UNL     1      32.532   5.801  44.317  1.00  0.00    -0.005 A 
HETATM   28  C6  UNL     1      32.332   7.035  45.121  1.00  0.00     0.157 A 
ENDBRANCH   1  21
TORSDOF 5
ENDMDL
MODEL 9
REMARK VINA RESULT:      -7.4      2.415      3.920
REMARK  5 active torsions:
REMARK  status: ('A' for Active; 'I' for Inactive)
REMARK    1  A    between atoms: N1_8  and  C7_9 
REMARK    2  A    between atoms: C12_16  and  C13_17 
REMARK    3  A    between atoms: C13_17  and  C14_19 
REMARK    4  A    between atoms: C14_19  and  O2_20 
REMARK    5  A    between atoms: O2_20  and  C15_21 
ROOT
HETATM    1  C7  UNL     1      20.147   3.168  50.983  1.00  0.00     0.112 C 
HETATM    2  N2  UNL     1      19.463   3.588  49.939  1.00  0.00    -0.228 NA
HETATM    3  C8  UNL     1      18.087   3.212  49.733  1.00  0.00     0.234 C 
HETATM    4  N3  UNL     1      17.063   2.394  49.674  1.00  0.00    -0.254 NA
HETATM    5  C9  UNL     1      17.251   0.986  49.955  1.00  0.00     0.118 C 
HETATM    6  C10 UNL     1      17.901   0.014  50.567  1.00  0.00     0.020 C 
HETATM    7  C11 UNL     1      19.020  -0.022  51.473  1.00  0.00     0.013 C 
HETATM    8  C12 UNL     1      19.764   0.926  52.017  1.00  0.00    -0.003 C 
HETATM    9  C21 UNL     1      19.297   2.306  51.822  1.00  0.00     0.121 C 
ENDROOT
BRANCH   8  10
HETATM   10  C13 UNL     1      20.908   0.717  52.930  1.00  0.00     0.179 C 
HETATM   11  O1  UNL     1      20.784   0.947  54.156  1.00  0.00    -0.290 OA
BRANCH  10  12
HETATM   12  C14 UNL     1      22.156   0.231  52.288  1.00  0.00     0.259 C 
BRANCH  12  13
HETATM   13  O2  UNL     1      23.135   0.085  53.257  1.00  0.00    -0.344 OA
BRANCH  13  14
HETATM   14  C15 UNL     1      24.499   0.221  53.126  1.00  0.00     0.069 A 
HETATM   15  C16 UNL     1      24.849   1.555  53.373  1.00  0.00     0.040 A 
HETATM   16  C17 UNL     1      26.185   1.971  53.308  1.00  0.00     0.045 A 
HETATM   17  C18 UNL     1      27.179   1.072  52.997  1.00  0.00     0.116 A 
HETATM   18  F1  UNL     1      28.493   1.397  52.913  1.00  0.00    -0.206 F 
HETATM   19  C19 UNL     1      26.816  -0.234  52.758  1.00  0.00     0.045 A 
HETATM   20  C20 UNL     1      25.512  -0.660  52.818  1.00  0.00     0.040 A 
ENDBRANCH  13  14
ENDBRANCH  12  13
ENDBRANCH  10  12
ENDBRANCH   8  10
BRANCH   1  21
HETATM   21  N1  UNL     1      21.492   3.562  51.145  1.00  0.00    -0.334 N 
HETATM   22  C2  UNL     1      22.651   3.223  50.360  1.00  0.00     0.027 A 
HETATM   23  C1  UNL     1      22.353   2.316  49.240  1.00  0.00     0.070 C 
HETATM   24  C3  UNL     1      23.822   3.737  50.701  1.00  0.00     0.033 A 
HETATM   25 BR1  UNL     1      25.316   3.277  49.650  1.00  0.00    -0.049 Br
HETATM   26  C4  UNL     1      23.974   4.625  51.847  1.00  0.00     0.019 A 
HETATM   27  C5  UNL     1      22.899   4.913  52.554  1.00  0.00    -0.005 A 
HETATM   28  C6  UNL     1      21.512   4.432  52.323  1.00  0.00     0.157 A 
ENDBRANCH   1  21
TORSDOF 5
ENDMDL
