MODEL 1
REMARK VINA RESULT:      -7.0      0.000      0.000
REMARK  7 active torsions:
REMARK  status: ('A' for Active; 'I' for Inactive)
REMARK    1  A    between atoms: C3_3  and  C4_4 
REMARK    2  A    between atoms: C4_4  and  O1_5 
REMARK    3  A    between atoms: O1_5  and  C5_6 
REMARK    4  A    between atoms: C5_6  and  C6_7 
REMARK    5  A    between atoms: C10_11  and  S1_12 
REMARK    6  A    between atoms: S1_12  and  C11_13 
REMARK       I    between atoms: C11_13  and  N1_15 
REMARK    7  A    between atoms: N1_15  and  C12_16 
ROOT
HETATM    1  C6  UNL     1      26.349   0.568  53.413  1.00  0.00     0.012 A 
HETATM    2  C7  UNL     1      25.738  -0.717  52.819  1.00  0.00     0.042 A 
HETATM    3  C8  UNL     1      26.114   0.324  52.160  1.00  0.00    -0.072 A 
HETATM    4  C9  UNL     1      26.234   0.660  51.957  1.00  0.00     0.015 A 
HETATM    5  C10 UNL     1      26.663   1.794  51.290  1.00  0.00     0.072 A 
HETATM    6  C18 UNL     1      26.876   2.159  53.106  1.00  0.00     0.033 A 
ENDROOT
BRANCH   5   7
HETATM    7  S1  UNL     1      26.147   3.145  50.689  1.00  0.00    -0.063 SA
BRANCH   7   8
HETATM    8  C11 UNL     1      25.610   4.542  50.072  1.00  0.00     0.284 C 
HETATM    9  O2  UNL     1      24.409   4.359  49.671  1.00  0.00    -0.260 OA
HETATM   10  N1  UNL     1      26.356   5.737  50.047  1.00  0.00    -0.318 N 
HETATM   11  H14 UNL     1      27.367   5.773  50.321  1.00  0.00     0.169 HD
BRANCH  10  12
HETATM   12  C12 UNL     1      25.365   6.688  49.492  1.00  0.00     0.035 A 
HETATM   13  C13 UNL     1      24.656   7.340  50.489  1.00  0.00     0.029 A 
HETATM   14  C14 UNL     1      23.722   8.281  50.043  1.00  0.00     0.002 A 
HETATM   15  C15 UNL     1      23.599   8.467  48.706  1.00  0.00     0.000 A 
HETATM   16  C16 UNL     1      24.314   7.813  47.739  1.00  0.00     0.002 A 
HETATM   17  C17 UNL     1      25.243   6.870  48.187  1.00  0.00     0.029 A 
ENDBRANCH  10  12
ENDBRANCH   7   8
ENDBRANCH   5   7
BRANCH   1  18
HETATM   18  C5  UNL     1      26.383   0.266  54.812  1.00  0.00     0.182 C 
BRANCH  18  19
HETATM   19  O1  UNL     1      27.550  -0.277  55.422  1.00  0.00    -0.390 OA
BRANCH  19  20
HETATM   20  C4  UNL     1      28.688   0.152  54.865  1.00  0.00     0.167 C 
BRANCH  20  21
HETATM   21  C3  UNL     1      29.724  -0.566  54.109  1.00  0.00     0.026 C 
HETATM   22  C2  UNL     1      29.474  -1.471  53.032  1.00  0.00    -0.002 C 
HETATM   23  C1  UNL     1      28.831  -2.759  53.145  1.00  0.00     0.005 C 
ENDBRANCH  20  21
ENDBRANCH  19  20
ENDBRANCH  18  19
ENDBRANCH   1  18
TORSDOF 7
ENDMDL
MODEL 2
REMARK VINA RESULT:      -6.9      4.605      8.492
REMARK  7 active torsions:
REMARK  status: ('A' for Active; 'I' for Inactive)
REMARK    1  A    between atoms: C3_3  and  C4_4 
REMARK    2  A    between atoms: C4_4  and  O1_5 
REMARK    3  A    between atoms: O1_5  and  C5_6 
REMARK    4  A    between atoms: C5_6  and  C6_7 
REMARK    5  A    between atoms: C10_11  and  S1_12 
REMARK    6  A    between atoms: S1_12  and  C11_13 
REMARK       I    between atoms: C11_13  and  N1_15 
REMARK    7  A    between atoms: N1_15  and  C12_16 
ROOT
HETATM    1  C6  UNL     1      20.268  -0.405  53.268  1.00  0.00     0.012 A 
HETATM    2  C7  UNL     1      19.624  -1.741  53.693  1.00  0.00     0.042 A 
HETATM    3  C8  UNL     1      20.761  -1.282  54.087  1.00  0.00    -0.072 A 
HETATM    4  C9  UNL     1      21.124  -1.130  54.207  1.00  0.00     0.015 A 
HETATM    5  C10 UNL     1      22.332  -0.592  54.613  1.00  0.00     0.072 A 
HETATM    6  C18 UNL     1      21.650   0.588  53.341  1.00  0.00     0.033 A 
ENDROOT
BRANCH   5   7
HETATM    7  S1  UNL     1      23.868  -0.631  54.309  1.00  0.00    -0.063 SA
BRANCH   7   8
HETATM    8  C11 UNL     1      25.456  -0.678  53.997  1.00  0.00     0.284 C 
HETATM    9  O2  UNL     1      26.073  -0.793  55.112  1.00  0.00    -0.260 OA
HETATM   10  N1  UNL     1      26.011  -0.644  52.702  1.00  0.00    -0.318 N 
HETATM   11  H14 UNL     1      25.431  -0.462  51.848  1.00  0.00     0.169 HD
BRANCH  10  12
HETATM   12  C12 UNL     1      27.451  -0.823  52.998  1.00  0.00     0.035 A 
HETATM   13  C13 UNL     1      28.066   0.374  53.330  1.00  0.00     0.029 A 
HETATM   14  C14 UNL     1      29.423   0.281  53.656  1.00  0.00     0.002 A 
HETATM   15  C15 UNL     1      30.000  -0.945  53.620  1.00  0.00     0.000 A 
HETATM   16  C16 UNL     1      29.371  -2.116  53.292  1.00  0.00     0.002 A 
HETATM   17  C17 UNL     1      28.016  -2.019  52.963  1.00  0.00     0.029 A 
ENDBRANCH  10  12
ENDBRANCH   7   8
ENDBRANCH   5   7
BRANCH   1  18
HETATM   18  C5  UNL     1      19.282   0.135  52.381  1.00  0.00     0.182 C 
BRANCH  18  19
HETATM   19  O1  UNL     1      19.211   1.533  52.118  1.00  0.00    -0.390 OA
BRANCH  19  20
HETATM   20  C4  UNL     1      19.283   1.832  50.816  1.00  0.00     0.167 C 
BRANCH  20  21
HETATM   21  C3  UNL     1      19.997   1.176  49.712  1.00  0.00     0.026 C 
HETATM   22  C2  UNL     1      21.408   0.956  49.664  1.00  0.00    -0.002 C 
HETATM   23  C1  UNL     1      22.418   1.982  49.551  1.00  0.00     0.005 C 
ENDBRANCH  20  21
ENDBRANCH  19  20
ENDBRANCH  18  19
ENDBRANCH   1  18
TORSDOF 7
ENDMDL
MODEL 3
REMARK VINA RESULT:      -6.8      1.564      1.862
REMARK  7 active torsions:
REMARK  status: ('A' for Active; 'I' for Inactive)
REMARK    1  A    between atoms: C3_3  and  C4_4 
REMARK    2  A    between atoms: C4_4  and  O1_5 
REMARK    3  A    between atoms: O1_5  and  C5_6 
REMARK    4  A    between atoms: C5_6  and  C6_7 
REMARK    5  A    between atoms: C10_11  and  S1_12 
REMARK    6  A    between atoms: S1_12  and  C11_13 
REMARK       I    between atoms: C11_13  and  N1_15 
REMARK    7  A    between atoms: N1_15  and  C12_16 
ROOT
HETATM    1  C6  UNL     1      24.780  -0.063  53.161  1.00  0.00     0.012 A 
HETATM    2  C7  UNL     1      23.483  -0.396  53.925  1.00  0.00     0.042 A 
HETATM    3  C8  UNL     1      23.593   0.405  52.923  1.00  0.00    -0.072 A 
HETATM    4  C9  UNL     1      23.636   0.661  52.605  1.00  0.00     0.015 A 
HETATM    5  C10 UNL     1      23.800   1.503  51.519  1.00  0.00     0.072 A 
HETATM    6  C18 UNL     1      25.509   0.904  51.963  1.00  0.00     0.033 A 
ENDROOT
BRANCH   5   7
HETATM    7  S1  UNL     1      24.011   3.008  51.141  1.00  0.00    -0.063 SA
BRANCH   7   8
HETATM    8  C11 UNL     1      24.225   4.565  50.754  1.00  0.00     0.284 C 
HETATM    9  O2  UNL     1      24.271   4.651  49.478  1.00  0.00    -0.260 OA
HETATM   10  N1  UNL     1      24.293   5.613  51.693  1.00  0.00    -0.318 N 
HETATM   11  H14 UNL     1      24.332   5.440  52.726  1.00  0.00     0.169 HD
BRANCH  10  12
HETATM   12  C12 UNL     1      24.380   6.795  50.804  1.00  0.00     0.035 A 
HETATM   13  C13 UNL     1      23.128   7.308  50.499  1.00  0.00     0.029 A 
HETATM   14  C14 UNL     1      23.128   8.447  49.689  1.00  0.00     0.002 A 
HETATM   15  C15 UNL     1      24.326   8.939  49.287  1.00  0.00     0.000 A 
HETATM   16  C16 UNL     1      25.551   8.418  49.605  1.00  0.00     0.002 A 
HETATM   17  C17 UNL     1      25.548   7.276  50.411  1.00  0.00     0.029 A 
ENDBRANCH  10  12
ENDBRANCH   7   8
ENDBRANCH   5   7
BRANCH   1  18
HETATM   18  C5  UNL     1      25.747  -0.868  53.843  1.00  0.00     0.182 C 
BRANCH  18  19
HETATM   19  O1  UNL     1      26.411  -0.396  55.011  1.00  0.00    -0.390 OA
BRANCH  19  20
HETATM   20  C4  UNL     1      27.481   0.360  54.744  1.00  0.00     0.167 C 
BRANCH  20  21
HETATM   21  C3  UNL     1      28.903   0.011  54.612  1.00  0.00     0.026 C 
HETATM   22  C2  UNL     1      29.467  -0.736  53.533  1.00  0.00    -0.002 C 
HETATM   23  C1  UNL     1      29.220  -2.131  53.253  1.00  0.00     0.005 C 
ENDBRANCH  20  21
ENDBRANCH  19  20
ENDBRANCH  18  19
ENDBRANCH   1  18
TORSDOF 7
ENDMDL
MODEL 4
REMARK VINA RESULT:      -6.8      3.505      8.390
REMARK  7 active torsions:
REMARK  status: ('A' for Active; 'I' for Inactive)
REMARK    1  A    between atoms: C3_3  and  C4_4 
REMARK    2  A    between atoms: C4_4  and  O1_5 
REMARK    3  A    between atoms: O1_5  and  C5_6 
REMARK    4  A    between atoms: C5_6  and  C6_7 
REMARK    5  A    between atoms: C10_11  and  S1_12 
REMARK    6  A    between atoms: S1_12  and  C11_13 
REMARK       I    between atoms: C11_13  and  N1_15 
REMARK    7  A    between atoms: N1_15  and  C12_16 
ROOT
HETATM    1  C6  UNL     1      27.556   6.665  48.622  1.00  0.00     0.012 A 
HETATM    2  C7  UNL     1      28.925   6.403  47.963  1.00  0.00     0.042 A 
HETATM    3  C8  UNL     1      28.083   5.511  48.355  1.00  0.00    -0.072 A 
HETATM    4  C9  UNL     1      27.811   5.231  48.484  1.00  0.00     0.015 A 
HETATM    5  C10 UNL     1      26.871   4.308  48.908  1.00  0.00     0.072 A 
HETATM    6  C18 UNL     1      26.197   5.978  49.387  1.00  0.00     0.033 A 
ENDROOT
BRANCH   5   7
HETATM    7  S1  UNL     1      26.501   3.387  50.120  1.00  0.00    -0.063 SA
BRANCH   7   8
HETATM    8  C11 UNL     1      26.123   2.433  51.371  1.00  0.00     0.284 C 
HETATM    9  O2  UNL     1      26.662   1.290  51.172  1.00  0.00    -0.260 OA
HETATM   10  N1  UNL     1      25.368   2.848  52.486  1.00  0.00    -0.318 N 
HETATM   11  H14 UNL     1      24.892   3.781  52.525  1.00  0.00     0.169 HD
BRANCH  10  12
HETATM   12  C12 UNL     1      25.425   1.641  53.343  1.00  0.00     0.035 A 
HETATM   13  C13 UNL     1      24.359   0.787  53.108  1.00  0.00     0.029 A 
HETATM   14  C14 UNL     1      24.361  -0.394  53.857  1.00  0.00     0.002 A 
HETATM   15  C15 UNL     1      25.384  -0.593  54.724  1.00  0.00     0.000 A 
HETATM   16  C16 UNL     1      26.430   0.264  54.936  1.00  0.00     0.002 A 
HETATM   17  C17 UNL     1      26.423   1.446  54.189  1.00  0.00     0.029 A 
ENDBRANCH  10  12
ENDBRANCH   7   8
ENDBRANCH   5   7
BRANCH   1  18
HETATM   18  C5  UNL     1      27.503   8.096  48.648  1.00  0.00     0.182 C 
BRANCH  18  19
HETATM   19  O1  UNL     1      28.156   8.841  49.670  1.00  0.00    -0.390 OA
BRANCH  19  20
HETATM   20  C4  UNL     1      28.815   9.909  49.209  1.00  0.00     0.167 C 
BRANCH  20  21
HETATM   21  C3  UNL     1      30.254  10.205  49.147  1.00  0.00     0.026 C 
HETATM   22  C2  UNL     1      31.271   9.259  48.813  1.00  0.00    -0.002 C 
HETATM   23  C1  UNL     1      31.659   8.120  49.612  1.00  0.00     0.005 C 
ENDBRANCH  20  21
ENDBRANCH  19  20
ENDBRANCH  18  19
ENDBRANCH   1  18
TORSDOF 7
ENDMDL
MODEL 5
REMARK VINA RESULT:      -6.7      5.509      7.479
REMARK  7 active torsions:
REMARK  status: ('A' for Active; 'I' for Inactive)
REMARK    1  A    between atoms: C3_3  and  C4_4 
REMARK    2  A    between atoms: C4_4  and  O1_5 
REMARK    3  A    between atoms: O1_5  and  C5_6 
REMARK    4  A    between atoms: C5_6  and  C6_7 
REMARK    5  A    between atoms: C10_11  and  S1_12 
REMARK    6  A    between atoms: S1_12  and  C11_13 
REMARK       I    between atoms: C11_13  and  N1_15 
REMARK    7  A    between atoms: N1_15  and  C12_16 
ROOT
HETATM    1  C6  UNL     1      25.690  -0.058  52.579  1.00  0.00     0.012 A 
HETATM    2  C7  UNL     1      26.103   1.040  51.580  1.00  0.00     0.042 A 
HETATM    3  C8  UNL     1      24.989   0.974  52.224  1.00  0.00    -0.072 A 
HETATM    4  C9  UNL     1      24.636   0.945  52.431  1.00  0.00     0.015 A 
HETATM    5  C10 UNL     1      23.460   0.840  53.153  1.00  0.00     0.072 A 
HETATM    6  C18 UNL     1      24.442  -0.694  53.551  1.00  0.00     0.033 A 
ENDROOT
BRANCH   5   7
HETATM    7  S1  UNL     1      21.983   0.328  53.046  1.00  0.00    -0.063 SA
BRANCH   7   8
HETATM    8  C11 UNL     1      20.456  -0.196  52.937  1.00  0.00     0.284 C 
HETATM    9  O2  UNL     1      20.131  -0.206  51.699  1.00  0.00    -0.260 OA
HETATM   10  N1  UNL     1      19.676  -0.602  54.038  1.00  0.00    -0.318 N 
HETATM   11  H14 UNL     1      19.996  -0.478  55.028  1.00  0.00     0.169 HD
BRANCH  10  12
HETATM   12  C12 UNL     1      18.444  -1.073  53.364  1.00  0.00     0.035 A 
HETATM   13  C13 UNL     1      18.146  -2.388  53.688  1.00  0.00     0.029 A 
HETATM   14  C14 UNL     1      16.976  -2.896  53.115  1.00  0.00     0.002 A 
HETATM   15  C15 UNL     1      16.253  -2.073  52.316  1.00  0.00     0.000 A 
HETATM   16  C16 UNL     1      16.565  -0.775  52.014  1.00  0.00     0.002 A 
HETATM   17  C17 UNL     1      17.738  -0.272  52.583  1.00  0.00     0.029 A 
ENDBRANCH  10  12
ENDBRANCH   7   8
ENDBRANCH   5   7
BRANCH   1  18
HETATM   18  C5  UNL     1      26.842  -0.909  52.586  1.00  0.00     0.182 C 
BRANCH  18  19
HETATM   19  O1  UNL     1      27.626  -1.082  53.762  1.00  0.00    -0.390 OA
BRANCH  19  20
HETATM   20  C4  UNL     1      28.935  -0.896  53.557  1.00  0.00     0.167 C 
BRANCH  20  21
HETATM   21  C3  UNL     1      29.805   0.253  53.846  1.00  0.00     0.026 C 
HETATM   22  C2  UNL     1      29.356   1.519  54.333  1.00  0.00    -0.002 C 
HETATM   23  C1  UNL     1      28.548   2.466  53.600  1.00  0.00     0.005 C 
ENDBRANCH  20  21
ENDBRANCH  19  20
ENDBRANCH  18  19
ENDBRANCH   1  18
TORSDOF 7
ENDMDL
MODEL 6
REMARK VINA RESULT:      -6.7      4.283      7.890
REMARK  7 active torsions:
REMARK  status: ('A' for Active; 'I' for Inactive)
REMARK    1  A    between atoms: C3_3  and  C4_4 
REMARK    2  A    between atoms: C4_4  and  O1_5 
REMARK    3  A    between atoms: O1_5  and  C5_6 
REMARK    4  A    between atoms: C5_6  and  C6_7 
REMARK    5  A    between atoms: C10_11  and  S1_12 
REMARK    6  A    between atoms: S1_12  and  C11_13 
REMARK       I    between atoms: C11_13  and  N1_15 
REMARK    7  A    between atoms: N1_15  and  C12_16 
ROOT
HETATM    1  C6  UNL     1      20.890   2.201  51.329  1.00  0.00     0.012 A 
HETATM    2  C7  UNL     1      20.444   3.351  52.255  1.00  0.00     0.042 A 
HETATM    3  C8  UNL     1      21.656   3.059  51.930  1.00  0.00    -0.072 A 
HETATM    4  C9  UNL     1      22.040   2.959  51.823  1.00  0.00     0.015 A 
HETATM    5  C10 UNL     1      23.324   2.616  51.437  1.00  0.00     0.072 A 
HETATM    6  C18 UNL     1      22.205   1.328  50.687  1.00  0.00     0.033 A 
ENDROOT
BRANCH   5   7
HETATM    7  S1  UNL     1      24.580   1.804  51.902  1.00  0.00    -0.063 SA
BRANCH   7   8
HETATM    8  C11 UNL     1      25.880   0.964  52.375  1.00  0.00     0.284 C 
HETATM    9  O2  UNL     1      26.794   1.123  51.494  1.00  0.00    -0.260 OA
HETATM   10  N1  UNL     1      25.959   0.238  53.580  1.00  0.00    -0.318 N 
HETATM   11  H14 UNL     1      25.129   0.092  54.203  1.00  0.00     0.169 HD
BRANCH  10  12
HETATM   12  C12 UNL     1      27.367  -0.222  53.551  1.00  0.00     0.035 A 
HETATM   13  C13 UNL     1      27.479  -1.519  53.074  1.00  0.00     0.029 A 
HETATM   14  C14 UNL     1      28.784  -2.014  52.985  1.00  0.00     0.002 A 
HETATM   15  C15 UNL     1      29.798  -1.198  53.363  1.00  0.00     0.000 A 
HETATM   16  C16 UNL     1      29.663   0.082  53.827  1.00  0.00     0.002 A 
HETATM   17  C17 UNL     1      28.358   0.573  53.920  1.00  0.00     0.029 A 
ENDBRANCH  10  12
ENDBRANCH   7   8
ENDBRANCH   5   7
BRANCH   1  18
HETATM   18  C5  UNL     1      19.639   1.613  50.956  1.00  0.00     0.182 C 
BRANCH  18  19
HETATM   19  O1  UNL     1      18.851   0.893  51.898  1.00  0.00    -0.390 OA
BRANCH  19  20
HETATM   20  C4  UNL     1      19.490  -0.151  52.436  1.00  0.00     0.167 C 
BRANCH  20  21
HETATM   21  C3  UNL     1      20.036  -0.360  53.785  1.00  0.00     0.026 C 
HETATM   22  C2  UNL     1      21.389  -0.109  54.169  1.00  0.00    -0.002 C 
HETATM   23  C1  UNL     1      22.546  -0.845  53.715  1.00  0.00     0.005 C 
ENDBRANCH  20  21
ENDBRANCH  19  20
ENDBRANCH  18  19
ENDBRANCH   1  18
TORSDOF 7
ENDMDL
MODEL 7
REMARK VINA RESULT:      -6.5      1.606      2.905
REMARK  7 active torsions:
REMARK  status: ('A' for Active; 'I' for Inactive)
REMARK    1  A    between atoms: C3_3  and  C4_4 
REMARK    2  A    between atoms: C4_4  and  O1_5 
REMARK    3  A    between atoms: O1_5  and  C5_6 
REMARK    4  A    between atoms: C5_6  and  C6_7 
REMARK    5  A    between atoms: C10_11  and  S1_12 
REMARK    6  A    between atoms: S1_12  and  C11_13 
REMARK       I    between atoms: C11_13  and  N1_15 
REMARK    7  A    between atoms: N1_15  and  C12_16 
ROOT
HETATM    1  C6  UNL     1      26.437   0.037  53.558  1.00  0.00     0.012 A 
HETATM    2  C7  UNL     1      26.453  -1.248  52.706  1.00  0.00     0.042 A 
HETATM    3  C8  UNL     1      26.628  -0.047  52.277  1.00  0.00    -0.072 A 
HETATM    4  C9  UNL     1      26.681   0.340  52.147  1.00  0.00     0.015 A 
HETATM    5  C10 UNL     1      26.875   1.646  51.734  1.00  0.00     0.072 A 
HETATM    6  C18 UNL     1      26.480   1.740  53.553  1.00  0.00     0.033 A 
ENDROOT
BRANCH   5   7
HETATM    7  S1  UNL     1      26.123   2.874  51.117  1.00  0.00    -0.063 SA
BRANCH   7   8
HETATM    8  C11 UNL     1      25.341   4.141  50.483  1.00  0.00     0.284 C 
HETATM    9  O2  UNL     1      24.109   3.820  50.356  1.00  0.00    -0.260 OA
HETATM   10  N1  UNL     1      25.946   5.377  50.182  1.00  0.00    -0.318 N 
HETATM   11  H14 UNL     1      26.983   5.523  50.238  1.00  0.00     0.169 HD
BRANCH  10  12
HETATM   12  C12 UNL     1      24.778   6.175  49.747  1.00  0.00     0.035 A 
HETATM   13  C13 UNL     1      24.229   6.906  50.790  1.00  0.00     0.029 A 
HETATM   14  C14 UNL     1      23.139   7.712  50.450  1.00  0.00     0.002 A 
HETATM   15  C15 UNL     1      22.728   7.710  49.158  1.00  0.00     0.000 A 
HETATM   16  C16 UNL     1      23.288   6.983  48.142  1.00  0.00     0.002 A 
HETATM   17  C17 UNL     1      24.375   6.173  48.486  1.00  0.00     0.029 A 
ENDBRANCH  10  12
ENDBRANCH   7   8
ENDBRANCH   5   7
BRANCH   1  18
HETATM   18  C5  UNL     1      26.204  -0.477  54.874  1.00  0.00     0.182 C 
BRANCH  18  19
HETATM   19  O1  UNL     1      25.170  -1.422  55.125  1.00  0.00    -0.390 OA
BRANCH  19  20
HETATM   20  C4  UNL     1      23.957  -0.867  55.223  1.00  0.00     0.167 C 
BRANCH  20  21
HETATM   21  C3  UNL     1      22.805  -0.894  54.310  1.00  0.00     0.026 C 
HETATM   22  C2  UNL     1      22.804  -0.381  52.977  1.00  0.00    -0.002 C 
HETATM   23  C1  UNL     1      22.914   1.012  52.609  1.00  0.00     0.005 C 
ENDBRANCH  20  21
ENDBRANCH  19  20
ENDBRANCH  18  19
ENDBRANCH   1  18
TORSDOF 7
ENDMDL
MODEL 8
REMARK VINA RESULT:      -6.4      2.907      8.840
REMARK  7 active torsions:
REMARK  status: ('A' for Active; 'I' for Inactive)
REMARK    1  A    between atoms: C3_3  and  C4_4 
REMARK    2  A    between atoms: C4_4  and  O1_5 
REMARK    3  A    between atoms: O1_5  and  C5_6 
REMARK    4  A    between atoms: C5_6  and  C6_7 
REMARK    5  A    between atoms: C10_11  and  S1_12 
REMARK    6  A    between atoms: S1_12  and  C11_13 
REMARK       I    between atoms: C11_13  and  N1_15 
REMARK    7  A    between atoms: N1_15  and  C12_16 
ROOT
HETATM    1  C6  UNL     1      27.369   6.744  48.631  1.00  0.00     0.012 A 
HETATM    2  C7  UNL     1      28.790   6.576  48.054  1.00  0.00     0.042 A 
HETATM    3  C8  UNL     1      27.994   5.628  48.410  1.00  0.00    -0.072 A 
HETATM    4  C9  UNL     1      27.736   5.331  48.528  1.00  0.00     0.015 A 
HETATM    5  C10 UNL     1      26.843   4.346  48.911  1.00  0.00     0.072 A 
HETATM    6  C18 UNL     1      26.022   5.967  49.327  1.00  0.00     0.033 A 
ENDROOT
BRANCH   5   7
HETATM    7  S1  UNL     1      26.471   3.412  50.113  1.00  0.00    -0.063 SA
BRANCH   7   8
HETATM    8  C11 UNL     1      26.091   2.444  51.353  1.00  0.00     0.284 C 
HETATM    9  O2  UNL     1      26.685   1.324  51.174  1.00  0.00    -0.260 OA
HETATM   10  N1  UNL     1      25.281   2.828  52.440  1.00  0.00    -0.318 N 
HETATM   11  H14 UNL     1      24.765   3.740  52.460  1.00  0.00     0.169 HD
BRANCH  10  12
HETATM   12  C12 UNL     1      25.360   1.626  53.301  1.00  0.00     0.035 A 
HETATM   13  C13 UNL     1      24.315   0.746  53.061  1.00  0.00     0.029 A 
HETATM   14  C14 UNL     1      24.339  -0.432  53.814  1.00  0.00     0.002 A 
HETATM   15  C15 UNL     1      25.360  -0.605  54.689  1.00  0.00     0.000 A 
HETATM   16  C16 UNL     1      26.384   0.277  54.906  1.00  0.00     0.002 A 
HETATM   17  C17 UNL     1      26.356   1.456  54.155  1.00  0.00     0.029 A 
ENDBRANCH  10  12
ENDBRANCH   7   8
ENDBRANCH   5   7
BRANCH   1  18
HETATM   18  C5  UNL     1      27.211   8.167  48.633  1.00  0.00     0.182 C 
BRANCH  18  19
HETATM   19  O1  UNL     1      26.270   8.807  47.777  1.00  0.00    -0.390 OA
BRANCH  19  20
HETATM   20  C4  UNL     1      26.227   8.280  46.548  1.00  0.00     0.167 C 
BRANCH  20  21
HETATM   21  C3  UNL     1      26.692   8.803  45.256  1.00  0.00     0.026 C 
HETATM   22  C2  UNL     1      27.914   8.434  44.615  1.00  0.00    -0.002 C 
HETATM   23  C1  UNL     1      29.242   8.749  45.086  1.00  0.00     0.005 C 
ENDBRANCH  20  21
ENDBRANCH  19  20
ENDBRANCH  18  19
ENDBRANCH   1  18
TORSDOF 7
ENDMDL
MODEL 9
REMARK VINA RESULT:      -6.4      4.575      5.913
REMARK  7 active torsions:
REMARK  status: ('A' for Active; 'I' for Inactive)
REMARK    1  A    between atoms: C3_3  and  C4_4 
REMARK    2  A    between atoms: C4_4  and  O1_5 
REMARK    3  A    between atoms: O1_5  and  C5_6 
REMARK    4  A    between atoms: C5_6  and  C6_7 
REMARK    5  A    between atoms: C10_11  and  S1_12 
REMARK    6  A    between atoms: S1_12  and  C11_13 
REMARK       I    between atoms: C11_13  and  N1_15 
REMARK    7  A    between atoms: N1_15  and  C12_16 
ROOT
HETATM    1  C6  UNL     1      26.172   4.125  49.843  1.00  0.00     0.012 A 
HETATM    2  C7  UNL     1      24.878   4.598  50.536  1.00  0.00     0.042 A 
HETATM    3  C8  UNL     1      25.590   5.276  49.704  1.00  0.00    -0.072 A 
HETATM    4  C9  UNL     1      25.824   5.487  49.440  1.00  0.00     0.015 A 
HETATM    5  C10 UNL     1      26.612   6.173  48.533  1.00  0.00     0.072 A 
HETATM    6  C18 UNL     1      27.486   4.557  48.848  1.00  0.00     0.033 A 
ENDROOT
BRANCH   5   7
HETATM    7  S1  UNL     1      27.772   7.222  48.447  1.00  0.00    -0.063 SA
BRANCH   7   8
HETATM    8  C11 UNL     1      28.972   8.305  48.353  1.00  0.00     0.284 C 
HETATM    9  O2  UNL     1      28.811   8.978  47.277  1.00  0.00    -0.260 OA
HETATM   10  N1  UNL     1      29.969   8.471  49.334  1.00  0.00    -0.318 N 
HETATM   11  H14 UNL     1      30.074   7.815  50.145  1.00  0.00     0.169 HD
BRANCH  10  12
HETATM   12  C12 UNL     1      30.711   9.636  48.801  1.00  0.00     0.035 A 
HETATM   13  C13 UNL     1      31.743   9.253  47.957  1.00  0.00     0.029 A 
HETATM   14  C14 UNL     1      32.471  10.302  47.386  1.00  0.00     0.002 A 
HETATM   15  C15 UNL     1      32.108  11.570  47.700  1.00  0.00     0.000 A 
HETATM   16  C16 UNL     1      31.082  11.924  48.533  1.00  0.00     0.002 A 
HETATM   17  C17 UNL     1      30.359  10.874  49.107  1.00  0.00     0.029 A 
ENDBRANCH  10  12
ENDBRANCH   7   8
ENDBRANCH   5   7
BRANCH   1  18
HETATM   18  C5  UNL     1      26.320   2.796  50.355  1.00  0.00     0.182 C 
BRANCH  18  19
HETATM   19  O1  UNL     1      27.265   2.498  51.378  1.00  0.00    -0.390 OA
BRANCH  19  20
HETATM   20  C4  UNL     1      26.763   1.744  52.361  1.00  0.00     0.167 C 
BRANCH  20  21
HETATM   21  C3  UNL     1      25.752   0.677  52.341  1.00  0.00     0.026 C 
HETATM   22  C2  UNL     1      25.889  -0.594  52.979  1.00  0.00    -0.002 C 
HETATM   23  C1  UNL     1      26.820  -1.631  52.601  1.00  0.00     0.005 C 
ENDBRANCH  20  21
ENDBRANCH  19  20
ENDBRANCH  18  19
ENDBRANCH   1  18
TORSDOF 7
ENDMDL
