MODEL 1
REMARK VINA RESULT:      -7.4      0.000      0.000
REMARK  8 active torsions:
REMARK  status: ('A' for Active; 'I' for Inactive)
REMARK    1  A    between atoms: C2_2  and  C3_3 
REMARK    2  A    between atoms: C2_2  and  S1_6 
REMARK    3  A    between atoms: S1_6  and  N1_9 
REMARK    4  A    between atoms: N1_9  and  C5_10 
REMARK    5  A    between atoms: C7_12  and  C8_13 
REMARK    6  A    between atoms: C8_13  and  O4_15 
REMARK    7  A    between atoms: O4_15  and  C9_16 
REMARK    8  A    between atoms: C13_20  and  N2_21 
ROOT
HETATM    1  C3  UNL     1      26.433   3.927  49.455  1.00  0.00     0.032 C 
HETATM    2  C4  UNL     1      27.336   4.734  48.948  1.00  0.00     0.165 C 
HETATM    3 BR1  UNL     1      28.539   5.984  48.208  1.00  0.00    -0.172 Br
ENDROOT
BRANCH   1   4
HETATM    4  C2  UNL     1      25.066   4.291  49.634  1.00  0.00     0.070 C 
HETATM    5  C1  UNL     1      24.706   5.284  48.836  1.00  0.00     0.038 C 
BRANCH   4   6
HETATM    6  S1  UNL     1      23.791   3.691  50.645  1.00  0.00     0.262 S 
HETATM    7  O1  UNL     1      23.854   4.477  51.936  1.00  0.00    -0.200 OA
HETATM    8  O2  UNL     1      22.485   3.915  49.948  1.00  0.00    -0.200 OA
BRANCH   6   9
HETATM    9  N1  UNL     1      23.976   2.015  51.015  1.00  0.00    -0.278 N 
HETATM   10  H5  UNL     1      24.759   1.513  50.492  1.00  0.00     0.179 HD
BRANCH   9  11
HETATM   11  C5  UNL     1      23.264   1.168  51.900  1.00  0.00     0.070 A 
HETATM   12  C6  UNL     1      21.925   0.882  51.733  1.00  0.00     0.050 A 
HETATM   13  C7  UNL     1      21.271   0.045  52.607  1.00  0.00     0.041 A 
HETATM   14  C11 UNL     1      21.912  -0.536  53.672  1.00  0.00     0.020 A 
HETATM   15  C12 UNL     1      23.248  -0.254  53.844  1.00  0.00     0.033 A 
HETATM   16  C13 UNL     1      23.925   0.579  52.985  1.00  0.00     0.058 A 
BRANCH  13  17
HETATM   17  C8  UNL     1      19.866  -0.299  52.476  1.00  0.00     0.293 C 
HETATM   18  O3  UNL     1      18.936  -0.182  51.660  1.00  0.00    -0.259 OA
BRANCH  17  19
HETATM   19  O4  UNL     1      19.118  -0.953  53.413  1.00  0.00    -0.318 OA
BRANCH  19  20
HETATM   20  C9  UNL     1      17.811  -1.416  53.303  1.00  0.00     0.174 C 
HETATM   21  C10 UNL     1      17.602  -2.864  53.600  1.00  0.00     0.034 C 
ENDBRANCH  19  20
ENDBRANCH  17  19
ENDBRANCH  13  17
BRANCH  16  22
HETATM   22  N2  UNL     1      25.311   0.816  53.243  1.00  0.00    -0.375 N 
HETATM   23  C14 UNL     1      26.125   1.909  53.740  1.00  0.00     0.149 C 
HETATM   24  C15 UNL     1      27.278   2.023  52.739  1.00  0.00     0.187 C 
HETATM   25  O5  UNL     1      28.093   0.935  52.927  1.00  0.00    -0.388 OA
HETATM   26  C16 UNL     1      27.468  -0.183  53.424  1.00  0.00     0.187 C 
HETATM   27  C17 UNL     1      26.064  -0.395  52.898  1.00  0.00     0.149 C 
ENDBRANCH  16  22
ENDBRANCH   9  11
ENDBRANCH   6   9
ENDBRANCH   4   6
ENDBRANCH   1   4
TORSDOF 8
ENDMDL
MODEL 2
REMARK VINA RESULT:      -7.3      2.176      5.447
REMARK  8 active torsions:
REMARK  status: ('A' for Active; 'I' for Inactive)
REMARK    1  A    between atoms: C2_2  and  C3_3 
REMARK    2  A    between atoms: C2_2  and  S1_6 
REMARK    3  A    between atoms: S1_6  and  N1_9 
REMARK    4  A    between atoms: N1_9  and  C5_10 
REMARK    5  A    between atoms: C7_12  and  C8_13 
REMARK    6  A    between atoms: C8_13  and  O4_15 
REMARK    7  A    between atoms: O4_15  and  C9_16 
REMARK    8  A    between atoms: C13_20  and  N2_21 
ROOT
HETATM    1  C3  UNL     1      26.426   3.960  49.382  1.00  0.00     0.032 C 
HETATM    2  C4  UNL     1      27.402   4.686  48.888  1.00  0.00     0.165 C 
HETATM    3 BR1  UNL     1      28.721   5.831  48.175  1.00  0.00    -0.172 Br
ENDROOT
BRANCH   1   4
HETATM    4  C2  UNL     1      25.117   4.469  49.632  1.00  0.00     0.070 C 
HETATM    5  C1  UNL     1      24.882   5.589  48.966  1.00  0.00     0.038 C 
BRANCH   4   6
HETATM    6  S1  UNL     1      23.782   3.915  50.590  1.00  0.00     0.262 S 
HETATM    7  O1  UNL     1      23.993   4.460  51.985  1.00  0.00    -0.200 OA
HETATM    8  O2  UNL     1      22.515   4.450  49.995  1.00  0.00    -0.200 OA
BRANCH   6   9
HETATM    9  N1  UNL     1      23.704   2.193  50.681  1.00  0.00    -0.278 N 
HETATM   10  H5  UNL     1      23.745   1.681  49.746  1.00  0.00     0.179 HD
BRANCH   9  11
HETATM   11  C5  UNL     1      23.590   1.319  51.791  1.00  0.00     0.070 A 
HETATM   12  C6  UNL     1      24.688   0.884  52.505  1.00  0.00     0.050 A 
HETATM   13  C7  UNL     1      24.535   0.046  53.585  1.00  0.00     0.041 A 
HETATM   14  C11 UNL     1      23.302  -0.392  53.995  1.00  0.00     0.020 A 
HETATM   15  C12 UNL     1      22.203   0.039  53.286  1.00  0.00     0.033 A 
HETATM   16  C13 UNL     1      22.327   0.877  52.204  1.00  0.00     0.058 A 
BRANCH  13  17
HETATM   17  C8  UNL     1      25.652  -0.438  54.378  1.00  0.00     0.293 C 
HETATM   18  O3  UNL     1      25.896  -0.812  55.537  1.00  0.00    -0.259 OA
BRANCH  17  19
HETATM   19  O4  UNL     1      26.928  -0.617  53.926  1.00  0.00    -0.318 OA
BRANCH  19  20
HETATM   20  C9  UNL     1      28.104  -0.070  54.426  1.00  0.00     0.174 C 
HETATM   21  C10 UNL     1      28.523   1.235  53.833  1.00  0.00     0.034 C 
ENDBRANCH  19  20
ENDBRANCH  17  19
ENDBRANCH  13  17
BRANCH  16  22
HETATM   22  N2  UNL     1      21.131   1.272  51.527  1.00  0.00    -0.375 N 
HETATM   23  C14 UNL     1      20.375   0.834  50.369  1.00  0.00     0.149 C 
HETATM   24  C15 UNL     1      20.105   2.113  49.574  1.00  0.00     0.187 C 
HETATM   25  O5  UNL     1      19.179   2.844  50.275  1.00  0.00    -0.388 OA
HETATM   26  C16 UNL     1      19.181   2.637  51.634  1.00  0.00     0.187 C 
HETATM   27  C17 UNL     1      20.558   2.426  52.228  1.00  0.00     0.149 C 
ENDBRANCH  16  22
ENDBRANCH   9  11
ENDBRANCH   6   9
ENDBRANCH   4   6
ENDBRANCH   1   4
TORSDOF 8
ENDMDL
MODEL 3
REMARK VINA RESULT:      -7.3      1.587      5.708
REMARK  8 active torsions:
REMARK  status: ('A' for Active; 'I' for Inactive)
REMARK    1  A    between atoms: C2_2  and  C3_3 
REMARK    2  A    between atoms: C2_2  and  S1_6 
REMARK    3  A    between atoms: S1_6  and  N1_9 
REMARK    4  A    between atoms: N1_9  and  C5_10 
REMARK    5  A    between atoms: C7_12  and  C8_13 
REMARK    6  A    between atoms: C8_13  and  O4_15 
REMARK    7  A    between atoms: O4_15  and  C9_16 
REMARK    8  A    between atoms: C13_20  and  N2_21 
ROOT
HETATM    1  C3  UNL     1      26.227   3.856  49.567  1.00  0.00     0.032 C 
HETATM    2  C4  UNL     1      27.189   4.562  49.020  1.00  0.00     0.165 C 
HETATM    3 BR1  UNL     1      28.493   5.679  48.240  1.00  0.00    -0.172 Br
ENDROOT
BRANCH   1   4
HETATM    4  C2  UNL     1      24.959   4.403  49.925  1.00  0.00     0.070 C 
HETATM    5  C1  UNL     1      25.019   5.710  50.131  1.00  0.00     0.038 C 
BRANCH   4   6
HETATM    6  S1  UNL     1      23.374   3.724  50.115  1.00  0.00     0.262 S 
HETATM    7  O1  UNL     1      22.390   4.854  49.908  1.00  0.00    -0.200 OA
HETATM    8  O2  UNL     1      23.186   2.658  49.080  1.00  0.00    -0.200 OA
BRANCH   6   9
HETATM    9  N1  UNL     1      23.124   3.061  51.689  1.00  0.00    -0.278 N 
HETATM   10  H5  UNL     1      22.325   3.494  52.248  1.00  0.00     0.179 HD
BRANCH   9  11
HETATM   11  C5  UNL     1      23.800   2.030  52.388  1.00  0.00     0.070 A 
HETATM   12  C6  UNL     1      25.084   2.181  52.869  1.00  0.00     0.050 A 
HETATM   13  C7  UNL     1      25.702   1.161  53.554  1.00  0.00     0.041 A 
HETATM   14  C11 UNL     1      25.078  -0.038  53.788  1.00  0.00     0.020 A 
HETATM   15  C12 UNL     1      23.796  -0.195  53.310  1.00  0.00     0.033 A 
HETATM   16  C13 UNL     1      23.156   0.809  52.623  1.00  0.00     0.058 A 
BRANCH  13  17
HETATM   17  C8  UNL     1      27.048   1.266  54.090  1.00  0.00     0.293 C 
HETATM   18  O3  UNL     1      27.893   2.136  54.362  1.00  0.00    -0.259 OA
BRANCH  17  19
HETATM   19  O4  UNL     1      27.828   0.217  54.487  1.00  0.00    -0.318 OA
BRANCH  19  20
HETATM   20  C9  UNL     1      28.610  -0.621  53.700  1.00  0.00     0.174 C 
HETATM   21  C10 UNL     1      30.023  -0.189  53.485  1.00  0.00     0.034 C 
ENDBRANCH  19  20
ENDBRANCH  17  19
ENDBRANCH  13  17
BRANCH  16  22
HETATM   22  N2  UNL     1      21.826   0.556  52.163  1.00  0.00    -0.375 N 
HETATM   23  C14 UNL     1      21.166   0.353  50.887  1.00  0.00     0.149 C 
HETATM   24  C15 UNL     1      19.950   1.281  50.925  1.00  0.00     0.187 C 
HETATM   25  O5  UNL     1      19.053   0.744  51.814  1.00  0.00    -0.388 OA
HETATM   26  C16 UNL     1      19.606  -0.021  52.812  1.00  0.00     0.187 C 
HETATM   27  C17 UNL     1      20.934   0.497  53.326  1.00  0.00     0.149 C 
ENDBRANCH  16  22
ENDBRANCH   9  11
ENDBRANCH   6   9
ENDBRANCH   4   6
ENDBRANCH   1   4
TORSDOF 8
ENDMDL
MODEL 4
REMARK VINA RESULT:      -7.1      3.860      7.589
REMARK  8 active torsions:
REMARK  status: ('A' for Active; 'I' for Inactive)
REMARK    1  A    between atoms: C2_2  and  C3_3 
REMARK    2  A    between atoms: C2_2  and  S1_6 
REMARK    3  A    between atoms: S1_6  and  N1_9 
REMARK    4  A    between atoms: N1_9  and  C5_10 
REMARK    5  A    between atoms: C7_12  and  C8_13 
REMARK    6  A    between atoms: C8_13  and  O4_15 
REMARK    7  A    between atoms: O4_15  and  C9_16 
REMARK    8  A    between atoms: C13_20  and  N2_21 
ROOT
HETATM    1  C3  UNL     1      18.157  -1.075  53.011  1.00  0.00     0.032 C 
HETATM    2  C4  UNL     1      16.876  -1.156  52.733  1.00  0.00     0.165 C 
HETATM    3 BR1  UNL     1      15.053  -1.172  52.252  1.00  0.00    -0.172 Br
ENDROOT
BRANCH   1   4
HETATM    4  C2  UNL     1      19.028  -0.108  52.427  1.00  0.00     0.070 C 
HETATM    5  C1  UNL     1      18.686   0.181  51.180  1.00  0.00     0.038 C 
BRANCH   4   6
HETATM    6  S1  UNL     1      20.400   0.774  53.013  1.00  0.00     0.262 S 
HETATM    7  O1  UNL     1      20.043   2.242  52.926  1.00  0.00    -0.200 OA
HETATM    8  O2  UNL     1      20.654   0.371  54.433  1.00  0.00    -0.200 OA
BRANCH   6   9
HETATM    9  N1  UNL     1      21.816   0.499  52.065  1.00  0.00    -0.278 N 
HETATM   10  H5  UNL     1      21.657  -0.006  51.139  1.00  0.00     0.179 HD
BRANCH   9  11
HETATM   11  C5  UNL     1      23.175   0.824  52.298  1.00  0.00     0.070 A 
HETATM   12  C6  UNL     1      23.942   0.172  53.242  1.00  0.00     0.050 A 
HETATM   13  C7  UNL     1      25.262   0.508  53.429  1.00  0.00     0.041 A 
HETATM   14  C11 UNL     1      25.871   1.495  52.696  1.00  0.00     0.020 A 
HETATM   15  C12 UNL     1      25.111   2.150  51.752  1.00  0.00     0.033 A 
HETATM   16  C13 UNL     1      23.789   1.833  51.545  1.00  0.00     0.058 A 
BRANCH  13  17
HETATM   17  C8  UNL     1      26.118  -0.149  54.402  1.00  0.00     0.293 C 
HETATM   18  O3  UNL     1      26.102  -0.493  55.596  1.00  0.00    -0.259 OA
BRANCH  17  19
HETATM   19  O4  UNL     1      27.376  -0.622  54.160  1.00  0.00    -0.318 OA
BRANCH  19  20
HETATM   20  C9  UNL     1      28.586  -0.135  54.640  1.00  0.00     0.174 C 
HETATM   21  C10 UNL     1      29.404   0.655  53.672  1.00  0.00     0.034 C 
ENDBRANCH  19  20
ENDBRANCH  17  19
ENDBRANCH  13  17
BRANCH  16  22
HETATM   22  N2  UNL     1      23.079   2.567  50.544  1.00  0.00    -0.375 N 
HETATM   23  C14 UNL     1      22.735   2.391  49.146  1.00  0.00     0.149 C 
HETATM   24  C15 UNL     1      23.117   3.717  48.481  1.00  0.00     0.187 C 
HETATM   25  O5  UNL     1      22.210   4.659  48.896  1.00  0.00    -0.388 OA
HETATM   26  C16 UNL     1      21.644   4.423  50.126  1.00  0.00     0.187 C 
HETATM   27  C17 UNL     1      22.592   3.816  51.139  1.00  0.00     0.149 C 
ENDBRANCH  16  22
ENDBRANCH   9  11
ENDBRANCH   6   9
ENDBRANCH   4   6
ENDBRANCH   1   4
TORSDOF 8
ENDMDL
MODEL 5
REMARK VINA RESULT:      -7.1      2.623      4.868
REMARK  8 active torsions:
REMARK  status: ('A' for Active; 'I' for Inactive)
REMARK    1  A    between atoms: C2_2  and  C3_3 
REMARK    2  A    between atoms: C2_2  and  S1_6 
REMARK    3  A    between atoms: S1_6  and  N1_9 
REMARK    4  A    between atoms: N1_9  and  C5_10 
REMARK    5  A    between atoms: C7_12  and  C8_13 
REMARK    6  A    between atoms: C8_13  and  O4_15 
REMARK    7  A    between atoms: O4_15  and  C9_16 
REMARK    8  A    between atoms: C13_20  and  N2_21 
ROOT
HETATM    1  C3  UNL     1      26.915  -0.872  52.543  1.00  0.00     0.032 C 
HETATM    2  C4  UNL     1      28.146  -0.950  52.993  1.00  0.00     0.165 C 
HETATM    3 BR1  UNL     1      29.892  -0.953  53.706  1.00  0.00    -0.172 Br
ENDROOT
BRANCH   1   4
HETATM    4  C2  UNL     1      26.017   0.181  52.891  1.00  0.00     0.070 C 
HETATM    5  C1  UNL     1      25.158  -0.187  53.830  1.00  0.00     0.038 C 
BRANCH   4   6
HETATM    6  S1  UNL     1      25.840   1.824  52.367  1.00  0.00     0.262 S 
HETATM    7  O1  UNL     1      25.531   2.643  53.601  1.00  0.00    -0.200 OA
HETATM    8  O2  UNL     1      27.129   2.266  51.744  1.00  0.00    -0.200 OA
BRANCH   6   9
HETATM    9  N1  UNL     1      24.548   2.022  51.240  1.00  0.00    -0.278 N 
HETATM   10  H5  UNL     1      24.823   1.965  50.211  1.00  0.00     0.179 HD
BRANCH   9  11
HETATM   11  C5  UNL     1      23.164   2.254  51.435  1.00  0.00     0.070 A 
HETATM   12  C6  UNL     1      22.311   1.281  51.917  1.00  0.00     0.050 A 
HETATM   13  C7  UNL     1      20.975   1.549  52.104  1.00  0.00     0.041 A 
HETATM   14  C11 UNL     1      20.435   2.779  51.825  1.00  0.00     0.020 A 
HETATM   15  C12 UNL     1      21.281   3.753  51.345  1.00  0.00     0.033 A 
HETATM   16  C13 UNL     1      22.620   3.512  51.149  1.00  0.00     0.058 A 
BRANCH  13  17
HETATM   17  C8  UNL     1      20.034   0.568  52.615  1.00  0.00     0.293 C 
HETATM   18  O3  UNL     1      18.977   0.007  52.279  1.00  0.00    -0.259 OA
BRANCH  17  19
HETATM   19  O4  UNL     1      20.129  -0.074  53.816  1.00  0.00    -0.318 OA
BRANCH  19  20
HETATM   20  C9  UNL     1      20.476  -1.398  54.061  1.00  0.00     0.174 C 
HETATM   21  C10 UNL     1      21.828  -1.623  54.652  1.00  0.00     0.034 C 
ENDBRANCH  19  20
ENDBRANCH  17  19
ENDBRANCH  13  17
BRANCH  16  22
HETATM   22  N2  UNL     1      23.422   4.584  50.645  1.00  0.00    -0.375 N 
HETATM   23  C14 UNL     1      24.033   4.946  49.381  1.00  0.00     0.149 C 
HETATM   24  C15 UNL     1      25.478   5.308  49.736  1.00  0.00     0.187 C 
HETATM   25  O5  UNL     1      25.447   6.504  50.406  1.00  0.00    -0.388 OA
HETATM   26  C16 UNL     1      24.284   6.761  51.090  1.00  0.00     0.187 C 
HETATM   27  C17 UNL     1      23.659   5.540  51.732  1.00  0.00     0.149 C 
ENDBRANCH  16  22
ENDBRANCH   9  11
ENDBRANCH   6   9
ENDBRANCH   4   6
ENDBRANCH   1   4
TORSDOF 8
ENDMDL
MODEL 6
REMARK VINA RESULT:      -7.0      1.814      2.489
REMARK  8 active torsions:
REMARK  status: ('A' for Active; 'I' for Inactive)
REMARK    1  A    between atoms: C2_2  and  C3_3 
REMARK    2  A    between atoms: C2_2  and  S1_6 
REMARK    3  A    between atoms: S1_6  and  N1_9 
REMARK    4  A    between atoms: N1_9  and  C5_10 
REMARK    5  A    between atoms: C7_12  and  C8_13 
REMARK    6  A    between atoms: C8_13  and  O4_15 
REMARK    7  A    between atoms: O4_15  and  C9_16 
REMARK    8  A    between atoms: C13_20  and  N2_21 
ROOT
HETATM    1  C3  UNL     1      25.039   4.847  49.025  1.00  0.00     0.032 C 
HETATM    2  C4  UNL     1      23.876   5.321  48.641  1.00  0.00     0.165 C 
HETATM    3 BR1  UNL     1      22.149   5.906  48.158  1.00  0.00    -0.172 Br
ENDROOT
BRANCH   1   4
HETATM    4  C2  UNL     1      25.182   3.704  49.865  1.00  0.00     0.070 C 
HETATM    5  C1  UNL     1      26.421   3.237  49.866  1.00  0.00     0.038 C 
BRANCH   4   6
HETATM    6  S1  UNL     1      24.091   2.830  50.892  1.00  0.00     0.262 S 
HETATM    7  O1  UNL     1      23.675   3.781  51.993  1.00  0.00    -0.200 OA
HETATM    8  O2  UNL     1      22.906   2.409  50.078  1.00  0.00    -0.200 OA
BRANCH   6   9
HETATM    9  N1  UNL     1      24.828   1.446  51.613  1.00  0.00    -0.278 N 
HETATM   10  H5  UNL     1      25.748   1.134  51.172  1.00  0.00     0.179 HD
BRANCH   9  11
HETATM   11  C5  UNL     1      24.426   0.633  52.701  1.00  0.00     0.070 A 
HETATM   12  C6  UNL     1      23.113   0.258  52.900  1.00  0.00     0.050 A 
HETATM   13  C7  UNL     1      22.764  -0.543  53.962  1.00  0.00     0.041 A 
HETATM   14  C11 UNL     1      23.694  -1.001  54.862  1.00  0.00     0.020 A 
HETATM   15  C12 UNL     1      25.006  -0.630  54.668  1.00  0.00     0.033 A 
HETATM   16  C13 UNL     1      25.381   0.170  53.615  1.00  0.00     0.058 A 
BRANCH  13  17
HETATM   17  C8  UNL     1      21.401  -0.976  54.216  1.00  0.00     0.293 C 
HETATM   18  O3  UNL     1      20.789  -1.961  54.661  1.00  0.00    -0.259 OA
BRANCH  17  19
HETATM   19  O4  UNL     1      20.277  -0.242  53.969  1.00  0.00    -0.318 OA
BRANCH  19  20
HETATM   20  C9  UNL     1      19.550  -0.150  52.787  1.00  0.00     0.174 C 
HETATM   21  C10 UNL     1      18.219  -0.825  52.782  1.00  0.00     0.034 C 
ENDBRANCH  19  20
ENDBRANCH  17  19
ENDBRANCH  13  17
BRANCH  16  22
HETATM   22  N2  UNL     1      26.765   0.504  53.495  1.00  0.00    -0.375 N 
HETATM   23  C14 UNL     1      27.991  -0.175  53.119  1.00  0.00     0.149 C 
HETATM   24  C15 UNL     1      28.988   0.179  54.225  1.00  0.00     0.187 C 
HETATM   25  O5  UNL     1      29.320   1.501  54.069  1.00  0.00    -0.388 OA
HETATM   26  C16 UNL     1      28.357   2.279  53.472  1.00  0.00     0.187 C 
HETATM   27  C17 UNL     1      26.938   1.915  53.859  1.00  0.00     0.149 C 
ENDBRANCH  16  22
ENDBRANCH   9  11
ENDBRANCH   6   9
ENDBRANCH   4   6
ENDBRANCH   1   4
TORSDOF 8
ENDMDL
MODEL 7
REMARK VINA RESULT:      -6.8      2.855      6.335
REMARK  8 active torsions:
REMARK  status: ('A' for Active; 'I' for Inactive)
REMARK    1  A    between atoms: C2_2  and  C3_3 
REMARK    2  A    between atoms: C2_2  and  S1_6 
REMARK    3  A    between atoms: S1_6  and  N1_9 
REMARK    4  A    between atoms: N1_9  and  C5_10 
REMARK    5  A    between atoms: C7_12  and  C8_13 
REMARK    6  A    between atoms: C8_13  and  O4_15 
REMARK    7  A    between atoms: O4_15  and  C9_16 
REMARK    8  A    between atoms: C13_20  and  N2_21 
ROOT
HETATM    1  C3  UNL     1      20.948   0.599  50.200  1.00  0.00     0.032 C 
HETATM    2  C4  UNL     1      21.518   1.166  49.162  1.00  0.00     0.165 C 
HETATM    3 BR1  UNL     1      22.382   2.072  47.752  1.00  0.00    -0.172 Br
ENDROOT
BRANCH   1   4
HETATM    4  C2  UNL     1      21.037   1.119  51.526  1.00  0.00     0.070 C 
HETATM    5  C1  UNL     1      20.155   2.083  51.744  1.00  0.00     0.038 C 
BRANCH   4   6
HETATM    6  S1  UNL     1      22.026   0.734  52.897  1.00  0.00     0.262 S 
HETATM    7  O1  UNL     1      21.143   0.860  54.119  1.00  0.00    -0.200 OA
HETATM    8  O2  UNL     1      22.526  -0.670  52.744  1.00  0.00    -0.200 OA
BRANCH   6   9
HETATM    9  N1  UNL     1      23.360   1.814  53.072  1.00  0.00    -0.278 N 
HETATM   10  H5  UNL     1      23.533   2.174  54.062  1.00  0.00     0.179 HD
BRANCH   9  11
HETATM   11  C5  UNL     1      24.283   2.322  52.125  1.00  0.00     0.070 A 
HETATM   12  C6  UNL     1      23.948   3.308  51.219  1.00  0.00     0.050 A 
HETATM   13  C7  UNL     1      24.876   3.784  50.323  1.00  0.00     0.041 A 
HETATM   14  C11 UNL     1      26.162   3.308  50.288  1.00  0.00     0.020 A 
HETATM   15  C12 UNL     1      26.503   2.324  51.189  1.00  0.00     0.033 A 
HETATM   16  C13 UNL     1      25.594   1.831  52.095  1.00  0.00     0.058 A 
BRANCH  13  17
HETATM   17  C8  UNL     1      24.581   4.825  49.353  1.00  0.00     0.293 C 
HETATM   18  O3  UNL     1      23.610   5.467  48.920  1.00  0.00    -0.259 OA
BRANCH  17  19
HETATM   19  O4  UNL     1      25.496   5.442  48.548  1.00  0.00    -0.318 OA
BRANCH  19  20
HETATM   20  C9  UNL     1      26.134   6.662  48.745  1.00  0.00     0.174 C 
HETATM   21  C10 UNL     1      27.544   6.749  48.264  1.00  0.00     0.034 C 
ENDBRANCH  19  20
ENDBRANCH  17  19
ENDBRANCH  13  17
BRANCH  16  22
HETATM   22  N2  UNL     1      26.038   0.809  52.992  1.00  0.00    -0.375 N 
HETATM   23  C14 UNL     1      25.752  -0.594  53.224  1.00  0.00     0.149 C 
HETATM   24  C15 UNL     1      25.530  -0.701  54.735  1.00  0.00     0.187 C 
HETATM   25  O5  UNL     1      26.751  -0.542  55.340  1.00  0.00    -0.388 OA
HETATM   26  C16 UNL     1      27.657   0.215  54.637  1.00  0.00     0.187 C 
HETATM   27  C17 UNL     1      27.044   1.382  53.892  1.00  0.00     0.149 C 
ENDBRANCH  16  22
ENDBRANCH   9  11
ENDBRANCH   6   9
ENDBRANCH   4   6
ENDBRANCH   1   4
TORSDOF 8
ENDMDL
MODEL 8
REMARK VINA RESULT:      -6.7      2.301      2.836
REMARK  8 active torsions:
REMARK  status: ('A' for Active; 'I' for Inactive)
REMARK    1  A    between atoms: C2_2  and  C3_3 
REMARK    2  A    between atoms: C2_2  and  S1_6 
REMARK    3  A    between atoms: S1_6  and  N1_9 
REMARK    4  A    between atoms: N1_9  and  C5_10 
REMARK    5  A    between atoms: C7_12  and  C8_13 
REMARK    6  A    between atoms: C8_13  and  O4_15 
REMARK    7  A    between atoms: O4_15  and  C9_16 
REMARK    8  A    between atoms: C13_20  and  N2_21 
ROOT
HETATM    1  C3  UNL     1      21.697   4.714  50.437  1.00  0.00     0.032 C 
HETATM    2  C4  UNL     1      21.618   5.989  50.132  1.00  0.00     0.165 C 
HETATM    3 BR1  UNL     1      21.630   7.814  49.657  1.00  0.00    -0.172 Br
ENDROOT
BRANCH   1   4
HETATM    4  C2  UNL     1      22.880   3.937  50.262  1.00  0.00     0.070 C 
HETATM    5  C1  UNL     1      22.971   3.433  49.040  1.00  0.00     0.038 C 
BRANCH   4   6
HETATM    6  S1  UNL     1      24.217   3.546  51.295  1.00  0.00     0.262 S 
HETATM    7  O1  UNL     1      25.449   4.148  50.657  1.00  0.00    -0.200 OA
HETATM    8  O2  UNL     1      23.968   4.147  52.644  1.00  0.00    -0.200 OA
BRANCH   6   9
HETATM    9  N1  UNL     1      24.456   1.843  51.449  1.00  0.00    -0.278 N 
HETATM   10  H5  UNL     1      25.064   1.395  50.694  1.00  0.00     0.179 HD
BRANCH   9  11
HETATM   11  C5  UNL     1      23.983   0.915  52.409  1.00  0.00     0.070 A 
HETATM   12  C6  UNL     1      22.646   0.597  52.535  1.00  0.00     0.050 A 
HETATM   13  C7  UNL     1      22.228  -0.319  53.472  1.00  0.00     0.041 A 
HETATM   14  C11 UNL     1      23.108  -0.951  54.313  1.00  0.00     0.020 A 
HETATM   15  C12 UNL     1      24.443  -0.638  54.191  1.00  0.00     0.033 A 
HETATM   16  C13 UNL     1      24.888   0.274  53.264  1.00  0.00     0.058 A 
BRANCH  13  17
HETATM   17  C8  UNL     1      20.836  -0.698  53.644  1.00  0.00     0.293 C 
HETATM   18  O3  UNL     1      20.160  -1.612  54.145  1.00  0.00    -0.259 OA
BRANCH  17  19
HETATM   19  O4  UNL     1      19.758   0.015  53.202  1.00  0.00    -0.318 OA
BRANCH  19  20
HETATM   20  C9  UNL     1      18.658  -0.442  52.485  1.00  0.00     0.174 C 
HETATM   21  C10 UNL     1      18.442   0.184  51.147  1.00  0.00     0.034 C 
ENDBRANCH  19  20
ENDBRANCH  17  19
ENDBRANCH  13  17
BRANCH  16  22
HETATM   22  N2  UNL     1      26.292   0.536  53.210  1.00  0.00    -0.375 N 
HETATM   23  C14 UNL     1      27.477  -0.132  52.706  1.00  0.00     0.149 C 
HETATM   24  C15 UNL     1      28.482  -0.068  53.859  1.00  0.00     0.187 C 
HETATM   25  O5  UNL     1      28.898   1.235  53.968  1.00  0.00    -0.388 OA
HETATM   26  C16 UNL     1      27.992   2.175  53.538  1.00  0.00     0.187 C 
HETATM   27  C17 UNL     1      26.550   1.833  53.846  1.00  0.00     0.149 C 
ENDBRANCH  16  22
ENDBRANCH   9  11
ENDBRANCH   6   9
ENDBRANCH   4   6
ENDBRANCH   1   4
TORSDOF 8
ENDMDL
MODEL 9
REMARK VINA RESULT:      -6.7      1.503      1.911
REMARK  8 active torsions:
REMARK  status: ('A' for Active; 'I' for Inactive)
REMARK    1  A    between atoms: C2_2  and  C3_3 
REMARK    2  A    between atoms: C2_2  and  S1_6 
REMARK    3  A    between atoms: S1_6  and  N1_9 
REMARK    4  A    between atoms: N1_9  and  C5_10 
REMARK    5  A    between atoms: C7_12  and  C8_13 
REMARK    6  A    between atoms: C8_13  and  O4_15 
REMARK    7  A    between atoms: O4_15  and  C9_16 
REMARK    8  A    between atoms: C13_20  and  N2_21 
ROOT
HETATM    1  C3  UNL     1      22.972   5.753  48.780  1.00  0.00     0.032 C 
HETATM    2  C4  UNL     1      23.846   6.585  48.263  1.00  0.00     0.165 C 
HETATM    3 BR1  UNL     1      25.193   7.690  47.540  1.00  0.00    -0.172 Br
ENDROOT
BRANCH   1   4
HETATM    4  C2  UNL     1      23.313   4.454  49.261  1.00  0.00     0.070 C 
HETATM    5  C1  UNL     1      22.822   3.493  48.493  1.00  0.00     0.038 C 
BRANCH   4   6
HETATM    6  S1  UNL     1      24.248   3.886  50.606  1.00  0.00     0.262 S 
HETATM    7  O1  UNL     1      25.679   4.304  50.348  1.00  0.00    -0.200 OA
HETATM    8  O2  UNL     1      23.723   4.525  51.855  1.00  0.00    -0.200 OA
BRANCH   6   9
HETATM    9  N1  UNL     1      24.200   2.168  50.763  1.00  0.00    -0.278 N 
HETATM   10  H5  UNL     1      24.765   1.624  50.039  1.00  0.00     0.179 HD
BRANCH   9  11
HETATM   11  C5  UNL     1      23.535   1.332  51.693  1.00  0.00     0.070 A 
HETATM   12  C6  UNL     1      22.166   1.153  51.681  1.00  0.00     0.050 A 
HETATM   13  C7  UNL     1      21.558   0.323  52.593  1.00  0.00     0.041 A 
HETATM   14  C11 UNL     1      22.273  -0.357  53.546  1.00  0.00     0.020 A 
HETATM   15  C12 UNL     1      23.639  -0.183  53.563  1.00  0.00     0.033 A 
HETATM   16  C13 UNL     1      24.272   0.641  52.663  1.00  0.00     0.058 A 
BRANCH  13  17
HETATM   17  C8  UNL     1      20.124   0.091  52.622  1.00  0.00     0.293 C 
HETATM   18  O3  UNL     1      19.072   0.618  52.222  1.00  0.00    -0.259 OA
BRANCH  17  19
HETATM   19  O4  UNL     1      19.504  -0.970  53.217  1.00  0.00    -0.318 OA
BRANCH  19  20
HETATM   20  C9  UNL     1      18.141  -1.234  53.303  1.00  0.00     0.174 C 
HETATM   21  C10 UNL     1      17.767  -2.627  53.690  1.00  0.00     0.034 C 
ENDBRANCH  19  20
ENDBRANCH  17  19
ENDBRANCH  13  17
BRANCH  16  22
HETATM   22  N2  UNL     1      25.693   0.761  52.758  1.00  0.00    -0.375 N 
HETATM   23  C14 UNL     1      26.853   0.093  52.198  1.00  0.00     0.149 C 
HETATM   24  C15 UNL     1      27.758  -0.190  53.400  1.00  0.00     0.187 C 
HETATM   25  O5  UNL     1      28.277   1.012  53.813  1.00  0.00    -0.388 OA
HETATM   26  C16 UNL     1      27.497   2.109  53.539  1.00  0.00     0.187 C 
HETATM   27  C17 UNL     1      26.009   1.863  53.673  1.00  0.00     0.149 C 
ENDBRANCH  16  22
ENDBRANCH   9  11
ENDBRANCH   6   9
ENDBRANCH   4   6
ENDBRANCH   1   4
TORSDOF 8
ENDMDL
