MODEL 1
REMARK VINA RESULT:      -8.4      0.000      0.000
REMARK  2 active torsions:
REMARK  status: ('A' for Active; 'I' for Inactive)
REMARK    1  A    between atoms: C4_6  and  N3_7 
REMARK    2  A    between atoms: N3_7  and  C5_8 
ROOT
HETATM    1  N1  UNL     1      26.820  -0.187  55.347  1.00  0.00    -0.191 NA
HETATM    2  C1  UNL     1      26.646   0.443  54.391  1.00  0.00     0.102 C 
HETATM    3  C2  UNL     1      26.432   1.215  53.201  1.00  0.00     0.073 A 
HETATM    4  C3  UNL     1      27.446   1.945  52.620  1.00  0.00     0.142 A 
HETATM    5  N2  UNL     1      27.201   2.649  51.515  1.00  0.00    -0.241 NA
HETATM    6  C4  UNL     1      26.056   2.753  50.855  1.00  0.00     0.139 A 
HETATM    7  C11 UNL     1      25.041   2.028  51.431  1.00  0.00     0.022 A 
HETATM    8  C12 UNL     1      23.756   1.971  50.936  1.00  0.00     0.016 A 
HETATM    9  C13 UNL     1      22.700   1.262  51.466  1.00  0.00     0.001 A 
HETATM   10  C14 UNL     1      22.943   0.524  52.620  1.00  0.00     0.001 A 
HETATM   11  C15 UNL     1      24.206   0.534  53.171  1.00  0.00     0.014 A 
HETATM   12  C16 UNL     1      25.207   1.273  52.573  1.00  0.00     0.000 A 
ENDROOT
BRANCH   6  13
HETATM   13  N3  UNL     1      25.816   3.496  49.698  1.00  0.00    -0.340 N 
HETATM   14  H2  UNL     1      25.139   3.190  48.976  1.00  0.00     0.167 HD
BRANCH  13  15
HETATM   15  C5  UNL     1      26.408   4.718  49.315  1.00  0.00     0.035 A 
HETATM   16  C6  UNL     1      27.604   4.788  48.640  1.00  0.00     0.029 A 
HETATM   17  C7  UNL     1      28.209   5.965  48.260  1.00  0.00     0.004 A 
HETATM   18  C8  UNL     1      27.624   7.180  48.547  1.00  0.00     0.019 A 
HETATM   19  C9  UNL     1      26.424   7.162  49.221  1.00  0.00     0.013 A 
HETATM   20 BR1  UNL     1      25.548   8.796  49.655  1.00  0.00    -0.051 Br
HETATM   21  C10 UNL     1      25.872   5.961  49.571  1.00  0.00     0.048 A 
ENDBRANCH  13  15
ENDBRANCH   6  13
TORSDOF 2
ENDMDL
MODEL 2
REMARK VINA RESULT:      -8.0      2.155      3.501
REMARK  2 active torsions:
REMARK  status: ('A' for Active; 'I' for Inactive)
REMARK    1  A    between atoms: C4_6  and  N3_7 
REMARK    2  A    between atoms: N3_7  and  C5_8 
ROOT
HETATM    1  N1  UNL     1      22.294  -1.612  55.353  1.00  0.00    -0.191 NA
HETATM    2  C1  UNL     1      22.606  -0.897  54.498  1.00  0.00     0.102 C 
HETATM    3  C2  UNL     1      22.997  -0.005  53.445  1.00  0.00     0.073 A 
HETATM    4  C3  UNL     1      22.071   0.751  52.757  1.00  0.00     0.142 A 
HETATM    5  N2  UNL     1      22.479   1.566  51.785  1.00  0.00    -0.241 NA
HETATM    6  C4  UNL     1      23.719   1.768  51.360  1.00  0.00     0.139 A 
HETATM    7  C11 UNL     1      24.645   1.017  52.043  1.00  0.00     0.022 A 
HETATM    8  C12 UNL     1      26.000   1.047  51.790  1.00  0.00     0.016 A 
HETATM    9  C13 UNL     1      26.975   0.321  52.440  1.00  0.00     0.001 A 
HETATM   10  C14 UNL     1      26.561  -0.535  53.457  1.00  0.00     0.001 A 
HETATM   11  C15 UNL     1      25.220  -0.616  53.763  1.00  0.00     0.014 A 
HETATM   12  C16 UNL     1      24.311   0.149  53.061  1.00  0.00     0.000 A 
ENDROOT
BRANCH   6  13
HETATM   13  N3  UNL     1      24.130   2.628  50.340  1.00  0.00    -0.340 N 
HETATM   14  H2  UNL     1      24.272   2.302  49.367  1.00  0.00     0.167 HD
BRANCH  13  15
HETATM   15  C5  UNL     1      24.412   4.007  50.431  1.00  0.00     0.035 A 
HETATM   16  C6  UNL     1      23.747   4.848  51.293  1.00  0.00     0.029 A 
HETATM   17  C7  UNL     1      23.995   6.198  51.399  1.00  0.00     0.004 A 
HETATM   18  C8  UNL     1      24.959   6.799  50.619  1.00  0.00     0.019 A 
HETATM   19  C9  UNL     1      25.653   5.998  49.740  1.00  0.00     0.013 A 
HETATM   20 BR1  UNL     1      27.002   6.748  48.625  1.00  0.00    -0.051 Br
HETATM   21  C10 UNL     1      25.362   4.664  49.680  1.00  0.00     0.048 A 
ENDBRANCH  13  15
ENDBRANCH   6  13
TORSDOF 2
ENDMDL
MODEL 3
REMARK VINA RESULT:      -7.8      4.152      6.730
REMARK  2 active torsions:
REMARK  status: ('A' for Active; 'I' for Inactive)
REMARK    1  A    between atoms: C4_6  and  N3_7 
REMARK    2  A    between atoms: N3_7  and  C5_8 
ROOT
HETATM    1  N1  UNL     1      28.048  -1.255  53.408  1.00  0.00    -0.191 NA
HETATM    2  C1  UNL     1      27.004  -0.770  53.284  1.00  0.00     0.102 C 
HETATM    3  C2  UNL     1      25.713  -0.161  53.138  1.00  0.00     0.073 A 
HETATM    4  C3  UNL     1      24.612  -0.628  53.823  1.00  0.00     0.142 A 
HETATM    5  N2  UNL     1      23.432  -0.032  53.655  1.00  0.00    -0.241 NA
HETATM    6  C4  UNL     1      23.148   1.005  52.880  1.00  0.00     0.139 A 
HETATM    7  C11 UNL     1      24.243   1.474  52.194  1.00  0.00     0.022 A 
HETATM    8  C12 UNL     1      24.209   2.543  51.325  1.00  0.00     0.016 A 
HETATM    9  C13 UNL     1      25.271   3.059  50.613  1.00  0.00     0.001 A 
HETATM   10  C14 UNL     1      26.508   2.445  50.779  1.00  0.00     0.001 A 
HETATM   11  C15 UNL     1      26.616   1.369  51.633  1.00  0.00     0.014 A 
HETATM   12  C16 UNL     1      25.499   0.918  52.308  1.00  0.00     0.000 A 
ENDROOT
BRANCH   6  13
HETATM   13  N3  UNL     1      21.904   1.618  52.716  1.00  0.00    -0.340 N 
HETATM   14  H2  UNL     1      21.725   2.594  53.013  1.00  0.00     0.167 HD
BRANCH  13  15
HETATM   15  C5  UNL     1      20.735   1.066  52.153  1.00  0.00     0.035 A 
HETATM   16  C6  UNL     1      20.291   1.387  50.891  1.00  0.00     0.029 A 
HETATM   17  C7  UNL     1      19.151   0.870  50.319  1.00  0.00     0.004 A 
HETATM   18  C8  UNL     1      18.366  -0.031  51.005  1.00  0.00     0.019 A 
HETATM   19  C9  UNL     1      18.769  -0.386  52.273  1.00  0.00     0.013 A 
HETATM   20 BR1  UNL     1      17.743  -1.626  53.290  1.00  0.00    -0.051 Br
HETATM   21  C10 UNL     1      19.911   0.162  52.788  1.00  0.00     0.048 A 
ENDBRANCH  13  15
ENDBRANCH   6  13
TORSDOF 2
ENDMDL
MODEL 4
REMARK VINA RESULT:      -7.7      3.600      7.163
REMARK  2 active torsions:
REMARK  status: ('A' for Active; 'I' for Inactive)
REMARK    1  A    between atoms: C4_6  and  N3_7 
REMARK    2  A    between atoms: N3_7  and  C5_8 
ROOT
HETATM    1  N1  UNL     1      26.894   3.658  49.778  1.00  0.00    -0.191 NA
HETATM    2  C1  UNL     1      26.066   3.162  50.418  1.00  0.00     0.102 C 
HETATM    3  C2  UNL     1      25.038   2.542  51.204  1.00  0.00     0.073 A 
HETATM    4  C3  UNL     1      23.778   3.090  51.308  1.00  0.00     0.142 A 
HETATM    5  N2  UNL     1      22.855   2.479  52.050  1.00  0.00    -0.241 NA
HETATM    6  C4  UNL     1      22.980   1.355  52.741  1.00  0.00     0.139 A 
HETATM    7  C11 UNL     1      24.236   0.805  52.641  1.00  0.00     0.022 A 
HETATM    8  C12 UNL     1      24.618  -0.363  53.265  1.00  0.00     0.016 A 
HETATM    9  C13 UNL     1      25.858  -0.964  53.199  1.00  0.00     0.001 A 
HETATM   10  C14 UNL     1      26.831  -0.335  52.428  1.00  0.00     0.001 A 
HETATM   11  C15 UNL     1      26.518   0.838  51.775  1.00  0.00     0.014 A 
HETATM   12  C16 UNL     1      25.249   1.369  51.895  1.00  0.00     0.000 A 
ENDROOT
BRANCH   6  13
HETATM   13  N3  UNL     1      22.002   0.727  53.515  1.00  0.00    -0.340 N 
HETATM   14  H2  UNL     1      22.131   0.542  54.525  1.00  0.00     0.167 HD
BRANCH  13  15
HETATM   15  C5  UNL     1      20.738   0.259  53.097  1.00  0.00     0.035 A 
HETATM   16  C6  UNL     1      20.060  -0.741  53.754  1.00  0.00     0.029 A 
HETATM   17  C7  UNL     1      18.830  -1.224  53.367  1.00  0.00     0.004 A 
HETATM   18  C8  UNL     1      18.190  -0.709  52.260  1.00  0.00     0.019 A 
HETATM   19  C9  UNL     1      18.828   0.296  51.569  1.00  0.00     0.013 A 
HETATM   20 BR1  UNL     1      18.014   1.064  50.028  1.00  0.00    -0.051 Br
HETATM   21  C10 UNL     1      20.049   0.733  52.002  1.00  0.00     0.048 A 
ENDBRANCH  13  15
ENDBRANCH   6  13
TORSDOF 2
ENDMDL
MODEL 5
REMARK VINA RESULT:      -7.7      4.670      6.599
REMARK  2 active torsions:
REMARK  status: ('A' for Active; 'I' for Inactive)
REMARK    1  A    between atoms: C4_6  and  N3_7 
REMARK    2  A    between atoms: N3_7  and  C5_8 
ROOT
HETATM    1  N1  UNL     1      19.090   1.247  49.818  1.00  0.00    -0.191 NA
HETATM    2  C1  UNL     1      20.096   1.189  50.389  1.00  0.00     0.102 C 
HETATM    3  C2  UNL     1      21.338   1.124  51.105  1.00  0.00     0.073 A 
HETATM    4  C3  UNL     1      22.472   1.755  50.641  1.00  0.00     0.142 A 
HETATM    5  N2  UNL     1      23.605   1.667  51.338  1.00  0.00    -0.241 NA
HETATM    6  C4  UNL     1      23.809   1.024  52.479  1.00  0.00     0.139 A 
HETATM    7  C11 UNL     1      22.681   0.393  52.945  1.00  0.00     0.022 A 
HETATM    8  C12 UNL     1      22.633  -0.340  54.111  1.00  0.00     0.016 A 
HETATM    9  C13 UNL     1      21.534  -0.991  54.630  1.00  0.00     0.001 A 
HETATM   10  C14 UNL     1      20.346  -0.908  53.910  1.00  0.00     0.001 A 
HETATM   11  C15 UNL     1      20.320  -0.190  52.734  1.00  0.00     0.014 A 
HETATM   12  C16 UNL     1      21.469   0.432  52.289  1.00  0.00     0.000 A 
ENDROOT
BRANCH   6  13
HETATM   13  N3  UNL     1      25.004   0.942  53.197  1.00  0.00    -0.340 N 
HETATM   14  H2  UNL     1      25.249   1.620  53.942  1.00  0.00     0.167 HD
BRANCH  13  15
HETATM   15  C5  UNL     1      26.034  -0.011  53.057  1.00  0.00     0.035 A 
HETATM   16  C6  UNL     1      25.811  -1.286  52.590  1.00  0.00     0.029 A 
HETATM   17  C7  UNL     1      26.794  -2.239  52.450  1.00  0.00     0.004 A 
HETATM   18  C8  UNL     1      28.102  -1.955  52.781  1.00  0.00     0.019 A 
HETATM   19  C9  UNL     1      28.376  -0.692  53.253  1.00  0.00     0.013 A 
HETATM   20 BR1  UNL     1      30.155  -0.216  53.733  1.00  0.00    -0.051 Br
HETATM   21  C10 UNL     1      27.357   0.213  53.371  1.00  0.00     0.048 A 
ENDBRANCH  13  15
ENDBRANCH   6  13
TORSDOF 2
ENDMDL
MODEL 6
REMARK VINA RESULT:      -7.7      4.455      5.908
REMARK  2 active torsions:
REMARK  status: ('A' for Active; 'I' for Inactive)
REMARK    1  A    between atoms: C4_6  and  N3_7 
REMARK    2  A    between atoms: N3_7  and  C5_8 
ROOT
HETATM    1  N1  UNL     1      19.433  -1.046  53.703  1.00  0.00    -0.191 NA
HETATM    2  C1  UNL     1      20.470  -0.570  53.505  1.00  0.00     0.102 C 
HETATM    3  C2  UNL     1      21.753   0.019  53.250  1.00  0.00     0.073 A 
HETATM    4  C3  UNL     1      22.920  -0.696  53.407  1.00  0.00     0.142 A 
HETATM    5  N2  UNL     1      24.090  -0.108  53.160  1.00  0.00    -0.241 NA
HETATM    6  C4  UNL     1      24.306   1.138  52.761  1.00  0.00     0.139 A 
HETATM    7  C11 UNL     1      23.144   1.856  52.604  1.00  0.00     0.022 A 
HETATM    8  C12 UNL     1      23.100   3.171  52.196  1.00  0.00     0.016 A 
HETATM    9  C13 UNL     1      21.970   3.941  52.018  1.00  0.00     0.001 A 
HETATM   10  C14 UNL     1      20.742   3.338  52.274  1.00  0.00     0.001 A 
HETATM   11  C15 UNL     1      20.711   2.023  52.685  1.00  0.00     0.014 A 
HETATM   12  C16 UNL     1      21.893   1.326  52.837  1.00  0.00     0.000 A 
ENDROOT
BRANCH   6  13
HETATM   13  N3  UNL     1      25.540   1.739  52.506  1.00  0.00    -0.340 N 
HETATM   14  H2  UNL     1      25.629   2.596  51.931  1.00  0.00     0.167 HD
BRANCH  13  15
HETATM   15  C5  UNL     1      26.813   1.324  52.950  1.00  0.00     0.035 A 
HETATM   16  C6  UNL     1      27.738   2.194  53.480  1.00  0.00     0.029 A 
HETATM   17  C7  UNL     1      28.989   1.820  53.915  1.00  0.00     0.004 A 
HETATM   18  C8  UNL     1      29.395   0.505  53.841  1.00  0.00     0.019 A 
HETATM   19  C9  UNL     1      28.504  -0.405  53.319  1.00  0.00     0.013 A 
HETATM   20 BR1  UNL     1      28.984  -2.242  53.181  1.00  0.00    -0.051 Br
HETATM   21  C10 UNL     1      27.275   0.027  52.903  1.00  0.00     0.048 A 
ENDBRANCH  13  15
ENDBRANCH   6  13
TORSDOF 2
ENDMDL
MODEL 7
REMARK VINA RESULT:      -7.6      1.761      2.853
REMARK  2 active torsions:
REMARK  status: ('A' for Active; 'I' for Inactive)
REMARK    1  A    between atoms: C4_6  and  N3_7 
REMARK    2  A    between atoms: N3_7  and  C5_8 
ROOT
HETATM    1  N1  UNL     1      21.043   0.206  54.138  1.00  0.00    -0.191 NA
HETATM    2  C1  UNL     1      21.883   0.645  53.474  1.00  0.00     0.102 C 
HETATM    3  C2  UNL     1      22.928   1.195  52.659  1.00  0.00     0.073 A 
HETATM    4  C3  UNL     1      22.694   2.241  51.792  1.00  0.00     0.142 A 
HETATM    5  N2  UNL     1      23.695   2.719  51.054  1.00  0.00    -0.241 NA
HETATM    6  C4  UNL     1      24.957   2.312  51.032  1.00  0.00     0.139 A 
HETATM    7  C11 UNL     1      25.195   1.269  51.895  1.00  0.00     0.022 A 
HETATM    8  C12 UNL     1      26.424   0.669  52.058  1.00  0.00     0.016 A 
HETATM    9  C13 UNL     1      26.725  -0.375  52.907  1.00  0.00     0.001 A 
HETATM   10  C14 UNL     1      25.687  -0.884  53.683  1.00  0.00     0.001 A 
HETATM   11  C15 UNL     1      24.430  -0.332  53.571  1.00  0.00     0.014 A 
HETATM   12  C16 UNL     1      24.219   0.714  52.695  1.00  0.00     0.000 A 
ENDROOT
BRANCH   6  13
HETATM   13  N3  UNL     1      25.994   2.825  50.252  1.00  0.00    -0.340 N 
HETATM   14  H2  UNL     1      26.774   2.235  49.911  1.00  0.00     0.167 HD
BRANCH  13  15
HETATM   15  C5  UNL     1      26.169   4.153  49.809  1.00  0.00     0.035 A 
HETATM   16  C6  UNL     1      27.183   4.529  48.959  1.00  0.00     0.029 A 
HETATM   17  C7  UNL     1      27.383   5.817  48.516  1.00  0.00     0.004 A 
HETATM   18  C8  UNL     1      26.544   6.835  48.915  1.00  0.00     0.019 A 
HETATM   19  C9  UNL     1      25.512   6.510  49.766  1.00  0.00     0.013 A 
HETATM   20 BR1  UNL     1      24.306   7.856  50.366  1.00  0.00    -0.051 Br
HETATM   21  C10 UNL     1      25.365   5.212  50.172  1.00  0.00     0.048 A 
ENDBRANCH  13  15
ENDBRANCH   6  13
TORSDOF 2
ENDMDL
MODEL 8
REMARK VINA RESULT:      -7.6      6.464     10.230
REMARK  2 active torsions:
REMARK  status: ('A' for Active; 'I' for Inactive)
REMARK    1  A    between atoms: C4_6  and  N3_7 
REMARK    2  A    between atoms: N3_7  and  C5_8 
ROOT
HETATM    1  N1  UNL     1      22.880   1.981  49.931  1.00  0.00    -0.191 NA
HETATM    2  C1  UNL     1      22.091   1.435  50.579  1.00  0.00     0.102 C 
HETATM    3  C2  UNL     1      21.115   0.750  51.378  1.00  0.00     0.073 A 
HETATM    4  C3  UNL     1      19.775   0.776  51.061  1.00  0.00     0.142 A 
HETATM    5  N2  UNL     1      18.904   0.126  51.832  1.00  0.00    -0.241 NA
HETATM    6  C4  UNL     1      19.156  -0.584  52.924  1.00  0.00     0.139 A 
HETATM    7  C11 UNL     1      20.492  -0.611  53.245  1.00  0.00     0.022 A 
HETATM    8  C12 UNL     1      21.010  -1.281  54.332  1.00  0.00     0.016 A 
HETATM    9  C13 UNL     1      22.336  -1.347  54.702  1.00  0.00     0.001 A 
HETATM   10  C14 UNL     1      23.255  -0.671  53.905  1.00  0.00     0.001 A 
HETATM   11  C15 UNL     1      22.807   0.020  52.801  1.00  0.00     0.014 A 
HETATM   12  C16 UNL     1      21.459   0.032  52.503  1.00  0.00     0.000 A 
ENDROOT
BRANCH   6  13
HETATM   13  N3  UNL     1      18.231  -1.260  53.721  1.00  0.00    -0.340 N 
HETATM   14  H2  UNL     1      18.157  -1.097  54.742  1.00  0.00     0.167 HD
BRANCH  13  15
HETATM   15  C5  UNL     1      17.285  -2.227  53.320  1.00  0.00     0.035 A 
HETATM   16  C6  UNL     1      17.380  -3.553  53.672  1.00  0.00     0.029 A 
HETATM   17  C7  UNL     1      16.477  -4.520  53.290  1.00  0.00     0.004 A 
HETATM   18  C8  UNL     1      15.391  -4.197  52.506  1.00  0.00     0.019 A 
HETATM   19  C9  UNL     1      15.252  -2.881  52.127  1.00  0.00     0.013 A 
HETATM   20 BR1  UNL     1      13.779  -2.348  51.044  1.00  0.00    -0.051 Br
HETATM   21  C10 UNL     1      16.181  -1.966  52.538  1.00  0.00     0.048 A 
ENDBRANCH  13  15
ENDBRANCH   6  13
TORSDOF 2
ENDMDL
MODEL 9
REMARK VINA RESULT:      -7.6      3.277      4.383
REMARK  2 active torsions:
REMARK  status: ('A' for Active; 'I' for Inactive)
REMARK    1  A    between atoms: C4_6  and  N3_7 
REMARK    2  A    between atoms: N3_7  and  C5_8 
ROOT
HETATM    1  N1  UNL     1      22.082  -1.950  55.265  1.00  0.00    -0.191 NA
HETATM    2  C1  UNL     1      22.299  -1.084  54.528  1.00  0.00     0.102 C 
HETATM    3  C2  UNL     1      22.572  -0.005  53.622  1.00  0.00     0.073 A 
HETATM    4  C3  UNL     1      21.591   0.886  53.243  1.00  0.00     0.142 A 
HETATM    5  N2  UNL     1      21.889   1.873  52.398  1.00  0.00    -0.241 NA
HETATM    6  C4  UNL     1      23.061   2.137  51.838  1.00  0.00     0.139 A 
HETATM    7  C11 UNL     1      24.043   1.251  52.213  1.00  0.00     0.022 A 
HETATM    8  C12 UNL     1      25.346   1.311  51.770  1.00  0.00     0.016 A 
HETATM    9  C13 UNL     1      26.372   0.456  52.110  1.00  0.00     0.001 A 
HETATM   10  C14 UNL     1      26.073  -0.580  52.991  1.00  0.00     0.001 A 
HETATM   11  C15 UNL     1      24.788  -0.701  53.475  1.00  0.00     0.014 A 
HETATM   12  C16 UNL     1      23.821   0.203  53.081  1.00  0.00     0.000 A 
ENDROOT
BRANCH   6  13
HETATM   13  N3  UNL     1      23.357   3.177  50.955  1.00  0.00    -0.340 N 
HETATM   14  H2  UNL     1      23.940   3.987  51.230  1.00  0.00     0.167 HD
BRANCH  13  15
HETATM   15  C5  UNL     1      22.949   3.313  49.612  1.00  0.00     0.035 A 
HETATM   16  C6  UNL     1      22.553   2.245  48.840  1.00  0.00     0.029 A 
HETATM   17  C7  UNL     1      22.156   2.346  47.526  1.00  0.00     0.004 A 
HETATM   18  C8  UNL     1      22.132   3.569  46.891  1.00  0.00     0.019 A 
HETATM   19  C9  UNL     1      22.519   4.670  47.621  1.00  0.00     0.013 A 
HETATM   20 BR1  UNL     1      22.516   6.398  46.821  1.00  0.00    -0.051 Br
HETATM   21  C10 UNL     1      22.903   4.506  48.924  1.00  0.00     0.048 A 
ENDBRANCH  13  15
ENDBRANCH   6  13
TORSDOF 2
ENDMDL
