MODEL 1
REMARK VINA RESULT:      -8.2      0.000      0.000
REMARK  8 active torsions:
REMARK  status: ('A' for Active; 'I' for Inactive)
REMARK    1  A    between atoms: C3_3  and  C4_4 
REMARK    2  A    between atoms: C4_4  and  N1_5 
REMARK    3  A    between atoms: N1_5  and  C5_6 
REMARK    4  A    between atoms: C5_6  and  C6_7 
REMARK    5  A    between atoms: C7_8  and  C8_9 
REMARK    6  A    between atoms: C8_9  and  N2_10 
REMARK    7  A    between atoms: C10_13  and  C11_14 
REMARK    8  A    between atoms: C19_23  and  O1_24 
ROOT
HETATM    1  N2  UNL     1      24.673   2.865  52.442  1.00  0.00     0.120 NA
HETATM    2  C9  UNL     1      25.231   2.549  51.195  1.00  0.00     0.422 C 
HETATM    3  N3  UNL     1      25.759   3.545  50.384  1.00  0.00    -0.258 NA
HETATM    4  C10 UNL     1      25.337   4.334  49.515  1.00  0.00     0.080 C 
HETATM    5  C18 UNL     1      23.997   4.624  48.954  1.00  0.00     0.146 C 
HETATM    6  N4  UNL     1      23.424   3.855  49.651  1.00  0.00    -0.258 NA
HETATM    7  C19 UNL     1      22.265   3.234  50.085  1.00  0.00     0.306 C 
HETATM    8  S1  UNL     1      22.086   3.488  51.906  1.00  0.00    -0.085 SA
HETATM    9  C20 UNL     1      23.729   3.904  52.586  1.00  0.00     0.353 C 
ENDROOT
BRANCH   1  10
HETATM   10  C8  UNL     1      24.177   1.672  53.133  1.00  0.00     0.302 C 
BRANCH  10  11
HETATM   11  C7  UNL     1      24.800   0.427  52.666  1.00  0.00     0.001 C 
HETATM   12  C6  UNL     1      25.601  -0.256  53.476  1.00  0.00    -0.011 C 
BRANCH  12  13
HETATM   13  C5  UNL     1      26.114  -0.139  54.859  1.00  0.00     0.135 C 
BRANCH  13  14
HETATM   14  N1  UNL     1      27.226   0.767  54.953  1.00  0.00    -0.418 NA
BRANCH  14  15
HETATM   15  C4  UNL     1      28.391   0.429  54.612  1.00  0.00     0.274 C 
BRANCH  15  16
HETATM   16  C3  UNL     1      29.556  -0.045  53.916  1.00  0.00     0.014 C 
HETATM   17  C2  UNL     1      29.799  -1.174  53.337  1.00  0.00    -0.029 C 
HETATM   18  C1  UNL     1      28.954  -2.373  53.188  1.00  0.00     0.036 C 
ENDBRANCH  15  16
ENDBRANCH  14  15
ENDBRANCH  13  14
ENDBRANCH  12  13
ENDBRANCH  10  11
ENDBRANCH   1  10
BRANCH   4  19
HETATM   19  C11 UNL     1      26.354   5.219  48.928  1.00  0.00    -0.006 A 
HETATM   20  C12 UNL     1      27.634   4.727  48.772  1.00  0.00     0.014 A 
HETATM   21  C13 UNL     1      28.705   5.434  48.218  1.00  0.00     0.007 A 
HETATM   22  C14 UNL     1      28.496   6.722  47.790  1.00  0.00    -0.062 A 
HETATM   23  C15 UNL     1      29.510   7.611  47.175  1.00  0.00     0.048 C 
HETATM   24  C16 UNL     1      27.212   7.230  47.942  1.00  0.00     0.007 A 
HETATM   25  C17 UNL     1      26.168   6.513  48.491  1.00  0.00     0.014 A 
ENDBRANCH   4  19
BRANCH   7  26
HETATM   26  O1  UNL     1      22.120   1.897  49.795  1.00  0.00    -0.366 OA
HETATM   27  H24 UNL     1      22.361   1.289  50.507  1.00  0.00     0.213 HD
ENDBRANCH   7  26
TORSDOF 8
ENDMDL
MODEL 2
REMARK VINA RESULT:      -7.9      2.712      6.742
REMARK  8 active torsions:
REMARK  status: ('A' for Active; 'I' for Inactive)
REMARK    1  A    between atoms: C3_3  and  C4_4 
REMARK    2  A    between atoms: C4_4  and  N1_5 
REMARK    3  A    between atoms: N1_5  and  C5_6 
REMARK    4  A    between atoms: C5_6  and  C6_7 
REMARK    5  A    between atoms: C7_8  and  C8_9 
REMARK    6  A    between atoms: C8_9  and  N2_10 
REMARK    7  A    between atoms: C10_13  and  C11_14 
REMARK    8  A    between atoms: C19_23  and  O1_24 
ROOT
HETATM    1  N2  UNL     1      22.179   1.914  51.627  1.00  0.00     0.120 NA
HETATM    2  C9  UNL     1      22.940   2.100  52.791  1.00  0.00     0.422 C 
HETATM    3  N3  UNL     1      24.082   1.342  53.016  1.00  0.00    -0.258 NA
HETATM    4  C10 UNL     1      24.358   0.238  53.526  1.00  0.00     0.080 C 
HETATM    5  C18 UNL     1      23.549  -0.857  54.110  1.00  0.00     0.146 C 
HETATM    6  N4  UNL     1      22.503  -0.337  53.897  1.00  0.00    -0.258 NA
HETATM    7  C19 UNL     1      21.120  -0.319  53.947  1.00  0.00     0.306 C 
HETATM    8  S1  UNL     1      20.455  -0.091  52.238  1.00  0.00    -0.085 SA
HETATM    9  C20 UNL     1      21.777   0.629  51.205  1.00  0.00     0.353 C 
ENDROOT
BRANCH   1  10
HETATM   10  C8  UNL     1      21.022   2.812  51.586  1.00  0.00     0.302 C 
BRANCH  10  11
HETATM   11  C7  UNL     1      21.002   3.683  50.403  1.00  0.00     0.001 C 
HETATM   12  C6  UNL     1      21.617   4.858  50.437  1.00  0.00    -0.011 C 
BRANCH  12  13
HETATM   13  C5  UNL     1      22.408   5.651  51.407  1.00  0.00     0.135 C 
BRANCH  13  14
HETATM   14  N1  UNL     1      23.777   5.220  51.475  1.00  0.00    -0.418 NA
BRANCH  14  15
HETATM   15  C4  UNL     1      24.412   4.851  50.451  1.00  0.00     0.274 C 
BRANCH  15  16
HETATM   16  C3  UNL     1      25.281   4.195  49.513  1.00  0.00     0.014 C 
HETATM   17  C2  UNL     1      26.169   3.271  49.679  1.00  0.00    -0.029 C 
HETATM   18  C1  UNL     1      26.598   2.566  50.900  1.00  0.00     0.036 C 
ENDBRANCH  15  16
ENDBRANCH  14  15
ENDBRANCH  13  14
ENDBRANCH  12  13
ENDBRANCH  10  11
ENDBRANCH   1  10
BRANCH   4  19
HETATM   19  C11 UNL     1      25.786  -0.111  53.524  1.00  0.00    -0.006 A 
HETATM   20  C12 UNL     1      26.612   0.520  54.433  1.00  0.00     0.014 A 
HETATM   21  C13 UNL     1      27.984   0.289  54.568  1.00  0.00     0.007 A 
HETATM   22  C14 UNL     1      28.583  -0.632  53.743  1.00  0.00    -0.062 A 
HETATM   23  C15 UNL     1      30.018  -1.006  53.753  1.00  0.00     0.048 C 
HETATM   24  C16 UNL     1      27.764  -1.274  52.824  1.00  0.00     0.007 A 
HETATM   25  C17 UNL     1      26.410  -1.031  52.708  1.00  0.00     0.014 A 
ENDBRANCH   4  19
BRANCH   7  26
HETATM   26  O1  UNL     1      20.532   0.594  54.790  1.00  0.00    -0.366 OA
HETATM   27  H24 UNL     1      20.460   0.321  55.715  1.00  0.00     0.213 HD
ENDBRANCH   7  26
TORSDOF 8
ENDMDL
MODEL 3
REMARK VINA RESULT:      -7.8      2.259      6.643
REMARK  8 active torsions:
REMARK  status: ('A' for Active; 'I' for Inactive)
REMARK    1  A    between atoms: C3_3  and  C4_4 
REMARK    2  A    between atoms: C4_4  and  N1_5 
REMARK    3  A    between atoms: N1_5  and  C5_6 
REMARK    4  A    between atoms: C5_6  and  C6_7 
REMARK    5  A    between atoms: C7_8  and  C8_9 
REMARK    6  A    between atoms: C8_9  and  N2_10 
REMARK    7  A    between atoms: C10_13  and  C11_14 
REMARK    8  A    between atoms: C19_23  and  O1_24 
ROOT
HETATM    1  N2  UNL     1      22.784   2.687  51.395  1.00  0.00     0.120 NA
HETATM    2  C9  UNL     1      23.298   2.594  52.697  1.00  0.00     0.422 C 
HETATM    3  N3  UNL     1      24.375   1.761  52.973  1.00  0.00    -0.258 NA
HETATM    4  C10 UNL     1      24.547   0.565  53.279  1.00  0.00     0.080 C 
HETATM    5  C18 UNL     1      23.641  -0.596  53.447  1.00  0.00     0.146 C 
HETATM    6  N4  UNL     1      22.657  -0.002  53.150  1.00  0.00    -0.258 NA
HETATM    7  C19 UNL     1      21.292   0.060  52.932  1.00  0.00     0.306 C 
HETATM    8  S1  UNL     1      20.979   0.668  51.216  1.00  0.00    -0.085 SA
HETATM    9  C20 UNL     1      22.478   1.536  50.638  1.00  0.00     0.353 C 
ENDROOT
BRANCH   1  10
HETATM   10  C8  UNL     1      21.655   3.618  51.322  1.00  0.00     0.302 C 
BRANCH  10  11
HETATM   11  C7  UNL     1      21.700   4.496  50.145  1.00  0.00     0.001 C 
HETATM   12  C6  UNL     1      22.450   5.591  50.164  1.00  0.00    -0.011 C 
BRANCH  12  13
HETATM   13  C5  UNL     1      23.359   6.276  51.111  1.00  0.00     0.135 C 
BRANCH  13  14
HETATM   14  N1  UNL     1      24.629   6.592  50.516  1.00  0.00    -0.418 NA
BRANCH  14  15
HETATM   15  C4  UNL     1      25.386   5.701  50.047  1.00  0.00     0.274 C 
BRANCH  15  16
HETATM   16  C3  UNL     1      26.251   4.899  49.226  1.00  0.00     0.014 C 
HETATM   17  C2  UNL     1      26.712   3.703  49.392  1.00  0.00    -0.029 C 
HETATM   18  C1  UNL     1      26.505   2.743  50.490  1.00  0.00     0.036 C 
ENDBRANCH  15  16
ENDBRANCH  14  15
ENDBRANCH  13  14
ENDBRANCH  12  13
ENDBRANCH  10  11
ENDBRANCH   1  10
BRANCH   4  19
HETATM   19  C11 UNL     1      25.949   0.168  53.481  1.00  0.00    -0.006 A 
HETATM   20  C12 UNL     1      26.475  -0.806  52.655  1.00  0.00     0.014 A 
HETATM   21  C13 UNL     1      27.788  -1.281  52.708  1.00  0.00     0.007 A 
HETATM   22  C14 UNL     1      28.643  -0.757  53.647  1.00  0.00    -0.062 A 
HETATM   23  C15 UNL     1      30.064  -1.135  53.839  1.00  0.00     0.048 C 
HETATM   24  C16 UNL     1      28.126   0.223  54.484  1.00  0.00     0.007 A 
HETATM   25  C17 UNL     1      26.825   0.678  54.414  1.00  0.00     0.014 A 
ENDBRANCH   4  19
BRANCH   7  26
HETATM   26  O1  UNL     1      20.545   0.799  53.820  1.00  0.00    -0.366 OA
HETATM   27  H24 UNL     1      20.632   0.545  54.749  1.00  0.00     0.213 HD
ENDBRANCH   7  26
TORSDOF 8
ENDMDL
MODEL 4
REMARK VINA RESULT:      -7.8      3.599      7.078
REMARK  8 active torsions:
REMARK  status: ('A' for Active; 'I' for Inactive)
REMARK    1  A    between atoms: C3_3  and  C4_4 
REMARK    2  A    between atoms: C4_4  and  N1_5 
REMARK    3  A    between atoms: N1_5  and  C5_6 
REMARK    4  A    between atoms: C5_6  and  C6_7 
REMARK    5  A    between atoms: C7_8  and  C8_9 
REMARK    6  A    between atoms: C8_9  and  N2_10 
REMARK    7  A    between atoms: C10_13  and  C11_14 
REMARK    8  A    between atoms: C19_23  and  O1_24 
ROOT
HETATM    1  N2  UNL     1      24.167   2.095  51.496  1.00  0.00     0.120 NA
HETATM    2  C9  UNL     1      23.514   1.928  52.726  1.00  0.00     0.422 C 
HETATM    3  N3  UNL     1      22.296   1.265  52.795  1.00  0.00    -0.258 NA
HETATM    4  C10 UNL     1      21.089   1.559  52.682  1.00  0.00     0.080 C 
HETATM    5  C18 UNL     1      20.361   2.806  52.351  1.00  0.00     0.146 C 
HETATM    6  N4  UNL     1      21.340   3.457  52.189  1.00  0.00    -0.258 NA
HETATM    7  C19 UNL     1      21.973   4.650  51.880  1.00  0.00     0.306 C 
HETATM    8  S1  UNL     1      23.123   4.375  50.460  1.00  0.00    -0.085 SA
HETATM    9  C20 UNL     1      23.489   2.589  50.362  1.00  0.00     0.353 C 
ENDROOT
BRANCH   1  10
HETATM   10  C8  UNL     1      25.433   2.816  51.646  1.00  0.00     0.302 C 
BRANCH  10  11
HETATM   11  C7  UNL     1      26.615   1.967  51.448  1.00  0.00     0.001 C 
HETATM   12  C6  UNL     1      27.508   1.838  52.421  1.00  0.00    -0.011 C 
BRANCH  12  13
HETATM   13  C5  UNL     1      27.701   2.341  53.800  1.00  0.00     0.135 C 
BRANCH  13  14
HETATM   14  N1  UNL     1      28.786   1.681  54.474  1.00  0.00    -0.418 NA
BRANCH  14  15
HETATM   15  C4  UNL     1      29.051   0.465  54.279  1.00  0.00     0.274 C 
BRANCH  15  16
HETATM   16  C3  UNL     1      29.411  -0.810  53.722  1.00  0.00     0.014 C 
HETATM   17  C2  UNL     1      28.699  -1.707  53.122  1.00  0.00    -0.029 C 
HETATM   18  C1  UNL     1      27.261  -1.728  52.800  1.00  0.00     0.036 C 
ENDBRANCH  15  16
ENDBRANCH  14  15
ENDBRANCH  13  14
ENDBRANCH  12  13
ENDBRANCH  10  11
ENDBRANCH   1  10
BRANCH   4  19
HETATM   19  C11 UNL     1      20.153   0.440  52.862  1.00  0.00    -0.006 A 
HETATM   20  C12 UNL     1      20.511  -0.575  53.728  1.00  0.00     0.014 A 
HETATM   21  C13 UNL     1      19.729  -1.696  54.019  1.00  0.00     0.007 A 
HETATM   22  C14 UNL     1      18.505  -1.824  53.409  1.00  0.00    -0.062 A 
HETATM   23  C15 UNL     1      17.547  -2.938  53.607  1.00  0.00     0.048 C 
HETATM   24  C16 UNL     1      18.133  -0.811  52.536  1.00  0.00     0.007 A 
HETATM   25  C17 UNL     1      18.922   0.289  52.263  1.00  0.00     0.014 A 
ENDBRANCH   4  19
BRANCH   7  26
HETATM   26  O1  UNL     1      22.647   5.287  52.895  1.00  0.00    -0.366 OA
HETATM   27  H24 UNL     1      23.419   4.818  53.240  1.00  0.00     0.213 HD
ENDBRANCH   7  26
TORSDOF 8
ENDMDL
MODEL 5
REMARK VINA RESULT:      -7.6      2.094      3.378
REMARK  8 active torsions:
REMARK  status: ('A' for Active; 'I' for Inactive)
REMARK    1  A    between atoms: C3_3  and  C4_4 
REMARK    2  A    between atoms: C4_4  and  N1_5 
REMARK    3  A    between atoms: N1_5  and  C5_6 
REMARK    4  A    between atoms: C5_6  and  C6_7 
REMARK    5  A    between atoms: C7_8  and  C8_9 
REMARK    6  A    between atoms: C8_9  and  N2_10 
REMARK    7  A    between atoms: C10_13  and  C11_14 
REMARK    8  A    between atoms: C19_23  and  O1_24 
ROOT
HETATM    1  N2  UNL     1      24.550   3.063  52.483  1.00  0.00     0.120 NA
HETATM    2  C9  UNL     1      25.158   2.694  51.273  1.00  0.00     0.422 C 
HETATM    3  N3  UNL     1      25.729   3.653  50.448  1.00  0.00    -0.258 NA
HETATM    4  C10 UNL     1      25.351   4.410  49.532  1.00  0.00     0.080 C 
HETATM    5  C18 UNL     1      24.039   4.689  48.902  1.00  0.00     0.146 C 
HETATM    6  N4  UNL     1      23.429   3.951  49.605  1.00  0.00    -0.258 NA
HETATM    7  C19 UNL     1      22.247   3.357  50.012  1.00  0.00     0.306 C 
HETATM    8  S1  UNL     1      21.994   3.684  51.813  1.00  0.00    -0.085 SA
HETATM    9  C20 UNL     1      23.610   4.114  52.545  1.00  0.00     0.353 C 
ENDROOT
BRANCH   1  10
HETATM   10  C8  UNL     1      24.014   1.902  53.198  1.00  0.00     0.302 C 
BRANCH  10  11
HETATM   11  C7  UNL     1      24.364   0.620  52.573  1.00  0.00     0.001 C 
HETATM   12  C6  UNL     1      24.600  -0.444  53.331  1.00  0.00    -0.011 C 
BRANCH  12  13
HETATM   13  C5  UNL     1      24.619  -0.774  54.774  1.00  0.00     0.135 C 
BRANCH  13  14
HETATM   14  N1  UNL     1      23.408  -1.421  55.201  1.00  0.00    -0.418 NA
BRANCH  14  15
HETATM   15  C4  UNL     1      22.272  -0.933  54.963  1.00  0.00     0.274 C 
BRANCH  15  16
HETATM   16  C3  UNL     1      21.133  -0.071  54.795  1.00  0.00     0.014 C 
HETATM   17  C2  UNL     1      20.525   0.334  53.729  1.00  0.00    -0.029 C 
HETATM   18  C1  UNL     1      20.792   0.048  52.309  1.00  0.00     0.036 C 
ENDBRANCH  15  16
ENDBRANCH  14  15
ENDBRANCH  13  14
ENDBRANCH  12  13
ENDBRANCH  10  11
ENDBRANCH   1  10
BRANCH   4  19
HETATM   19  C11 UNL     1      26.400   5.264  48.954  1.00  0.00    -0.006 A 
HETATM   20  C12 UNL     1      27.652   4.717  48.762  1.00  0.00     0.014 A 
HETATM   21  C13 UNL     1      28.747   5.389  48.212  1.00  0.00     0.007 A 
HETATM   22  C14 UNL     1      28.593   6.698  47.826  1.00  0.00    -0.062 A 
HETATM   23  C15 UNL     1      29.640   7.557  47.221  1.00  0.00     0.048 C 
HETATM   24  C16 UNL     1      27.338   7.261  48.015  1.00  0.00     0.007 A 
HETATM   25  C17 UNL     1      26.269   6.578  48.560  1.00  0.00     0.014 A 
ENDBRANCH   4  19
BRANCH   7  26
HETATM   26  O1  UNL     1      22.102   2.011  49.769  1.00  0.00    -0.366 OA
HETATM   27  H24 UNL     1      21.191   1.692  49.722  1.00  0.00     0.213 HD
ENDBRANCH   7  26
TORSDOF 8
ENDMDL
MODEL 6
REMARK VINA RESULT:      -7.5      2.700      6.059
REMARK  8 active torsions:
REMARK  status: ('A' for Active; 'I' for Inactive)
REMARK    1  A    between atoms: C3_3  and  C4_4 
REMARK    2  A    between atoms: C4_4  and  N1_5 
REMARK    3  A    between atoms: N1_5  and  C5_6 
REMARK    4  A    between atoms: C5_6  and  C6_7 
REMARK    5  A    between atoms: C7_8  and  C8_9 
REMARK    6  A    between atoms: C8_9  and  N2_10 
REMARK    7  A    between atoms: C10_13  and  C11_14 
REMARK    8  A    between atoms: C19_23  and  O1_24 
ROOT
HETATM    1  N2  UNL     1      22.339   3.378  51.722  1.00  0.00     0.120 NA
HETATM    2  C9  UNL     1      23.050   2.427  50.976  1.00  0.00     0.422 C 
HETATM    3  N3  UNL     1      24.293   1.979  51.404  1.00  0.00    -0.258 NA
HETATM    4  C10 UNL     1      25.482   2.334  51.282  1.00  0.00     0.080 C 
HETATM    5  C18 UNL     1      26.151   3.487  50.636  1.00  0.00     0.146 C 
HETATM    6  N4  UNL     1      25.143   4.006  50.283  1.00  0.00    -0.258 NA
HETATM    7  C19 UNL     1      24.456   5.030  49.653  1.00  0.00     0.306 C 
HETATM    8  S1  UNL     1      23.256   5.777  50.842  1.00  0.00    -0.085 SA
HETATM    9  C20 UNL     1      22.949   4.567  52.175  1.00  0.00     0.353 C 
ENDROOT
BRANCH   1  10
HETATM   10  C8  UNL     1      21.056   3.710  51.097  1.00  0.00     0.302 C 
BRANCH  10  11
HETATM   11  C7  UNL     1      19.905   3.501  51.985  1.00  0.00     0.001 C 
HETATM   12  C6  UNL     1      19.207   2.375  51.910  1.00  0.00    -0.011 C 
BRANCH  12  13
HETATM   13  C5  UNL     1      19.236   1.122  51.121  1.00  0.00     0.135 C 
BRANCH  13  14
HETATM   14  N1  UNL     1      20.205   0.185  51.621  1.00  0.00    -0.418 NA
BRANCH  14  15
HETATM   15  C4  UNL     1      20.324  -0.058  52.851  1.00  0.00     0.274 C 
BRANCH  15  16
HETATM   16  C3  UNL     1      20.809  -0.342  54.174  1.00  0.00     0.014 C 
HETATM   17  C2  UNL     1      22.003  -0.579  54.609  1.00  0.00    -0.029 C 
HETATM   18  C1  UNL     1      23.288  -0.638  53.890  1.00  0.00     0.036 C 
ENDBRANCH  15  16
ENDBRANCH  14  15
ENDBRANCH  13  14
ENDBRANCH  12  13
ENDBRANCH  10  11
ENDBRANCH   1  10
BRANCH   4  19
HETATM   19  C11 UNL     1      26.464   1.469  51.953  1.00  0.00    -0.006 A 
HETATM   20  C12 UNL     1      27.526   2.070  52.599  1.00  0.00     0.014 A 
HETATM   21  C13 UNL     1      28.532   1.392  53.294  1.00  0.00     0.007 A 
HETATM   22  C14 UNL     1      28.485   0.020  53.352  1.00  0.00    -0.062 A 
HETATM   23  C15 UNL     1      29.458  -0.855  54.048  1.00  0.00     0.048 C 
HETATM   24  C16 UNL     1      27.422  -0.596  52.706  1.00  0.00     0.007 A 
HETATM   25  C17 UNL     1      26.438   0.093  52.026  1.00  0.00     0.014 A 
ENDBRANCH   4  19
BRANCH   7  26
HETATM   26  O1  UNL     1      23.805   4.723  48.481  1.00  0.00    -0.366 OA
HETATM   27  H24 UNL     1      24.376   4.519  47.728  1.00  0.00     0.213 HD
ENDBRANCH   7  26
TORSDOF 8
ENDMDL
MODEL 7
REMARK VINA RESULT:      -7.4      3.045      7.497
REMARK  8 active torsions:
REMARK  status: ('A' for Active; 'I' for Inactive)
REMARK    1  A    between atoms: C3_3  and  C4_4 
REMARK    2  A    between atoms: C4_4  and  N1_5 
REMARK    3  A    between atoms: N1_5  and  C5_6 
REMARK    4  A    between atoms: C5_6  and  C6_7 
REMARK    5  A    between atoms: C7_8  and  C8_9 
REMARK    6  A    between atoms: C8_9  and  N2_10 
REMARK    7  A    between atoms: C10_13  and  C11_14 
REMARK    8  A    between atoms: C19_23  and  O1_24 
ROOT
HETATM    1  N2  UNL     1      25.438   4.320  49.448  1.00  0.00     0.120 NA
HETATM    2  C9  UNL     1      25.658   4.011  50.798  1.00  0.00     0.422 C 
HETATM    3  N3  UNL     1      24.827   3.119  51.464  1.00  0.00    -0.258 NA
HETATM    4  C10 UNL     1      23.752   3.170  52.093  1.00  0.00     0.080 C 
HETATM    5  C18 UNL     1      22.787   4.253  52.395  1.00  0.00     0.146 C 
HETATM    6  N4  UNL     1      23.374   5.087  51.788  1.00  0.00    -0.258 NA
HETATM    7  C19 UNL     1      23.516   6.385  51.328  1.00  0.00     0.306 C 
HETATM    8  S1  UNL     1      23.651   6.362  49.485  1.00  0.00    -0.085 SA
HETATM    9  C20 UNL     1      24.161   4.685  48.973  1.00  0.00     0.353 C 
ENDROOT
BRANCH   1  10
HETATM   10  C8  UNL     1      26.426   5.276  48.941  1.00  0.00     0.302 C 
BRANCH  10  11
HETATM   11  C7  UNL     1      27.726   4.664  48.636  1.00  0.00     0.001 C 
HETATM   12  C6  UNL     1      28.741   5.426  48.248  1.00  0.00    -0.011 C 
BRANCH  12  13
HETATM   13  C5  UNL     1      28.997   6.864  48.003  1.00  0.00     0.135 C 
BRANCH  13  14
HETATM   14  N1  UNL     1      30.400   7.177  48.010  1.00  0.00    -0.418 NA
BRANCH  14  15
HETATM   15  C4  UNL     1      31.283   6.279  48.027  1.00  0.00     0.274 C 
BRANCH  15  16
HETATM   16  C3  UNL     1      32.202   5.236  48.393  1.00  0.00     0.014 C 
HETATM   17  C2  UNL     1      32.433   4.081  47.861  1.00  0.00    -0.029 C 
HETATM   18  C1  UNL     1      31.829   3.434  46.683  1.00  0.00     0.036 C 
ENDBRANCH  15  16
ENDBRANCH  14  15
ENDBRANCH  13  14
ENDBRANCH  12  13
ENDBRANCH  10  11
ENDBRANCH   1  10
BRANCH   4  19
HETATM   19  C11 UNL     1      23.281   1.885  52.631  1.00  0.00    -0.006 A 
HETATM   20  C12 UNL     1      21.922   1.703  52.787  1.00  0.00     0.014 A 
HETATM   21  C13 UNL     1      21.317   0.539  53.269  1.00  0.00     0.007 A 
HETATM   22  C14 UNL     1      22.114  -0.521  53.625  1.00  0.00    -0.062 A 
HETATM   23  C15 UNL     1      21.644  -1.828  54.144  1.00  0.00     0.048 C 
HETATM   24  C16 UNL     1      23.484  -0.352  53.473  1.00  0.00     0.007 A 
HETATM   25  C17 UNL     1      24.060   0.808  52.994  1.00  0.00     0.014 A 
ENDBRANCH   4  19
BRANCH   7  26
HETATM   26  O1  UNL     1      24.548   7.129  51.850  1.00  0.00    -0.366 OA
HETATM   27  H24 UNL     1      24.621   7.119  52.814  1.00  0.00     0.213 HD
ENDBRANCH   7  26
TORSDOF 8
ENDMDL
MODEL 8
REMARK VINA RESULT:      -7.4      3.044      8.034
REMARK  8 active torsions:
REMARK  status: ('A' for Active; 'I' for Inactive)
REMARK    1  A    between atoms: C3_3  and  C4_4 
REMARK    2  A    between atoms: C4_4  and  N1_5 
REMARK    3  A    between atoms: N1_5  and  C5_6 
REMARK    4  A    between atoms: C5_6  and  C6_7 
REMARK    5  A    between atoms: C7_8  and  C8_9 
REMARK    6  A    between atoms: C8_9  and  N2_10 
REMARK    7  A    between atoms: C10_13  and  C11_14 
REMARK    8  A    between atoms: C19_23  and  O1_24 
ROOT
HETATM    1  N2  UNL     1      25.306   4.360  49.365  1.00  0.00     0.120 NA
HETATM    2  C9  UNL     1      25.594   4.023  50.695  1.00  0.00     0.422 C 
HETATM    3  N3  UNL     1      24.783   3.135  51.390  1.00  0.00    -0.258 NA
HETATM    4  C10 UNL     1      23.746   3.195  52.080  1.00  0.00     0.080 C 
HETATM    5  C18 UNL     1      22.821   4.290  52.453  1.00  0.00     0.146 C 
HETATM    6  N4  UNL     1      23.390   5.124  51.829  1.00  0.00    -0.258 NA
HETATM    7  C19 UNL     1      23.533   6.427  51.384  1.00  0.00     0.306 C 
HETATM    8  S1  UNL     1      23.565   6.435  49.537  1.00  0.00    -0.085 SA
HETATM    9  C20 UNL     1      24.012   4.759  48.968  1.00  0.00     0.353 C 
ENDROOT
BRANCH   1  10
HETATM   10  C8  UNL     1      26.283   5.306  48.821  1.00  0.00     0.302 C 
BRANCH  10  11
HETATM   11  C7  UNL     1      27.648   4.766  48.764  1.00  0.00     0.001 C 
HETATM   12  C6  UNL     1      28.625   5.492  48.234  1.00  0.00    -0.011 C 
BRANCH  12  13
HETATM   13  C5  UNL     1      28.783   6.828  47.617  1.00  0.00     0.135 C 
BRANCH  13  14
HETATM   14  N1  UNL     1      29.122   7.838  48.582  1.00  0.00    -0.418 NA
BRANCH  14  15
HETATM   15  C4  UNL     1      28.242   8.530  49.160  1.00  0.00     0.274 C 
BRANCH  15  16
HETATM   16  C3  UNL     1      27.169   9.012  49.987  1.00  0.00     0.014 C 
HETATM   17  C2  UNL     1      25.995   9.456  49.681  1.00  0.00    -0.029 C 
HETATM   18  C1  UNL     1      25.347   9.620  48.368  1.00  0.00     0.036 C 
ENDBRANCH  15  16
ENDBRANCH  14  15
ENDBRANCH  13  14
ENDBRANCH  12  13
ENDBRANCH  10  11
ENDBRANCH   1  10
BRANCH   4  19
HETATM   19  C11 UNL     1      23.280   1.909  52.621  1.00  0.00    -0.006 A 
HETATM   20  C12 UNL     1      21.920   1.708  52.740  1.00  0.00     0.014 A 
HETATM   21  C13 UNL     1      21.319   0.541  53.220  1.00  0.00     0.007 A 
HETATM   22  C14 UNL     1      22.122  -0.502  53.612  1.00  0.00    -0.062 A 
HETATM   23  C15 UNL     1      21.657  -1.810  54.135  1.00  0.00     0.048 C 
HETATM   24  C16 UNL     1      23.492  -0.313  53.497  1.00  0.00     0.007 A 
HETATM   25  C17 UNL     1      24.065   0.849  53.020  1.00  0.00     0.014 A 
ENDBRANCH   4  19
BRANCH   7  26
HETATM   26  O1  UNL     1      24.606   7.142  51.861  1.00  0.00    -0.366 OA
HETATM   27  H24 UNL     1      24.567   8.097  51.717  1.00  0.00     0.213 HD
ENDBRANCH   7  26
TORSDOF 8
ENDMDL
MODEL 9
REMARK VINA RESULT:      -7.2      3.144      8.175
REMARK  8 active torsions:
REMARK  status: ('A' for Active; 'I' for Inactive)
REMARK    1  A    between atoms: C3_3  and  C4_4 
REMARK    2  A    between atoms: C4_4  and  N1_5 
REMARK    3  A    between atoms: N1_5  and  C5_6 
REMARK    4  A    between atoms: C5_6  and  C6_7 
REMARK    5  A    between atoms: C7_8  and  C8_9 
REMARK    6  A    between atoms: C8_9  and  N2_10 
REMARK    7  A    between atoms: C10_13  and  C11_14 
REMARK    8  A    between atoms: C19_23  and  O1_24 
ROOT
HETATM    1  N2  UNL     1      25.360   4.501  49.355  1.00  0.00     0.120 NA
HETATM    2  C9  UNL     1      25.543   4.158  50.703  1.00  0.00     0.422 C 
HETATM    3  N3  UNL     1      24.654   3.303  51.341  1.00  0.00    -0.258 NA
HETATM    4  C10 UNL     1      23.574   3.403  51.957  1.00  0.00     0.080 C 
HETATM    5  C18 UNL     1      22.666   4.533  52.264  1.00  0.00     0.146 C 
HETATM    6  N4  UNL     1      23.308   5.343  51.680  1.00  0.00    -0.258 NA
HETATM    7  C19 UNL     1      23.529   6.638  51.244  1.00  0.00     0.306 C 
HETATM    8  S1  UNL     1      23.689   6.639  49.404  1.00  0.00    -0.085 SA
HETATM    9  C20 UNL     1      24.112   4.945  48.869  1.00  0.00     0.353 C 
ENDROOT
BRANCH   1  10
HETATM   10  C8  UNL     1      26.407   5.409  48.879  1.00  0.00     0.302 C 
BRANCH  10  11
HETATM   11  C7  UNL     1      27.696   4.743  48.650  1.00  0.00     0.001 C 
HETATM   12  C6  UNL     1      28.750   5.454  48.269  1.00  0.00    -0.011 C 
BRANCH  12  13
HETATM   13  C5  UNL     1      29.063   6.871  47.973  1.00  0.00     0.135 C 
BRANCH  13  14
HETATM   14  N1  UNL     1      30.181   7.353  48.737  1.00  0.00    -0.418 NA
BRANCH  14  15
HETATM   15  C4  UNL     1      30.354   8.580  48.964  1.00  0.00     0.274 C 
BRANCH  15  16
HETATM   16  C3  UNL     1      30.247   9.943  49.410  1.00  0.00     0.014 C 
HETATM   17  C2  UNL     1      30.778  11.030  48.955  1.00  0.00    -0.029 C 
HETATM   18  C1  UNL     1      31.681  11.246  47.810  1.00  0.00     0.036 C 
ENDBRANCH  15  16
ENDBRANCH  14  15
ENDBRANCH  13  14
ENDBRANCH  12  13
ENDBRANCH  10  11
ENDBRANCH   1  10
BRANCH   4  19
HETATM   19  C11 UNL     1      23.025   2.138  52.466  1.00  0.00    -0.006 A 
HETATM   20  C12 UNL     1      23.906   1.204  52.974  1.00  0.00     0.014 A 
HETATM   21  C13 UNL     1      23.543  -0.036  53.507  1.00  0.00     0.007 A 
HETATM   22  C14 UNL     1      22.213  -0.378  53.539  1.00  0.00    -0.062 A 
HETATM   23  C15 UNL     1      21.652  -1.642  54.074  1.00  0.00     0.048 C 
HETATM   24  C16 UNL     1      21.316   0.553  53.031  1.00  0.00     0.007 A 
HETATM   25  C17 UNL     1      21.697   1.773  52.509  1.00  0.00     0.014 A 
ENDBRANCH   4  19
BRANCH   7  26
HETATM   26  O1  UNL     1      24.593   7.315  51.794  1.00  0.00    -0.366 OA
HETATM   27  H24 UNL     1      24.714   8.223  51.482  1.00  0.00     0.213 HD
ENDBRANCH   7  26
TORSDOF 8
ENDMDL
