MODEL 1
REMARK VINA RESULT:      -7.3      0.000      0.000
REMARK  5 active torsions:
REMARK  status: ('A' for Active; 'I' for Inactive)
REMARK    1  A    between atoms: C2_2  and  C3_3 
REMARK    2  A    between atoms: C6_8  and  N3_9 
REMARK    3  A    between atoms: N3_9  and  C7_10 
REMARK    4  A    between atoms: C7_10  and  N4_11 
REMARK    5  A    between atoms: C15_20  and  O1_21 
ROOT
HETATM    1  C3  UNL     1      22.580   2.687  51.290  1.00  0.00     0.187 C 
HETATM    2  N1  UNL     1      22.996   3.507  52.363  1.00  0.00    -0.267 NA
HETATM    3  C4  UNL     1      23.552   4.655  52.487  1.00  0.00     0.227 C 
HETATM    4  N2  UNL     1      24.056   5.734  51.698  1.00  0.00    -0.256 NA
HETATM    5  C5  UNL     1      24.635   5.739  50.523  1.00  0.00     0.130 C 
HETATM    6  C6  UNL     1      25.027   4.746  49.515  1.00  0.00     0.288 C 
HETATM    7  C14 UNL     1      24.154   3.586  49.406  1.00  0.00     0.048 C 
HETATM    8  C15 UNL     1      23.265   2.816  50.011  1.00  0.00     0.072 C 
ENDROOT
BRANCH   6   9
HETATM    9  N3  UNL     1      26.380   4.294  49.778  1.00  0.00     0.115 N 
HETATM   10  H8  UNL     1      27.042   4.528  49.018  1.00  0.00     0.319 HD
BRANCH   9  11
HETATM   11  C7  UNL     1      26.468   2.929  50.216  1.00  0.00     0.419 C 
BRANCH  11  12
HETATM   12  N4  UNL     1      27.057   2.830  51.536  1.00  0.00    -0.258 NA
HETATM   13  C8  UNL     1      26.993   1.684  52.124  1.00  0.00     0.081 A 
HETATM   14  C9  UNL     1      26.406   0.429  51.665  1.00  0.00     0.034 A 
HETATM   15  C13 UNL     1      27.629   1.726  53.457  1.00  0.00     0.076 A 
HETATM   16  C10 UNL     1      26.459  -0.633  52.452  1.00  0.00     0.002 A 
HETATM   17  C11 UNL     1      27.085  -0.607  53.771  1.00  0.00     0.002 A 
HETATM   18  C12 UNL     1      27.641   0.489  54.265  1.00  0.00     0.033 A 
HETATM   19  N5  UNL     1      28.189   2.761  53.998  1.00  0.00    -0.298 NA
HETATM   20  H15 UNL     1      28.257   3.691  53.552  1.00  0.00     0.187 HD
ENDBRANCH  11  12
ENDBRANCH   9  11
ENDBRANCH   6   9
BRANCH   8  21
HETATM   21  O1  UNL     1      22.716   1.739  49.336  1.00  0.00    -0.358 OA
HETATM   22  C16 UNL     1      22.225   1.928  48.034  1.00  0.00     0.209 C 
ENDBRANCH   8  21
BRANCH   1  23
HETATM   23  C2  UNL     1      22.776   1.264  51.768  1.00  0.00    -0.003 C 
HETATM   24  C1  UNL     1      23.047   1.193  53.067  1.00  0.00     0.009 C 
ENDBRANCH   1  23
TORSDOF 5
ENDMDL
MODEL 2
REMARK VINA RESULT:      -7.2      1.915      2.755
REMARK  5 active torsions:
REMARK  status: ('A' for Active; 'I' for Inactive)
REMARK    1  A    between atoms: C2_2  and  C3_3 
REMARK    2  A    between atoms: C6_8  and  N3_9 
REMARK    3  A    between atoms: N3_9  and  C7_10 
REMARK    4  A    between atoms: C7_10  and  N4_11 
REMARK    5  A    between atoms: C15_20  and  O1_21 
ROOT
HETATM    1  C3  UNL     1      21.393   1.995  50.841  1.00  0.00     0.187 C 
HETATM    2  N1  UNL     1      21.563   3.314  50.361  1.00  0.00    -0.267 NA
HETATM    3  C4  UNL     1      22.533   4.009  49.897  1.00  0.00     0.227 C 
HETATM    4  N2  UNL     1      23.926   3.908  49.596  1.00  0.00    -0.256 NA
HETATM    5  C5  UNL     1      24.881   3.226  50.179  1.00  0.00     0.130 C 
HETATM    6  C6  UNL     1      25.004   2.312  51.321  1.00  0.00     0.288 C 
HETATM    7  C14 UNL     1      23.845   1.468  51.576  1.00  0.00     0.048 C 
HETATM    8  C15 UNL     1      22.541   1.315  51.424  1.00  0.00     0.072 C 
ENDROOT
BRANCH   6   9
HETATM    9  N3  UNL     1      25.309   3.069  52.520  1.00  0.00     0.115 N 
HETATM   10  H8  UNL     1      26.029   3.797  52.370  1.00  0.00     0.319 HD
BRANCH   9  11
HETATM   11  C7  UNL     1      25.546   2.258  53.682  1.00  0.00     0.419 C 
BRANCH  11  12
HETATM   12  N4  UNL     1      26.959   2.163  53.984  1.00  0.00    -0.258 NA
HETATM   13  C8  UNL     1      27.535   1.032  53.755  1.00  0.00     0.081 A 
HETATM   14  C9  UNL     1      26.979  -0.209  53.225  1.00  0.00     0.034 A 
HETATM   15  C13 UNL     1      28.970   1.076  54.107  1.00  0.00     0.076 A 
HETATM   16  C10 UNL     1      27.772  -1.258  53.075  1.00  0.00     0.002 A 
HETATM   17  C11 UNL     1      29.191  -1.229  53.418  1.00  0.00     0.002 A 
HETATM   18  C12 UNL     1      29.776  -0.145  53.904  1.00  0.00     0.033 A 
HETATM   19  N5  UNL     1      29.602   2.099  54.585  1.00  0.00    -0.298 NA
HETATM   20  H15 UNL     1      29.169   3.018  54.778  1.00  0.00     0.187 HD
ENDBRANCH  11  12
ENDBRANCH   9  11
ENDBRANCH   6   9
BRANCH   8  21
HETATM   21  O1  UNL     1      21.918   0.187  51.932  1.00  0.00    -0.358 OA
HETATM   22  C16 UNL     1      22.458  -0.438  53.068  1.00  0.00     0.209 C 
ENDBRANCH   8  21
BRANCH   1  23
HETATM   23  C2  UNL     1      20.328   2.089  51.914  1.00  0.00    -0.003 C 
HETATM   24  C1  UNL     1      20.409   3.213  52.618  1.00  0.00     0.009 C 
ENDBRANCH   1  23
TORSDOF 5
ENDMDL
MODEL 3
REMARK VINA RESULT:      -7.2      2.176      3.942
REMARK  5 active torsions:
REMARK  status: ('A' for Active; 'I' for Inactive)
REMARK    1  A    between atoms: C2_2  and  C3_3 
REMARK    2  A    between atoms: C6_8  and  N3_9 
REMARK    3  A    between atoms: N3_9  and  C7_10 
REMARK    4  A    between atoms: C7_10  and  N4_11 
REMARK    5  A    between atoms: C15_20  and  O1_21 
ROOT
HETATM    1  C3  UNL     1      24.589   6.405  49.996  1.00  0.00     0.187 C 
HETATM    2  N1  UNL     1      25.768   5.716  49.633  1.00  0.00    -0.267 NA
HETATM    3  C4  UNL     1      26.164   4.497  49.638  1.00  0.00     0.227 C 
HETATM    4  N2  UNL     1      25.713   3.186  49.981  1.00  0.00    -0.256 NA
HETATM    5  C5  UNL     1      24.905   2.778  50.927  1.00  0.00     0.130 C 
HETATM    6  C6  UNL     1      24.126   3.389  52.011  1.00  0.00     0.288 C 
HETATM    7  C14 UNL     1      23.606   4.720  51.736  1.00  0.00     0.048 C 
HETATM    8  C15 UNL     1      23.737   5.829  51.027  1.00  0.00     0.072 C 
ENDROOT
BRANCH   6   9
HETATM    9  N3  UNL     1      24.930   3.438  53.219  1.00  0.00     0.115 N 
HETATM   10  H8  UNL     1      25.670   4.160  53.186  1.00  0.00     0.319 HD
BRANCH   9  11
HETATM   11  C7  UNL     1      25.398   2.155  53.664  1.00  0.00     0.419 C 
BRANCH  11  12
HETATM   12  N4  UNL     1      26.822   2.172  53.929  1.00  0.00    -0.258 NA
HETATM   13  C8  UNL     1      27.476   1.084  53.700  1.00  0.00     0.081 A 
HETATM   14  C9  UNL     1      27.003  -0.203  53.201  1.00  0.00     0.034 A 
HETATM   15  C13 UNL     1      28.912   1.242  54.012  1.00  0.00     0.076 A 
HETATM   16  C10 UNL     1      27.869  -1.190  53.043  1.00  0.00     0.002 A 
HETATM   17  C11 UNL     1      29.290  -1.050  53.346  1.00  0.00     0.002 A 
HETATM   18  C12 UNL     1      29.804   0.083  53.803  1.00  0.00     0.033 A 
HETATM   19  N5  UNL     1      29.477   2.318  54.460  1.00  0.00    -0.298 NA
HETATM   20  H15 UNL     1      28.980   3.204  54.653  1.00  0.00     0.187 HD
ENDBRANCH  11  12
ENDBRANCH   9  11
ENDBRANCH   6   9
BRANCH   8  21
HETATM   21  O1  UNL     1      22.849   6.874  51.216  1.00  0.00    -0.358 OA
HETATM   22  C16 UNL     1      21.560   6.783  50.666  1.00  0.00     0.209 C 
ENDBRANCH   8  21
BRANCH   1  23
HETATM   23  C2  UNL     1      25.048   7.760  50.492  1.00  0.00    -0.003 C 
HETATM   24  C1  UNL     1      25.637   8.480  49.542  1.00  0.00     0.009 C 
ENDBRANCH   1  23
TORSDOF 5
ENDMDL
MODEL 4
REMARK VINA RESULT:      -7.1      2.820      4.490
REMARK  5 active torsions:
REMARK  status: ('A' for Active; 'I' for Inactive)
REMARK    1  A    between atoms: C2_2  and  C3_3 
REMARK    2  A    between atoms: C6_8  and  N3_9 
REMARK    3  A    between atoms: N3_9  and  C7_10 
REMARK    4  A    between atoms: C7_10  and  N4_11 
REMARK    5  A    between atoms: C15_20  and  O1_21 
ROOT
HETATM    1  C3  UNL     1      22.154   2.427  50.389  1.00  0.00     0.187 C 
HETATM    2  N1  UNL     1      21.386   1.262  50.164  1.00  0.00    -0.267 NA
HETATM    3  C4  UNL     1      20.881   0.335  50.890  1.00  0.00     0.227 C 
HETATM    4  N2  UNL     1      20.782  -0.076  52.255  1.00  0.00    -0.256 NA
HETATM    5  C5  UNL     1      21.623   0.049  53.250  1.00  0.00     0.130 C 
HETATM    6  C6  UNL     1      22.962   0.613  53.460  1.00  0.00     0.288 C 
HETATM    7  C14 UNL     1      23.280   1.787  52.659  1.00  0.00     0.048 C 
HETATM    8  C15 UNL     1      23.018   2.474  51.560  1.00  0.00     0.072 C 
ENDROOT
BRANCH   6   9
HETATM    9  N3  UNL     1      23.964  -0.408  53.216  1.00  0.00     0.115 N 
HETATM   10  H8  UNL     1      23.572  -1.365  53.191  1.00  0.00     0.319 HD
BRANCH   9  11
HETATM   11  C7  UNL     1      25.135  -0.289  54.040  1.00  0.00     0.419 C 
BRANCH  11  12
HETATM   12  N4  UNL     1      26.175  -1.205  53.620  1.00  0.00    -0.258 NA
HETATM   13  C8  UNL     1      27.390  -0.772  53.656  1.00  0.00     0.081 A 
HETATM   14  C9  UNL     1      27.905   0.531  54.064  1.00  0.00     0.034 A 
HETATM   15  C13 UNL     1      28.345  -1.805  53.203  1.00  0.00     0.076 A 
HETATM   16  C10 UNL     1      29.209   0.752  54.017  1.00  0.00     0.002 A 
HETATM   17  C11 UNL     1      30.164  -0.258  53.572  1.00  0.00     0.002 A 
HETATM   18  C12 UNL     1      29.783  -1.466  53.185  1.00  0.00     0.033 A 
HETATM   19  N5  UNL     1      28.039  -3.000  52.812  1.00  0.00    -0.298 NA
HETATM   20  H15 UNL     1      27.077  -3.377  52.773  1.00  0.00     0.187 HD
ENDBRANCH  11  12
ENDBRANCH   9  11
ENDBRANCH   6   9
BRANCH   8  21
HETATM   21  O1  UNL     1      23.713   3.643  51.298  1.00  0.00    -0.358 OA
HETATM   22  C16 UNL     1      23.543   4.744  52.153  1.00  0.00     0.209 C 
ENDBRANCH   8  21
BRANCH   1  23
HETATM   23  C2  UNL     1      23.037   2.572  49.167  1.00  0.00    -0.003 C 
HETATM   24  C1  UNL     1      22.393   2.305  48.036  1.00  0.00     0.009 C 
ENDBRANCH   1  23
TORSDOF 5
ENDMDL
MODEL 5
REMARK VINA RESULT:      -6.8      2.196      5.174
REMARK  5 active torsions:
REMARK  status: ('A' for Active; 'I' for Inactive)
REMARK    1  A    between atoms: C2_2  and  C3_3 
REMARK    2  A    between atoms: C6_8  and  N3_9 
REMARK    3  A    between atoms: N3_9  and  C7_10 
REMARK    4  A    between atoms: C7_10  and  N4_11 
REMARK    5  A    between atoms: C15_20  and  O1_21 
ROOT
HETATM    1  C3  UNL     1      23.394   0.191  53.807  1.00  0.00     0.187 C 
HETATM    2  N1  UNL     1      24.461  -0.650  54.192  1.00  0.00    -0.267 NA
HETATM    3  C4  UNL     1      25.703  -0.499  54.469  1.00  0.00     0.227 C 
HETATM    4  N2  UNL     1      26.704   0.517  54.558  1.00  0.00    -0.256 NA
HETATM    5  C5  UNL     1      26.870   1.618  53.870  1.00  0.00     0.130 C 
HETATM    6  C6  UNL     1      26.189   2.308  52.767  1.00  0.00     0.288 C 
HETATM    7  C14 UNL     1      24.741   2.156  52.732  1.00  0.00     0.048 C 
HETATM    8  C15 UNL     1      23.703   1.420  53.088  1.00  0.00     0.072 C 
ENDROOT
BRANCH   6   9
HETATM    9  N3  UNL     1      26.740   1.863  51.501  1.00  0.00     0.115 N 
HETATM   10  H8  UNL     1      27.774   1.863  51.484  1.00  0.00     0.319 HD
BRANCH   9  11
HETATM   11  C7  UNL     1      26.148   2.488  50.351  1.00  0.00     0.419 C 
BRANCH  11  12
HETATM   12  N4  UNL     1      27.018   3.502  49.791  1.00  0.00    -0.258 NA
HETATM   13  C8  UNL     1      26.456   4.556  49.304  1.00  0.00     0.081 A 
HETATM   14  C9  UNL     1      25.042   4.907  49.222  1.00  0.00     0.034 A 
HETATM   15  C13 UNL     1      27.457   5.502  48.769  1.00  0.00     0.076 A 
HETATM   16  C10 UNL     1      24.695   6.060  48.672  1.00  0.00     0.002 A 
HETATM   17  C11 UNL     1      25.672   7.005  48.139  1.00  0.00     0.002 A 
HETATM   18  C12 UNL     1      26.975   6.766  48.173  1.00  0.00     0.033 A 
HETATM   19  N5  UNL     1      28.740   5.330  48.770  1.00  0.00    -0.298 NA
HETATM   20  H15 UNL     1      29.220   4.498  49.153  1.00  0.00     0.187 HD
ENDBRANCH  11  12
ENDBRANCH   9  11
ENDBRANCH   6   9
BRANCH   8  21
HETATM   21  O1  UNL     1      22.424   1.819  52.735  1.00  0.00    -0.358 OA
HETATM   22  C16 UNL     1      22.266   2.874  51.823  1.00  0.00     0.209 C 
ENDBRANCH   8  21
BRANCH   1  23
HETATM   23  C2  UNL     1      22.517  -0.653  52.906  1.00  0.00    -0.003 C 
HETATM   24  C1  UNL     1      21.658  -1.406  53.586  1.00  0.00     0.009 C 
ENDBRANCH   1  23
TORSDOF 5
ENDMDL
MODEL 6
REMARK VINA RESULT:      -6.7      2.301      5.592
REMARK  5 active torsions:
REMARK  status: ('A' for Active; 'I' for Inactive)
REMARK    1  A    between atoms: C2_2  and  C3_3 
REMARK    2  A    between atoms: C6_8  and  N3_9 
REMARK    3  A    between atoms: N3_9  and  C7_10 
REMARK    4  A    between atoms: C7_10  and  N4_11 
REMARK    5  A    between atoms: C15_20  and  O1_21 
ROOT
HETATM    1  C3  UNL     1      25.794   0.282  52.933  1.00  0.00     0.187 C 
HETATM    2  N1  UNL     1      24.906  -0.384  53.808  1.00  0.00    -0.267 NA
HETATM    3  C4  UNL     1      23.667  -0.709  53.795  1.00  0.00     0.227 C 
HETATM    4  N2  UNL     1      22.504  -0.615  52.971  1.00  0.00    -0.256 NA
HETATM    5  C5  UNL     1      22.122   0.315  52.131  1.00  0.00     0.130 C 
HETATM    6  C6  UNL     1      22.634   1.605  51.653  1.00  0.00     0.288 C 
HETATM    7  C14 UNL     1      24.083   1.712  51.568  1.00  0.00     0.048 C 
HETATM    8  C15 UNL     1      25.247   1.262  52.004  1.00  0.00     0.072 C 
ENDROOT
BRANCH   6   9
HETATM    9  N3  UNL     1      22.132   2.672  52.498  1.00  0.00     0.115 N 
HETATM   10  H8  UNL     1      21.451   2.344  53.206  1.00  0.00     0.319 HD
BRANCH   9  11
HETATM   11  C7  UNL     1      21.696   3.836  51.779  1.00  0.00     0.419 C 
BRANCH  11  12
HETATM   12  N4  UNL     1      22.656   4.916  51.884  1.00  0.00    -0.258 NA
HETATM   13  C8  UNL     1      23.298   5.239  50.813  1.00  0.00     0.081 A 
HETATM   14  C9  UNL     1      23.215   4.677  49.469  1.00  0.00     0.034 A 
HETATM   15  C13 UNL     1      24.240   6.350  51.063  1.00  0.00     0.076 A 
HETATM   16  C10 UNL     1      23.982   5.176  48.513  1.00  0.00     0.002 A 
HETATM   17  C11 UNL     1      24.917   6.273  48.744  1.00  0.00     0.002 A 
HETATM   18  C12 UNL     1      25.056   6.842  49.933  1.00  0.00     0.033 A 
HETATM   19  N5  UNL     1      24.424   6.947  52.196  1.00  0.00    -0.298 NA
HETATM   20  H15 UNL     1      23.925   6.713  53.071  1.00  0.00     0.187 HD
ENDBRANCH  11  12
ENDBRANCH   9  11
ENDBRANCH   6   9
BRANCH   8  21
HETATM   21  O1  UNL     1      26.422   1.801  51.507  1.00  0.00    -0.358 OA
HETATM   22  C16 UNL     1      26.356   2.926  50.669  1.00  0.00     0.209 C 
ENDBRANCH   8  21
BRANCH   1  23
HETATM   23  C2  UNL     1      26.778   1.005  53.828  1.00  0.00    -0.003 C 
HETATM   24  C1  UNL     1      27.261   0.227  54.791  1.00  0.00     0.009 C 
ENDBRANCH   1  23
TORSDOF 5
ENDMDL
MODEL 7
REMARK VINA RESULT:      -6.5      2.200      6.057
REMARK  5 active torsions:
REMARK  status: ('A' for Active; 'I' for Inactive)
REMARK    1  A    between atoms: C2_2  and  C3_3 
REMARK    2  A    between atoms: C6_8  and  N3_9 
REMARK    3  A    between atoms: N3_9  and  C7_10 
REMARK    4  A    between atoms: C7_10  and  N4_11 
REMARK    5  A    between atoms: C15_20  and  O1_21 
ROOT
HETATM    1  C3  UNL     1      27.528   1.120  53.294  1.00  0.00     0.187 C 
HETATM    2  N1  UNL     1      27.195   0.599  54.565  1.00  0.00    -0.267 NA
HETATM    3  C4  UNL     1      26.271  -0.149  55.043  1.00  0.00     0.227 C 
HETATM    4  N2  UNL     1      25.103  -0.865  54.638  1.00  0.00    -0.256 NA
HETATM    5  C5  UNL     1      24.214  -0.600  53.713  1.00  0.00     0.130 C 
HETATM    6  C6  UNL     1      23.978   0.455  52.721  1.00  0.00     0.288 C 
HETATM    7  C14 UNL     1      25.175   1.064  52.158  1.00  0.00     0.048 C 
HETATM    8  C15 UNL     1      26.460   1.325  52.326  1.00  0.00     0.072 C 
ENDROOT
BRANCH   6   9
HETATM    9  N3  UNL     1      23.150   1.495  53.303  1.00  0.00     0.115 N 
HETATM   10  H8  UNL     1      22.924   1.325  54.298  1.00  0.00     0.319 HD
BRANCH   9  11
HETATM   11  C7  UNL     1      22.009   1.850  52.507  1.00  0.00     0.419 C 
BRANCH  11  12
HETATM   12  N4  UNL     1      22.312   2.939  51.600  1.00  0.00    -0.258 NA
HETATM   13  C8  UNL     1      22.238   2.689  50.336  1.00  0.00     0.081 A 
HETATM   14  C9  UNL     1      21.888   1.450  49.648  1.00  0.00     0.034 A 
HETATM   15  C13 UNL     1      22.570   3.882  49.531  1.00  0.00     0.076 A 
HETATM   16  C10 UNL     1      21.879   1.430  48.325  1.00  0.00     0.002 A 
HETATM   17  C11 UNL     1      22.204   2.600  47.515  1.00  0.00     0.002 A 
HETATM   18  C12 UNL     1      22.532   3.763  48.058  1.00  0.00     0.033 A 
HETATM   19  N5  UNL     1      22.897   5.044  49.997  1.00  0.00    -0.298 NA
HETATM   20  H15 UNL     1      22.965   5.276  51.002  1.00  0.00     0.187 HD
ENDBRANCH  11  12
ENDBRANCH   9  11
ENDBRANCH   6   9
BRANCH   8  21
HETATM   21  O1  UNL     1      27.156   2.011  51.344  1.00  0.00    -0.358 OA
HETATM   22  C16 UNL     1      26.443   2.800  50.427  1.00  0.00     0.209 C 
ENDBRANCH   8  21
BRANCH   1  23
HETATM   23  C2  UNL     1      28.162   2.469  53.563  1.00  0.00    -0.003 C 
HETATM   24  C1  UNL     1      29.385   2.367  54.074  1.00  0.00     0.009 C 
ENDBRANCH   1  23
TORSDOF 5
ENDMDL
MODEL 8
REMARK VINA RESULT:      -6.5      1.810      2.872
REMARK  5 active torsions:
REMARK  status: ('A' for Active; 'I' for Inactive)
REMARK    1  A    between atoms: C2_2  and  C3_3 
REMARK    2  A    between atoms: C6_8  and  N3_9 
REMARK    3  A    between atoms: N3_9  and  C7_10 
REMARK    4  A    between atoms: C7_10  and  N4_11 
REMARK    5  A    between atoms: C15_20  and  O1_21 
ROOT
HETATM    1  C3  UNL     1      21.894   3.826  48.938  1.00  0.00     0.187 C 
HETATM    2  N1  UNL     1      21.342   2.873  49.824  1.00  0.00    -0.267 NA
HETATM    3  C4  UNL     1      21.392   2.646  51.084  1.00  0.00     0.227 C 
HETATM    4  N2  UNL     1      21.979   3.158  52.281  1.00  0.00    -0.256 NA
HETATM    5  C5  UNL     1      23.131   3.746  52.486  1.00  0.00     0.130 C 
HETATM    6  C6  UNL     1      24.293   4.142  51.680  1.00  0.00     0.288 C 
HETATM    7  C14 UNL     1      23.999   4.543  50.312  1.00  0.00     0.048 C 
HETATM    8  C15 UNL     1      23.158   4.455  49.296  1.00  0.00     0.072 C 
ENDROOT
BRANCH   6   9
HETATM    9  N3  UNL     1      25.260   3.060  51.657  1.00  0.00     0.115 N 
HETATM   10  H8  UNL     1      25.167   2.449  50.827  1.00  0.00     0.319 HD
BRANCH   9  11
HETATM   11  C7  UNL     1      25.362   2.337  52.894  1.00  0.00     0.419 C 
BRANCH  11  12
HETATM   12  N4  UNL     1      26.725   2.307  53.381  1.00  0.00    -0.258 NA
HETATM   13  C8  UNL     1      27.342   1.175  53.333  1.00  0.00     0.081 A 
HETATM   14  C9  UNL     1      26.877  -0.122  52.853  1.00  0.00     0.034 A 
HETATM   15  C13 UNL     1      28.719   1.288  53.859  1.00  0.00     0.076 A 
HETATM   16  C10 UNL     1      27.698  -1.159  52.902  1.00  0.00     0.002 A 
HETATM   17  C11 UNL     1      29.060  -1.063  53.418  1.00  0.00     0.002 A 
HETATM   18  C12 UNL     1      29.562   0.075  53.873  1.00  0.00     0.033 A 
HETATM   19  N5  UNL     1      29.269   2.366  54.318  1.00  0.00    -0.298 NA
HETATM   20  H15 UNL     1      28.802   3.287  54.369  1.00  0.00     0.187 HD
ENDBRANCH  11  12
ENDBRANCH   9  11
ENDBRANCH   6   9
BRANCH   8  21
HETATM   21  O1  UNL     1      23.432   5.127  48.117  1.00  0.00    -0.358 OA
HETATM   22  C16 UNL     1      23.835   6.471  48.175  1.00  0.00     0.209 C 
ENDBRANCH   8  21
BRANCH   1  23
HETATM   23  C2  UNL     1      22.108   3.088  47.633  1.00  0.00    -0.003 C 
HETATM   24  C1  UNL     1      22.352   1.794  47.810  1.00  0.00     0.009 C 
ENDBRANCH   1  23
TORSDOF 5
ENDMDL
MODEL 9
REMARK VINA RESULT:      -6.4      2.434      6.371
REMARK  5 active torsions:
REMARK  status: ('A' for Active; 'I' for Inactive)
REMARK    1  A    between atoms: C2_2  and  C3_3 
REMARK    2  A    between atoms: C6_8  and  N3_9 
REMARK    3  A    between atoms: N3_9  and  C7_10 
REMARK    4  A    between atoms: C7_10  and  N4_11 
REMARK    5  A    between atoms: C15_20  and  O1_21 
ROOT
HETATM    1  C3  UNL     1      27.420   1.211  52.990  1.00  0.00     0.187 C 
HETATM    2  N1  UNL     1      26.995   0.553  54.167  1.00  0.00    -0.267 NA
HETATM    3  C4  UNL     1      25.980  -0.145  54.520  1.00  0.00     0.227 C 
HETATM    4  N2  UNL     1      24.749  -0.653  54.002  1.00  0.00    -0.256 NA
HETATM    5  C5  UNL     1      23.921  -0.155  53.119  1.00  0.00     0.130 C 
HETATM    6  C6  UNL     1      23.833   1.054  52.291  1.00  0.00     0.288 C 
HETATM    7  C14 UNL     1      25.106   1.595  51.836  1.00  0.00     0.048 C 
HETATM    8  C15 UNL     1      26.408   1.678  52.053  1.00  0.00     0.072 C 
ENDROOT
BRANCH   6   9
HETATM    9  N3  UNL     1      23.114   2.087  53.013  1.00  0.00     0.115 N 
HETATM   10  H8  UNL     1      22.090   1.939  53.022  1.00  0.00     0.319 HD
BRANCH   9  11
HETATM   11  C7  UNL     1      23.497   3.425  52.660  1.00  0.00     0.419 C 
BRANCH  11  12
HETATM   12  N4  UNL     1      22.442   4.108  51.940  1.00  0.00    -0.258 NA
HETATM   13  C8  UNL     1      22.714   5.278  51.468  1.00  0.00     0.081 A 
HETATM   14  C9  UNL     1      23.949   6.051  51.542  1.00  0.00     0.034 A 
HETATM   15  C13 UNL     1      21.553   5.856  50.759  1.00  0.00     0.076 A 
HETATM   16  C10 UNL     1      23.995   7.246  50.976  1.00  0.00     0.002 A 
HETATM   17  C11 UNL     1      22.857   7.831  50.272  1.00  0.00     0.002 A 
HETATM   18  C12 UNL     1      21.700   7.197  50.157  1.00  0.00     0.033 A 
HETATM   19  N5  UNL     1      20.397   5.292  50.611  1.00  0.00    -0.298 NA
HETATM   20  H15 UNL     1      20.149   4.357  50.976  1.00  0.00     0.187 HD
ENDBRANCH  11  12
ENDBRANCH   9  11
ENDBRANCH   6   9
BRANCH   8  21
HETATM   21  O1  UNL     1      27.202   2.414  51.190  1.00  0.00    -0.358 OA
HETATM   22  C16 UNL     1      26.590   3.261  50.253  1.00  0.00     0.209 C 
ENDBRANCH   8  21
BRANCH   1  23
HETATM   23  C2  UNL     1      28.195   2.423  53.462  1.00  0.00    -0.003 C 
HETATM   24  C1  UNL     1      29.235   2.101  54.224  1.00  0.00     0.009 C 
ENDBRANCH   1  23
TORSDOF 5
ENDMDL
