MODEL 1
REMARK VINA RESULT:      -8.6      0.000      0.000
REMARK  7 active torsions:
REMARK  status: ('A' for Active; 'I' for Inactive)
REMARK    1  A    between atoms: O1_2  and  C2_3 
REMARK    2  A    between atoms: C5_6  and  C6_7 
REMARK    3  A    between atoms: C6_7  and  N1_8 
REMARK    4  A    between atoms: N1_8  and  C7_9 
REMARK    5  A    between atoms: C7_9  and  N2_10 
REMARK    6  A    between atoms: C11_17  and  N6_18 
REMARK    7  A    between atoms: C12_19  and  C13_20 
ROOT
HETATM    1  C7  UNL     1      26.590  -0.747  53.492  1.00  0.00     0.157 C 
HETATM    2  C8  UNL     1      27.504   0.221  53.668  1.00  0.00     0.057 A 
HETATM    3  C9  UNL     1      28.902  -0.208  53.626  1.00  0.00     0.197 A 
HETATM    4  N4  UNL     1      29.744   0.943  53.832  1.00  0.00    -0.278 NA
HETATM    5  C10 UNL     1      29.204   2.091  54.009  1.00  0.00     0.229 A 
HETATM    6  N5  UNL     1      27.838   2.530  54.054  1.00  0.00    -0.222 NA
HETATM    7  C11 UNL     1      26.971   1.561  53.877  1.00  0.00     0.162 A 
ENDROOT
BRANCH   1   8
HETATM    8  N1  UNL     1      25.195  -0.697  53.472  1.00  0.00    -0.369 N 
HETATM    9  H8  UNL     1      24.972  -0.391  52.478  1.00  0.00     0.161 HD
BRANCH   8  10
HETATM   10  C6  UNL     1      24.146  -0.955  54.428  1.00  0.00     0.160 C 
BRANCH  10  11
HETATM   11  C5  UNL     1      22.781  -0.735  53.896  1.00  0.00    -0.040 A 
HETATM   12  C4  UNL     1      22.732  -0.040  52.701  1.00  0.00     0.011 A 
HETATM   13  C3  UNL     1      21.553   0.257  52.062  1.00  0.00     0.037 A 
HETATM   14  C2  UNL     1      20.358  -0.150  52.621  1.00  0.00     0.068 A 
HETATM   15  C20 UNL     1      20.406  -0.844  53.812  1.00  0.00     0.037 A 
HETATM   16  C19 UNL     1      21.592  -1.144  54.459  1.00  0.00     0.011 A 
BRANCH  14  17
HETATM   17  O1  UNL     1      19.085   0.032  52.165  1.00  0.00    -0.356 OA
HETATM   18  C1  UNL     1      17.938  -0.679  52.523  1.00  0.00     0.210 C 
ENDBRANCH  14  17
ENDBRANCH  10  11
ENDBRANCH   8  10
ENDBRANCH   1   8
BRANCH   1  19
HETATM   19  N2  UNL     1      26.920  -2.117  53.275  1.00  0.00    -0.139 NA
HETATM   20  N3  UNL     1      26.855  -2.699  52.152  1.00  0.00    -0.202 NA
HETATM   21  H9  UNL     1      26.539  -2.136  51.335  1.00  0.00     0.212 HD
ENDBRANCH   1  19
BRANCH   7  22
HETATM   22  N6  UNL     1      25.598   1.912  53.907  1.00  0.00    -0.240 NA
HETATM   23  C12 UNL     1      25.076   2.536  52.914  1.00  0.00     0.130 C 
BRANCH  23  24
HETATM   24  C13 UNL     1      25.275   3.123  51.597  1.00  0.00    -0.017 A 
HETATM   25  C14 UNL     1      26.359   2.667  50.893  1.00  0.00     0.013 A 
HETATM   26  C15 UNL     1      26.512   3.247  49.654  1.00  0.00     0.003 A 
HETATM   27  C16 UNL     1      25.644   4.199  49.180  1.00  0.00     0.024 A 
HETATM   28  C17 UNL     1      24.566   4.629  49.920  1.00  0.00     0.034 A 
HETATM   29 CL1  UNL     1      23.495   5.842  49.267  1.00  0.00    -0.084 Cl
HETATM   30  C18 UNL     1      24.374   4.075  51.170  1.00  0.00     0.036 A 
ENDBRANCH  23  24
ENDBRANCH   7  22
TORSDOF 7
ENDMDL
MODEL 2
REMARK VINA RESULT:      -8.6      3.452      6.208
REMARK  7 active torsions:
REMARK  status: ('A' for Active; 'I' for Inactive)
REMARK    1  A    between atoms: O1_2  and  C2_3 
REMARK    2  A    between atoms: C5_6  and  C6_7 
REMARK    3  A    between atoms: C6_7  and  N1_8 
REMARK    4  A    between atoms: N1_8  and  C7_9 
REMARK    5  A    between atoms: C7_9  and  N2_10 
REMARK    6  A    between atoms: C11_17  and  N6_18 
REMARK    7  A    between atoms: C12_19  and  C13_20 
ROOT
HETATM    1  C7  UNL     1      25.728   4.276  50.178  1.00  0.00     0.157 C 
HETATM    2  C8  UNL     1      24.535   4.882  50.061  1.00  0.00     0.057 A 
HETATM    3  C9  UNL     1      24.272   5.529  48.776  1.00  0.00     0.197 A 
HETATM    4  N4  UNL     1      22.961   6.126  48.820  1.00  0.00    -0.278 NA
HETATM    5  C10 UNL     1      22.260   6.020  49.886  1.00  0.00     0.229 A 
HETATM    6  N5  UNL     1      22.501   5.391  51.154  1.00  0.00    -0.222 NA
HETATM    7  C11 UNL     1      23.673   4.808  51.234  1.00  0.00     0.162 A 
ENDROOT
BRANCH   1   8
HETATM    8  N1  UNL     1      26.300   3.575  51.241  1.00  0.00    -0.369 N 
HETATM    9  H8  UNL     1      26.062   4.172  52.089  1.00  0.00     0.161 HD
BRANCH   8  10
HETATM   10  C6  UNL     1      27.051   2.350  51.376  1.00  0.00     0.160 C 
BRANCH  10  11
HETATM   11  C5  UNL     1      26.572   1.470  52.466  1.00  0.00    -0.040 A 
HETATM   12  C4  UNL     1      25.984   0.292  52.042  1.00  0.00     0.011 A 
HETATM   13  C3  UNL     1      25.481  -0.644  52.914  1.00  0.00     0.037 A 
HETATM   14  C2  UNL     1      25.560  -0.414  54.273  1.00  0.00     0.068 A 
HETATM   15  C20 UNL     1      26.146   0.759  54.697  1.00  0.00     0.037 A 
HETATM   16  C19 UNL     1      26.654   1.705  53.822  1.00  0.00     0.011 A 
BRANCH  14  17
HETATM   17  O1  UNL     1      25.132  -1.196  55.307  1.00  0.00    -0.356 OA
HETATM   18  C1  UNL     1      23.821  -1.406  55.736  1.00  0.00     0.210 C 
ENDBRANCH  14  17
ENDBRANCH  10  11
ENDBRANCH   8  10
ENDBRANCH   1   8
BRANCH   1  19
HETATM   19  N2  UNL     1      26.704   4.244  49.139  1.00  0.00    -0.139 NA
HETATM   20  N3  UNL     1      27.817   4.847  49.184  1.00  0.00    -0.202 NA
HETATM   21  H9  UNL     1      28.030   5.402  50.039  1.00  0.00     0.212 HD
ENDBRANCH   1  19
BRANCH   7  22
HETATM   22  N6  UNL     1      23.989   4.162  52.456  1.00  0.00    -0.240 NA
HETATM   23  C12 UNL     1      23.499   3.003  52.712  1.00  0.00     0.130 C 
BRANCH  23  24
HETATM   24  C13 UNL     1      22.657   1.904  52.261  1.00  0.00    -0.017 A 
HETATM   25  C14 UNL     1      22.468   1.809  50.907  1.00  0.00     0.013 A 
HETATM   26  C15 UNL     1      21.666   0.758  50.522  1.00  0.00     0.003 A 
HETATM   27  C16 UNL     1      21.113  -0.111  51.430  1.00  0.00     0.024 A 
HETATM   28  C17 UNL     1      21.330   0.020  52.783  1.00  0.00     0.034 A 
HETATM   29 CL1  UNL     1      20.601  -1.113  53.892  1.00  0.00    -0.084 Cl
HETATM   30  C18 UNL     1      22.127   1.062  53.215  1.00  0.00     0.036 A 
ENDBRANCH  23  24
ENDBRANCH   7  22
TORSDOF 7
ENDMDL
MODEL 3
REMARK VINA RESULT:      -8.5      3.229      6.059
REMARK  7 active torsions:
REMARK  status: ('A' for Active; 'I' for Inactive)
REMARK    1  A    between atoms: O1_2  and  C2_3 
REMARK    2  A    between atoms: C5_6  and  C6_7 
REMARK    3  A    between atoms: C6_7  and  N1_8 
REMARK    4  A    between atoms: N1_8  and  C7_9 
REMARK    5  A    between atoms: C7_9  and  N2_10 
REMARK    6  A    between atoms: C11_17  and  N6_18 
REMARK    7  A    between atoms: C12_19  and  C13_20 
ROOT
HETATM    1  C7  UNL     1      25.738   4.413  50.244  1.00  0.00     0.157 C 
HETATM    2  C8  UNL     1      24.600   5.123  50.177  1.00  0.00     0.057 A 
HETATM    3  C9  UNL     1      24.380   5.857  48.931  1.00  0.00     0.197 A 
HETATM    4  N4  UNL     1      23.125   6.561  49.026  1.00  0.00    -0.278 NA
HETATM    5  C10 UNL     1      22.429   6.458  50.096  1.00  0.00     0.229 A 
HETATM    6  N5  UNL     1      22.628   5.744  51.326  1.00  0.00    -0.222 NA
HETATM    7  C11 UNL     1      23.747   5.060  51.357  1.00  0.00     0.162 A 
ENDROOT
BRANCH   1   8
HETATM    8  N1  UNL     1      26.258   3.610  51.260  1.00  0.00    -0.369 N 
HETATM    9  H8  UNL     1      25.967   4.115  52.150  1.00  0.00     0.161 HD
BRANCH   8  10
HETATM   10  C6  UNL     1      27.014   2.381  51.311  1.00  0.00     0.160 C 
BRANCH  10  11
HETATM   11  C5  UNL     1      26.505   1.404  52.301  1.00  0.00    -0.040 A 
HETATM   12  C4  UNL     1      26.753   1.735  53.620  1.00  0.00     0.011 A 
HETATM   13  C3  UNL     1      26.355   0.946  54.672  1.00  0.00     0.037 A 
HETATM   14  C2  UNL     1      25.678  -0.230  54.418  1.00  0.00     0.068 A 
HETATM   15  C20 UNL     1      25.430  -0.561  53.103  1.00  0.00     0.037 A 
HETATM   16  C19 UNL     1      25.828   0.231  52.041  1.00  0.00     0.011 A 
BRANCH  14  17
HETATM   17  O1  UNL     1      25.194  -1.155  55.297  1.00  0.00    -0.356 OA
HETATM   18  C1  UNL     1      23.863  -1.396  55.640  1.00  0.00     0.210 C 
ENDBRANCH  14  17
ENDBRANCH  10  11
ENDBRANCH   8  10
ENDBRANCH   1   8
BRANCH   1  19
HETATM   19  N2  UNL     1      26.696   4.353  49.190  1.00  0.00    -0.139 NA
HETATM   20  N3  UNL     1      27.838   4.899  49.229  1.00  0.00    -0.202 NA
HETATM   21  H9  UNL     1      28.090   5.427  50.091  1.00  0.00     0.212 HD
ENDBRANCH   1  19
BRANCH   7  22
HETATM   22  N6  UNL     1      24.020   4.325  52.539  1.00  0.00    -0.240 NA
HETATM   23  C12 UNL     1      23.525   3.150  52.689  1.00  0.00     0.130 C 
BRANCH  23  24
HETATM   24  C13 UNL     1      22.705   2.086  52.126  1.00  0.00    -0.017 A 
HETATM   25  C14 UNL     1      22.194   1.183  53.022  1.00  0.00     0.013 A 
HETATM   26  C15 UNL     1      21.426   0.195  52.449  1.00  0.00     0.003 A 
HETATM   27  C16 UNL     1      21.201   0.134  51.096  1.00  0.00     0.024 A 
HETATM   28  C17 UNL     1      21.734   1.063  50.231  1.00  0.00     0.034 A 
HETATM   29 CL1  UNL     1      21.414   0.937  48.520  1.00  0.00    -0.084 Cl
HETATM   30  C18 UNL     1      22.512   2.073  50.761  1.00  0.00     0.036 A 
ENDBRANCH  23  24
ENDBRANCH   7  22
TORSDOF 7
ENDMDL
MODEL 4
REMARK VINA RESULT:      -8.2      4.529      8.600
REMARK  7 active torsions:
REMARK  status: ('A' for Active; 'I' for Inactive)
REMARK    1  A    between atoms: O1_2  and  C2_3 
REMARK    2  A    between atoms: C5_6  and  C6_7 
REMARK    3  A    between atoms: C6_7  and  N1_8 
REMARK    4  A    between atoms: N1_8  and  C7_9 
REMARK    5  A    between atoms: C7_9  and  N2_10 
REMARK    6  A    between atoms: C11_17  and  N6_18 
REMARK    7  A    between atoms: C12_19  and  C13_20 
ROOT
HETATM    1  C7  UNL     1      24.072   5.351  50.934  1.00  0.00     0.157 C 
HETATM    2  C8  UNL     1      23.507   4.212  51.366  1.00  0.00     0.057 A 
HETATM    3  C9  UNL     1      22.278   4.366  52.145  1.00  0.00     0.197 A 
HETATM    4  N4  UNL     1      21.809   3.059  52.529  1.00  0.00    -0.278 NA
HETATM    5  C10 UNL     1      22.471   2.024  52.169  1.00  0.00     0.229 A 
HETATM    6  N5  UNL     1      23.677   1.854  51.408  1.00  0.00    -0.222 NA
HETATM    7  C11 UNL     1      24.201   2.984  50.999  1.00  0.00     0.162 A 
ENDROOT
BRANCH   1   8
HETATM    8  N1  UNL     1      25.226   5.572  50.179  1.00  0.00    -0.369 N 
HETATM    9  H8  UNL     1      26.005   5.204  50.804  1.00  0.00     0.161 HD
BRANCH   8  10
HETATM   10  C6  UNL     1      25.510   6.132  48.880  1.00  0.00     0.160 C 
BRANCH  10  11
HETATM   11  C5  UNL     1      26.944   6.099  48.513  1.00  0.00    -0.040 A 
HETATM   12  C4  UNL     1      27.436   7.282  47.994  1.00  0.00     0.011 A 
HETATM   13  C3  UNL     1      28.743   7.434  47.597  1.00  0.00     0.037 A 
HETATM   14  C2  UNL     1      29.615   6.371  47.717  1.00  0.00     0.068 A 
HETATM   15  C20 UNL     1      29.126   5.190  48.235  1.00  0.00     0.037 A 
HETATM   16  C19 UNL     1      27.811   5.033  48.636  1.00  0.00     0.011 A 
BRANCH  14  17
HETATM   17  O1  UNL     1      30.938   6.298  47.392  1.00  0.00    -0.356 OA
HETATM   18  C1  UNL     1      31.755   5.166  47.374  1.00  0.00     0.210 C 
ENDBRANCH  14  17
ENDBRANCH  10  11
ENDBRANCH   8  10
ENDBRANCH   1   8
BRANCH   1  19
HETATM   19  N2  UNL     1      23.540   6.647  51.195  1.00  0.00    -0.139 NA
HETATM   20  N3  UNL     1      24.196   7.600  51.710  1.00  0.00    -0.202 NA
HETATM   21  H9  UNL     1      25.192   7.420  51.958  1.00  0.00     0.212 HD
ENDBRANCH   1  19
BRANCH   7  22
HETATM   22  N6  UNL     1      25.396   2.902  50.239  1.00  0.00    -0.240 NA
HETATM   23  C12 UNL     1      26.412   2.276  50.711  1.00  0.00     0.130 C 
BRANCH  23  24
HETATM   24  C13 UNL     1      26.971   1.508  51.815  1.00  0.00    -0.017 A 
HETATM   25  C14 UNL     1      26.547   0.209  51.920  1.00  0.00     0.013 A 
HETATM   26  C15 UNL     1      27.099  -0.481  52.975  1.00  0.00     0.003 A 
HETATM   27  C16 UNL     1      27.996   0.098  53.839  1.00  0.00     0.024 A 
HETATM   28  C17 UNL     1      28.396   1.408  53.697  1.00  0.00     0.034 A 
HETATM   29 CL1  UNL     1      29.539   2.091  54.824  1.00  0.00    -0.084 Cl
HETATM   30  C18 UNL     1      27.867   2.139  52.652  1.00  0.00     0.036 A 
ENDBRANCH  23  24
ENDBRANCH   7  22
TORSDOF 7
ENDMDL
MODEL 5
REMARK VINA RESULT:      -8.1      3.937      7.630
REMARK  7 active torsions:
REMARK  status: ('A' for Active; 'I' for Inactive)
REMARK    1  A    between atoms: O1_2  and  C2_3 
REMARK    2  A    between atoms: C5_6  and  C6_7 
REMARK    3  A    between atoms: C6_7  and  N1_8 
REMARK    4  A    between atoms: N1_8  and  C7_9 
REMARK    5  A    between atoms: C7_9  and  N2_10 
REMARK    6  A    between atoms: C11_17  and  N6_18 
REMARK    7  A    between atoms: C12_19  and  C13_20 
ROOT
HETATM    1  C7  UNL     1      23.152   4.248  51.242  1.00  0.00     0.157 C 
HETATM    2  C8  UNL     1      21.957   4.347  50.636  1.00  0.00     0.057 A 
HETATM    3  C9  UNL     1      21.228   5.594  50.866  1.00  0.00     0.197 A 
HETATM    4  N4  UNL     1      19.977   5.535  50.153  1.00  0.00    -0.278 NA
HETATM    5  C10 UNL     1      19.693   4.490  49.471  1.00  0.00     0.229 A 
HETATM    6  N5  UNL     1      20.394   3.259  49.235  1.00  0.00    -0.222 NA
HETATM    7  C11 UNL     1      21.557   3.195  49.838  1.00  0.00     0.162 A 
ENDROOT
BRANCH   1   8
HETATM    8  N1  UNL     1      24.097   3.221  51.240  1.00  0.00    -0.369 N 
HETATM    9  H8  UNL     1      23.521   2.354  51.459  1.00  0.00     0.161 HD
BRANCH   8  10
HETATM   10  C6  UNL     1      25.521   3.138  51.022  1.00  0.00     0.160 C 
BRANCH  10  11
HETATM   11  C5  UNL     1      26.173   2.016  51.737  1.00  0.00    -0.040 A 
HETATM   12  C4  UNL     1      27.377   2.335  52.337  1.00  0.00     0.011 A 
HETATM   13  C3  UNL     1      28.122   1.420  53.041  1.00  0.00     0.037 A 
HETATM   14  C2  UNL     1      27.663   0.124  53.164  1.00  0.00     0.068 A 
HETATM   15  C20 UNL     1      26.462  -0.195  52.566  1.00  0.00     0.037 A 
HETATM   16  C19 UNL     1      25.708   0.723  51.857  1.00  0.00     0.011 A 
BRANCH  14  17
HETATM   17  O1  UNL     1      28.230  -0.936  53.810  1.00  0.00    -0.356 OA
HETATM   18  C1  UNL     1      29.533  -1.421  53.680  1.00  0.00     0.210 C 
ENDBRANCH  14  17
ENDBRANCH  10  11
ENDBRANCH   8  10
ENDBRANCH   1   8
BRANCH   1  19
HETATM   19  N2  UNL     1      23.709   5.271  52.063  1.00  0.00    -0.139 NA
HETATM   20  N3  UNL     1      23.772   5.219  53.327  1.00  0.00    -0.202 NA
HETATM   21  H9  UNL     1      23.389   4.370  53.794  1.00  0.00     0.212 HD
ENDBRANCH   1  19
BRANCH   7  22
HETATM   22  N6  UNL     1      22.314   2.010  49.655  1.00  0.00    -0.240 NA
HETATM   23  C12 UNL     1      22.090   0.989  50.400  1.00  0.00     0.130 C 
BRANCH  23  24
HETATM   24  C13 UNL     1      21.311   0.415  51.488  1.00  0.00    -0.017 A 
HETATM   25  C14 UNL     1      19.953   0.385  51.304  1.00  0.00     0.013 A 
HETATM   26  C15 UNL     1      19.254  -0.165  52.355  1.00  0.00     0.003 A 
HETATM   27  C16 UNL     1      19.879  -0.637  53.483  1.00  0.00     0.024 A 
HETATM   28  C17 UNL     1      21.248  -0.588  53.627  1.00  0.00     0.034 A 
HETATM   29 CL1  UNL     1      21.988  -1.203  55.082  1.00  0.00    -0.084 Cl
HETATM   30  C18 UNL     1      21.989  -0.044  52.597  1.00  0.00     0.036 A 
ENDBRANCH  23  24
ENDBRANCH   7  22
TORSDOF 7
ENDMDL
MODEL 6
REMARK VINA RESULT:      -8.1      3.636      6.896
REMARK  7 active torsions:
REMARK  status: ('A' for Active; 'I' for Inactive)
REMARK    1  A    between atoms: O1_2  and  C2_3 
REMARK    2  A    between atoms: C5_6  and  C6_7 
REMARK    3  A    between atoms: C6_7  and  N1_8 
REMARK    4  A    between atoms: N1_8  and  C7_9 
REMARK    5  A    between atoms: C7_9  and  N2_10 
REMARK    6  A    between atoms: C11_17  and  N6_18 
REMARK    7  A    between atoms: C12_19  and  C13_20 
ROOT
HETATM    1  C7  UNL     1      24.420   4.450  50.418  1.00  0.00     0.157 C 
HETATM    2  C8  UNL     1      23.087   4.611  50.442  1.00  0.00     0.057 A 
HETATM    3  C9  UNL     1      22.615   5.965  50.733  1.00  0.00     0.197 A 
HETATM    4  N4  UNL     1      21.174   5.963  50.723  1.00  0.00    -0.278 NA
HETATM    5  C10 UNL     1      20.551   4.872  50.479  1.00  0.00     0.229 A 
HETATM    6  N5  UNL     1      20.996   3.537  50.192  1.00  0.00    -0.222 NA
HETATM    7  C11 UNL     1      22.301   3.413  50.175  1.00  0.00     0.162 A 
ENDROOT
BRANCH   1   8
HETATM    8  N1  UNL     1      25.201   3.318  50.178  1.00  0.00    -0.369 N 
HETATM    9  H8  UNL     1      24.663   2.802  49.419  1.00  0.00     0.161 HD
BRANCH   8  10
HETATM   10  C6  UNL     1      26.441   2.797  50.701  1.00  0.00     0.160 C 
BRANCH  10  11
HETATM   11  C5  UNL     1      26.271   1.914  51.879  1.00  0.00    -0.040 A 
HETATM   12  C4  UNL     1      26.383   0.563  51.609  1.00  0.00     0.011 A 
HETATM   13  C3  UNL     1      26.252  -0.402  52.578  1.00  0.00     0.037 A 
HETATM   14  C2  UNL     1      26.000  -0.023  53.881  1.00  0.00     0.068 A 
HETATM   15  C20 UNL     1      25.888   1.324  54.152  1.00  0.00     0.037 A 
HETATM   16  C19 UNL     1      26.019   2.300  53.178  1.00  0.00     0.011 A 
BRANCH  14  17
HETATM   17  O1  UNL     1      25.836  -0.801  54.991  1.00  0.00    -0.356 OA
HETATM   18  C1  UNL     1      24.641  -1.171  55.608  1.00  0.00     0.210 C 
ENDBRANCH  14  17
ENDBRANCH  10  11
ENDBRANCH   8  10
ENDBRANCH   1   8
BRANCH   1  19
HETATM   19  N2  UNL     1      25.349   5.504  50.657  1.00  0.00    -0.139 NA
HETATM   20  N3  UNL     1      26.034   6.072  49.755  1.00  0.00    -0.202 NA
HETATM   21  H9  UNL     1      25.907   5.742  48.775  1.00  0.00     0.212 HD
ENDBRANCH   1  19
BRANCH   7  22
HETATM   22  N6  UNL     1      22.823   2.124  49.898  1.00  0.00    -0.240 NA
HETATM   23  C12 UNL     1      22.508   1.133  50.652  1.00  0.00     0.130 C 
BRANCH  23  24
HETATM   24  C13 UNL     1      21.762   0.666  51.811  1.00  0.00    -0.017 A 
HETATM   25  C14 UNL     1      22.446   0.647  52.999  1.00  0.00     0.013 A 
HETATM   26  C15 UNL     1      21.705   0.200  54.069  1.00  0.00     0.003 A 
HETATM   27  C16 UNL     1      20.395  -0.189  53.941  1.00  0.00     0.024 A 
HETATM   28  C17 UNL     1      19.744  -0.154  52.728  1.00  0.00     0.034 A 
HETATM   29 CL1  UNL     1      18.078  -0.661  52.623  1.00  0.00    -0.084 Cl
HETATM   30  C18 UNL     1      20.449   0.288  51.625  1.00  0.00     0.036 A 
ENDBRANCH  23  24
ENDBRANCH   7  22
TORSDOF 7
ENDMDL
MODEL 7
REMARK VINA RESULT:      -8.0      3.409      6.257
REMARK  7 active torsions:
REMARK  status: ('A' for Active; 'I' for Inactive)
REMARK    1  A    between atoms: O1_2  and  C2_3 
REMARK    2  A    between atoms: C5_6  and  C6_7 
REMARK    3  A    between atoms: C6_7  and  N1_8 
REMARK    4  A    between atoms: N1_8  and  C7_9 
REMARK    5  A    between atoms: C7_9  and  N2_10 
REMARK    6  A    between atoms: C11_17  and  N6_18 
REMARK    7  A    between atoms: C12_19  and  C13_20 
ROOT
HETATM    1  C7  UNL     1      21.520   0.074  52.831  1.00  0.00     0.157 C 
HETATM    2  C8  UNL     1      22.416  -0.392  53.716  1.00  0.00     0.057 A 
HETATM    3  C9  UNL     1      21.864  -1.136  54.848  1.00  0.00     0.197 A 
HETATM    4  N4  UNL     1      22.950  -1.559  55.695  1.00  0.00    -0.278 NA
HETATM    5  C10 UNL     1      24.151  -1.256  55.372  1.00  0.00     0.229 A 
HETATM    6  N5  UNL     1      24.711  -0.527  54.268  1.00  0.00    -0.222 NA
HETATM    7  C11 UNL     1      23.810  -0.088  53.422  1.00  0.00     0.162 A 
ENDROOT
BRANCH   1   8
HETATM    8  N1  UNL     1      21.690   0.810  51.657  1.00  0.00    -0.369 N 
HETATM    9  H8  UNL     1      22.172   0.124  51.001  1.00  0.00     0.161 HD
BRANCH   8  10
HETATM   10  C6  UNL     1      21.370   2.152  51.232  1.00  0.00     0.160 C 
BRANCH  10  11
HETATM   11  C5  UNL     1      22.558   2.999  50.975  1.00  0.00    -0.040 A 
HETATM   12  C4  UNL     1      23.247   2.693  49.816  1.00  0.00     0.011 A 
HETATM   13  C3  UNL     1      24.374   3.373  49.420  1.00  0.00     0.037 A 
HETATM   14  C2  UNL     1      24.849   4.408  50.199  1.00  0.00     0.068 A 
HETATM   15  C20 UNL     1      24.162   4.714  51.355  1.00  0.00     0.037 A 
HETATM   16  C19 UNL     1      23.028   4.033  51.758  1.00  0.00     0.011 A 
BRANCH  14  17
HETATM   17  O1  UNL     1      25.936   5.210  50.000  1.00  0.00    -0.356 OA
HETATM   18  C1  UNL     1      26.685   5.362  48.833  1.00  0.00     0.210 C 
ENDBRANCH  14  17
ENDBRANCH  10  11
ENDBRANCH   8  10
ENDBRANCH   1   8
BRANCH   1  19
HETATM   19  N2  UNL     1      20.113  -0.122  52.950  1.00  0.00    -0.139 NA
HETATM   20  N3  UNL     1      19.305  -0.121  51.975  1.00  0.00    -0.202 NA
HETATM   21  H9  UNL     1      19.699   0.035  51.023  1.00  0.00     0.212 HD
ENDBRANCH   1  19
BRANCH   7  22
HETATM   22  N6  UNL     1      24.282   0.643  52.302  1.00  0.00    -0.240 NA
HETATM   23  C12 UNL     1      25.532   0.914  52.197  1.00  0.00     0.130 C 
BRANCH  23  24
HETATM   24  C13 UNL     1      26.862   0.799  52.777  1.00  0.00    -0.017 A 
HETATM   25  C14 UNL     1      27.401   1.955  53.280  1.00  0.00     0.013 A 
HETATM   26  C15 UNL     1      28.659   1.802  53.819  1.00  0.00     0.003 A 
HETATM   27  C16 UNL     1      29.302   0.590  53.844  1.00  0.00     0.024 A 
HETATM   28  C17 UNL     1      28.724  -0.548  53.328  1.00  0.00     0.034 A 
HETATM   29 CL1  UNL     1      29.589  -2.062  53.386  1.00  0.00    -0.084 Cl
HETATM   30  C18 UNL     1      27.463  -0.442  52.776  1.00  0.00     0.036 A 
ENDBRANCH  23  24
ENDBRANCH   7  22
TORSDOF 7
ENDMDL
MODEL 8
REMARK VINA RESULT:      -8.0      6.825      9.525
REMARK  7 active torsions:
REMARK  status: ('A' for Active; 'I' for Inactive)
REMARK    1  A    between atoms: O1_2  and  C2_3 
REMARK    2  A    between atoms: C5_6  and  C6_7 
REMARK    3  A    between atoms: C6_7  and  N1_8 
REMARK    4  A    between atoms: N1_8  and  C7_9 
REMARK    5  A    between atoms: C7_9  and  N2_10 
REMARK    6  A    between atoms: C11_17  and  N6_18 
REMARK    7  A    between atoms: C12_19  and  C13_20 
ROOT
HETATM    1  C7  UNL     1      28.552   8.789  49.114  1.00  0.00     0.157 C 
HETATM    2  C8  UNL     1      29.662   9.207  48.483  1.00  0.00     0.057 A 
HETATM    3  C9  UNL     1      30.004  10.617  48.664  1.00  0.00     0.197 A 
HETATM    4  N4  UNL     1      31.209  10.898  47.926  1.00  0.00    -0.278 NA
HETATM    5  C10 UNL     1      31.774   9.956  47.267  1.00  0.00     0.229 A 
HETATM    6  N5  UNL     1      31.454   8.570  47.078  1.00  0.00    -0.222 NA
HETATM    7  C11 UNL     1      30.367   8.193  47.708  1.00  0.00     0.162 A 
ENDROOT
BRANCH   1   8
HETATM    8  N1  UNL     1      27.943   7.533  49.160  1.00  0.00    -0.369 N 
HETATM    9  H8  UNL     1      28.554   6.986  49.838  1.00  0.00     0.161 HD
BRANCH   8  10
HETATM   10  C6  UNL     1      26.789   6.930  48.539  1.00  0.00     0.160 C 
BRANCH  10  11
HETATM   11  C5  UNL     1      26.386   5.641  49.147  1.00  0.00    -0.040 A 
HETATM   12  C4  UNL     1      25.221   5.690  49.889  1.00  0.00     0.011 A 
HETATM   13  C3  UNL     1      24.697   4.591  50.526  1.00  0.00     0.037 A 
HETATM   14  C2  UNL     1      25.349   3.379  50.430  1.00  0.00     0.068 A 
HETATM   15  C20 UNL     1      26.511   3.327  49.689  1.00  0.00     0.037 A 
HETATM   16  C19 UNL     1      27.042   4.432  49.046  1.00  0.00     0.011 A 
BRANCH  14  17
HETATM   17  O1  UNL     1      25.014   2.172  50.972  1.00  0.00    -0.356 OA
HETATM   18  C1  UNL     1      23.747   1.726  51.351  1.00  0.00     0.210 C 
ENDBRANCH  14  17
ENDBRANCH  10  11
ENDBRANCH   8  10
ENDBRANCH   1   8
BRANCH   1  19
HETATM   19  N2  UNL     1      27.732   9.634  49.916  1.00  0.00    -0.139 NA
HETATM   20  N3  UNL     1      27.605   9.525  51.172  1.00  0.00    -0.202 NA
HETATM   21  H9  UNL     1      28.137   8.764  51.645  1.00  0.00     0.212 HD
ENDBRANCH   1  19
BRANCH   7  22
HETATM   22  N6  UNL     1      29.981   6.836  47.572  1.00  0.00    -0.240 NA
HETATM   23  C12 UNL     1      30.875   5.914  47.575  1.00  0.00     0.130 C 
BRANCH  23  24
HETATM   24  C13 UNL     1      32.289   5.582  47.668  1.00  0.00    -0.017 A 
HETATM   25  C14 UNL     1      32.907   5.907  48.848  1.00  0.00     0.013 A 
HETATM   26  C15 UNL     1      34.242   5.577  48.894  1.00  0.00     0.003 A 
HETATM   27  C16 UNL     1      34.884   4.974  47.841  1.00  0.00     0.024 A 
HETATM   28  C17 UNL     1      34.226   4.664  46.673  1.00  0.00     0.034 A 
HETATM   29 CL1  UNL     1      35.092   3.897  45.367  1.00  0.00    -0.084 Cl
HETATM   30  C18 UNL     1      32.884   4.978  46.581  1.00  0.00     0.036 A 
ENDBRANCH  23  24
ENDBRANCH   7  22
TORSDOF 7
ENDMDL
MODEL 9
REMARK VINA RESULT:      -8.0      4.176      7.879
REMARK  7 active torsions:
REMARK  status: ('A' for Active; 'I' for Inactive)
REMARK    1  A    between atoms: O1_2  and  C2_3 
REMARK    2  A    between atoms: C5_6  and  C6_7 
REMARK    3  A    between atoms: C6_7  and  N1_8 
REMARK    4  A    between atoms: N1_8  and  C7_9 
REMARK    5  A    between atoms: C7_9  and  N2_10 
REMARK    6  A    between atoms: C11_17  and  N6_18 
REMARK    7  A    between atoms: C12_19  and  C13_20 
ROOT
HETATM    1  C7  UNL     1      23.641   2.511  50.192  1.00  0.00     0.157 C 
HETATM    2  C8  UNL     1      23.030   1.742  51.108  1.00  0.00     0.057 A 
HETATM    3  C9  UNL     1      21.841   1.026  50.648  1.00  0.00     0.197 A 
HETATM    4  N4  UNL     1      21.312   0.256  51.745  1.00  0.00    -0.278 NA
HETATM    5  C10 UNL     1      21.903   0.297  52.881  1.00  0.00     0.229 A 
HETATM    6  N5  UNL     1      23.068   0.992  53.350  1.00  0.00    -0.222 NA
HETATM    7  C11 UNL     1      23.641   1.732  52.431  1.00  0.00     0.162 A 
ENDROOT
BRANCH   1   8
HETATM    8  N1  UNL     1      24.777   3.316  50.282  1.00  0.00    -0.369 N 
HETATM    9  H8  UNL     1      24.476   4.099  50.936  1.00  0.00     0.161 HD
BRANCH   8  10
HETATM   10  C6  UNL     1      26.108   3.279  49.724  1.00  0.00     0.160 C 
BRANCH  10  11
HETATM   11  C5  UNL     1      26.584   4.587  49.219  1.00  0.00    -0.040 A 
HETATM   12  C4  UNL     1      25.698   5.634  49.401  1.00  0.00     0.011 A 
HETATM   13  C3  UNL     1      25.970   6.918  48.994  1.00  0.00     0.037 A 
HETATM   14  C2  UNL     1      27.174   7.191  48.377  1.00  0.00     0.068 A 
HETATM   15  C20 UNL     1      28.059   6.149  48.196  1.00  0.00     0.037 A 
HETATM   16  C19 UNL     1      27.789   4.854  48.604  1.00  0.00     0.011 A 
BRANCH  14  17
HETATM   17  O1  UNL     1      27.650   8.378  47.898  1.00  0.00    -0.356 OA
HETATM   18  C1  UNL     1      27.604   8.852  46.587  1.00  0.00     0.210 C 
ENDBRANCH  14  17
ENDBRANCH  10  11
ENDBRANCH   8  10
ENDBRANCH   1   8
BRANCH   1  19
HETATM   19  N2  UNL     1      23.189   2.648  48.846  1.00  0.00    -0.139 NA
HETATM   20  N3  UNL     1      22.788   3.734  48.333  1.00  0.00    -0.202 NA
HETATM   21  H9  UNL     1      22.789   4.582  48.938  1.00  0.00     0.212 HD
ENDBRANCH   1  19
BRANCH   7  22
HETATM   22  N6  UNL     1      24.801   2.453  52.815  1.00  0.00    -0.240 NA
HETATM   23  C12 UNL     1      25.913   1.833  52.977  1.00  0.00     0.130 C 
BRANCH  23  24
HETATM   24  C13 UNL     1      26.623   0.562  52.941  1.00  0.00    -0.017 A 
HETATM   25  C14 UNL     1      25.919  -0.505  52.445  1.00  0.00     0.013 A 
HETATM   26  C15 UNL     1      26.625  -1.686  52.428  1.00  0.00     0.003 A 
HETATM   27  C16 UNL     1      27.921  -1.771  52.872  1.00  0.00     0.024 A 
HETATM   28  C17 UNL     1      28.592  -0.673  53.363  1.00  0.00     0.034 A 
HETATM   29 CL1  UNL     1      30.239  -0.839  53.914  1.00  0.00    -0.084 Cl
HETATM   30  C18 UNL     1      27.922   0.534  53.399  1.00  0.00     0.036 A 
ENDBRANCH  23  24
ENDBRANCH   7  22
TORSDOF 7
ENDMDL
