MODEL 1
REMARK VINA RESULT:      -9.3      0.000      0.000
REMARK  3 active torsions:
REMARK  status: ('A' for Active; 'I' for Inactive)
REMARK    1  A    between atoms: C4_4  and  O1_5 
REMARK    2  A    between atoms: C6_7  and  N1_8 
REMARK    3  A    between atoms: N4_19  and  C13_20 
ROOT
HETATM    1  N1  UNL     1      22.012   3.175  51.492  1.00  0.00    -0.307 N 
HETATM    2  C7  UNL     1      20.779   3.782  51.119  1.00  0.00     0.249 C 
HETATM    3  O2  UNL     1      20.653   4.521  50.107  1.00  0.00    -0.271 OA
HETATM    4  C8  UNL     1      19.552   3.567  51.931  1.00  0.00     0.279 C 
HETATM    5  O3  UNL     1      19.554   2.276  52.510  1.00  0.00    -0.340 OA
HETATM    6  C9  UNL     1      20.720   1.667  52.891  1.00  0.00     0.099 A 
HETATM    7  C10 UNL     1      20.610   0.646  53.755  1.00  0.00     0.073 A 
HETATM    8  C11 UNL     1      21.883   0.029  54.130  1.00  0.00     0.090 A 
HETATM    9  N2  UNL     1      21.926  -0.965  54.956  1.00  0.00    -0.238 NA
HETATM   10  C12 UNL     1      23.203  -1.540  55.295  1.00  0.00     0.255 A 
HETATM   11  N3  UNL     1      24.362  -1.151  54.844  1.00  0.00    -0.164 NA
HETATM   12  N4  UNL     1      24.411  -0.066  53.933  1.00  0.00    -0.254 N 
HETATM   13  C18 UNL     1      23.142   0.525  53.580  1.00  0.00     0.096 A 
HETATM   14  C19 UNL     1      23.162   1.510  52.755  1.00  0.00     0.040 A 
HETATM   15  C20 UNL     1      22.040   2.080  52.402  1.00  0.00     0.085 A 
ENDROOT
BRANCH   1  16
HETATM   16  C6  UNL     1      23.236   3.677  50.938  1.00  0.00     0.100 C 
HETATM   17  C2  UNL     1      23.396   3.234  49.500  1.00  0.00    -0.027 C 
HETATM   18  C1  UNL     1      22.773   2.305  48.745  1.00  0.00     0.044 C 
HETATM   19  C3  UNL     1      24.492   4.075  48.934  1.00  0.00     0.039 C 
HETATM   20  C4  UNL     1      24.454   5.328  49.798  1.00  0.00     0.120 C 
HETATM   21  C5  UNL     1      23.292   5.158  50.757  1.00  0.00     0.057 C 
BRANCH  20  22
HETATM   22  O1  UNL     1      25.645   5.355  50.539  1.00  0.00    -0.395 OA
HETATM   23  H6  UNL     1      26.084   6.214  50.338  1.00  0.00     0.210 HD
ENDBRANCH  20  22
ENDBRANCH   1  16
BRANCH  12  24
HETATM   24  C13 UNL     1      25.627   0.444  53.375  1.00  0.00     0.158 A 
HETATM   25  C14 UNL     1      26.450   1.043  54.470  1.00  0.00     0.006 A 
HETATM   26  C15 UNL     1      27.573   0.360  54.523  1.00  0.00     0.022 A 
HETATM   27  C16 UNL     1      27.593  -0.689  53.525  1.00  0.00     0.032 A 
HETATM   28 CL1  UNL     1      28.805  -1.887  53.137  1.00  0.00    -0.085 Cl
HETATM   29  C17 UNL     1      26.456  -0.661  52.835  1.00  0.00     0.028 A 
ENDBRANCH  12  24
TORSDOF 3
ENDMDL
MODEL 2
REMARK VINA RESULT:      -8.8      3.100      5.891
REMARK  3 active torsions:
REMARK  status: ('A' for Active; 'I' for Inactive)
REMARK    1  A    between atoms: C4_4  and  O1_5 
REMARK    2  A    between atoms: C6_7  and  N1_8 
REMARK    3  A    between atoms: N4_19  and  C13_20 
ROOT
HETATM    1  N1  UNL     1      25.087   0.264  54.148  1.00  0.00    -0.307 N 
HETATM    2  C7  UNL     1      24.672  -0.773  55.031  1.00  0.00     0.249 C 
HETATM    3  O2  UNL     1      25.332  -1.119  56.046  1.00  0.00    -0.271 OA
HETATM    4  C8  UNL     1      23.407  -1.516  54.787  1.00  0.00     0.279 C 
HETATM    5  O3  UNL     1      22.441  -0.676  54.183  1.00  0.00    -0.340 OA
HETATM    6  C9  UNL     1      22.804   0.323  53.320  1.00  0.00     0.099 A 
HETATM    7  C10 UNL     1      21.840   0.805  52.520  1.00  0.00     0.073 A 
HETATM    8  C11 UNL     1      22.278   1.871  51.618  1.00  0.00     0.090 A 
HETATM    9  N2  UNL     1      21.454   2.427  50.790  1.00  0.00    -0.238 NA
HETATM   10  C12 UNL     1      21.931   3.473  49.922  1.00  0.00     0.255 A 
HETATM   11  N3  UNL     1      23.149   3.934  49.876  1.00  0.00    -0.164 NA
HETATM   12  N4  UNL     1      24.121   3.382  50.748  1.00  0.00    -0.254 N 
HETATM   13  C18 UNL     1      23.663   2.333  51.627  1.00  0.00     0.096 A 
HETATM   14  C19 UNL     1      24.528   1.819  52.427  1.00  0.00     0.040 A 
HETATM   15  C20 UNL     1      24.165   0.865  53.244  1.00  0.00     0.085 A 
ENDROOT
BRANCH   1  16
HETATM   16  C6  UNL     1      26.452   0.703  54.176  1.00  0.00     0.100 C 
HETATM   17  C2  UNL     1      27.293  -0.096  53.204  1.00  0.00    -0.027 C 
HETATM   18  C1  UNL     1      27.082  -1.245  52.529  1.00  0.00     0.044 C 
HETATM   19  C3  UNL     1      28.576   0.652  53.063  1.00  0.00     0.039 C 
HETATM   20  C4  UNL     1      28.185   2.084  53.404  1.00  0.00     0.120 C 
HETATM   21  C5  UNL     1      26.689   2.079  53.647  1.00  0.00     0.057 C 
BRANCH  20  22
HETATM   22  O1  UNL     1      28.832   2.414  54.604  1.00  0.00    -0.395 OA
HETATM   23  H6  UNL     1      28.170   2.884  55.164  1.00  0.00     0.210 HD
ENDBRANCH  20  22
ENDBRANCH   1  16
BRANCH  12  24
HETATM   24  C13 UNL     1      25.486   3.813  50.783  1.00  0.00     0.158 A 
HETATM   25  C14 UNL     1      26.295   2.938  49.881  1.00  0.00     0.006 A 
HETATM   26  C15 UNL     1      26.799   3.713  48.945  1.00  0.00     0.022 A 
HETATM   27  C16 UNL     1      26.393   5.090  49.135  1.00  0.00     0.032 A 
HETATM   28 CL1  UNL     1      26.753   6.533  48.217  1.00  0.00    -0.085 Cl
HETATM   29  C17 UNL     1      25.618   5.175  50.212  1.00  0.00     0.028 A 
ENDBRANCH  12  24
TORSDOF 3
ENDMDL
MODEL 3
REMARK VINA RESULT:      -8.5      2.828      4.729
REMARK  3 active torsions:
REMARK  status: ('A' for Active; 'I' for Inactive)
REMARK    1  A    between atoms: C4_4  and  O1_5 
REMARK    2  A    between atoms: C6_7  and  N1_8 
REMARK    3  A    between atoms: N4_19  and  C13_20 
ROOT
HETATM    1  N1  UNL     1      21.434   0.658  51.978  1.00  0.00    -0.307 N 
HETATM    2  C7  UNL     1      20.492  -0.109  52.719  1.00  0.00     0.249 C 
HETATM    3  O2  UNL     1      19.367  -0.446  52.264  1.00  0.00    -0.271 OA
HETATM    4  C8  UNL     1      20.802  -0.561  54.102  1.00  0.00     0.279 C 
HETATM    5  O3  UNL     1      22.187  -0.812  54.249  1.00  0.00    -0.340 OA
HETATM    6  C9  UNL     1      23.121  -0.084  53.560  1.00  0.00     0.099 A 
HETATM    7  C10 UNL     1      24.377  -0.121  54.030  1.00  0.00     0.073 A 
HETATM    8  C11 UNL     1      25.337   0.671  53.260  1.00  0.00     0.090 A 
HETATM    9  N2  UNL     1      26.583   0.727  53.600  1.00  0.00    -0.238 NA
HETATM   10  C12 UNL     1      27.490   1.520  52.810  1.00  0.00     0.255 A 
HETATM   11  N3  UNL     1      27.178   2.214  51.753  1.00  0.00    -0.164 NA
HETATM   12  N4  UNL     1      25.833   2.212  51.307  1.00  0.00    -0.254 N 
HETATM   13  C18 UNL     1      24.908   1.423  52.084  1.00  0.00     0.096 A 
HETATM   14  C19 UNL     1      23.682   1.406  51.698  1.00  0.00     0.040 A 
HETATM   15  C20 UNL     1      22.804   0.708  52.367  1.00  0.00     0.085 A 
ENDROOT
BRANCH   1  16
HETATM   16  C6  UNL     1      20.991   1.389  50.826  1.00  0.00     0.100 C 
HETATM   17  C2  UNL     1      20.873   2.865  51.138  1.00  0.00    -0.027 C 
HETATM   18  C1  UNL     1      20.865   3.566  52.291  1.00  0.00     0.044 C 
HETATM   19  C3  UNL     1      20.748   3.552  49.819  1.00  0.00     0.039 C 
HETATM   20  C4  UNL     1      21.427   2.587  48.856  1.00  0.00     0.120 C 
HETATM   21  C5  UNL     1      21.962   1.443  49.693  1.00  0.00     0.057 C 
BRANCH  20  22
HETATM   22  O1  UNL     1      20.432   2.089  48.002  1.00  0.00    -0.395 OA
HETATM   23  H6  UNL     1      19.566   2.369  48.381  1.00  0.00     0.210 HD
ENDBRANCH  20  22
ENDBRANCH   1  16
BRANCH  12  24
HETATM   24  C13 UNL     1      25.380   2.938  50.158  1.00  0.00     0.158 A 
HETATM   25  C14 UNL     1      24.760   4.222  50.609  1.00  0.00     0.006 A 
HETATM   26  C15 UNL     1      25.470   5.196  50.083  1.00  0.00     0.022 A 
HETATM   27  C16 UNL     1      26.559   4.674  49.284  1.00  0.00     0.032 A 
HETATM   28 CL1  UNL     1      27.804   5.486  48.364  1.00  0.00    -0.085 Cl
HETATM   29  C17 UNL     1      26.528   3.345  49.313  1.00  0.00     0.028 A 
ENDBRANCH  12  24
TORSDOF 3
ENDMDL
MODEL 4
REMARK VINA RESULT:      -8.4      1.933      2.646
REMARK  3 active torsions:
REMARK  status: ('A' for Active; 'I' for Inactive)
REMARK    1  A    between atoms: C4_4  and  O1_5 
REMARK    2  A    between atoms: C6_7  and  N1_8 
REMARK    3  A    between atoms: N4_19  and  C13_20 
ROOT
HETATM    1  N1  UNL     1      20.163   0.928  51.141  1.00  0.00    -0.307 N 
HETATM    2  C7  UNL     1      18.768   0.783  50.895  1.00  0.00     0.249 C 
HETATM    3  O2  UNL     1      18.226   1.085  49.799  1.00  0.00    -0.271 OA
HETATM    4  C8  UNL     1      17.863   0.256  51.951  1.00  0.00     0.279 C 
HETATM    5  O3  UNL     1      18.537  -0.686  52.765  1.00  0.00    -0.340 OA
HETATM    6  C9  UNL     1      19.875  -0.571  53.031  1.00  0.00     0.099 A 
HETATM    7  C10 UNL     1      20.339  -1.258  54.085  1.00  0.00     0.073 A 
HETATM    8  C11 UNL     1      21.774  -1.103  54.327  1.00  0.00     0.090 A 
HETATM    9  N2  UNL     1      22.356  -1.708  55.311  1.00  0.00    -0.238 NA
HETATM   10  C12 UNL     1      23.771  -1.524  55.509  1.00  0.00     0.255 A 
HETATM   11  N3  UNL     1      24.556  -0.785  54.778  1.00  0.00    -0.164 NA
HETATM   12  N4  UNL     1      24.004  -0.083  53.677  1.00  0.00    -0.254 N 
HETATM   13  C18 UNL     1      22.588  -0.254  53.461  1.00  0.00     0.096 A 
HETATM   14  C19 UNL     1      22.066   0.373  52.468  1.00  0.00     0.040 A 
HETATM   15  C20 UNL     1      20.787   0.253  52.229  1.00  0.00     0.085 A 
ENDROOT
BRANCH   1  16
HETATM   16  C6  UNL     1      20.943   1.766  50.277  1.00  0.00     0.100 C 
HETATM   17  C2  UNL     1      21.142   3.134  50.893  1.00  0.00    -0.027 C 
HETATM   18  C1  UNL     1      20.558   3.775  51.927  1.00  0.00     0.044 C 
HETATM   19  C3  UNL     1      22.224   3.786  50.098  1.00  0.00     0.039 C 
HETATM   20  C4  UNL     1      23.006   2.605  49.537  1.00  0.00     0.120 C 
HETATM   21  C5  UNL     1      22.367   1.354  50.105  1.00  0.00     0.057 C 
BRANCH  20  22
HETATM   22  O1  UNL     1      22.820   2.610  48.146  1.00  0.00    -0.395 OA
HETATM   23  H6  UNL     1      21.870   2.816  47.988  1.00  0.00     0.210 HD
ENDBRANCH  20  22
ENDBRANCH   1  16
BRANCH  12  24
HETATM   24  C13 UNL     1      24.774   0.757  52.810  1.00  0.00     0.158 A 
HETATM   25  C14 UNL     1      24.902   2.111  53.431  1.00  0.00     0.006 A 
HETATM   26  C15 UNL     1      26.186   2.320  53.632  1.00  0.00     0.022 A 
HETATM   27  C16 UNL     1      26.974   1.190  53.186  1.00  0.00     0.032 A 
HETATM   28 CL1  UNL     1      28.700   0.913  53.202  1.00  0.00    -0.085 Cl
HETATM   29  C17 UNL     1      26.165   0.255  52.697  1.00  0.00     0.028 A 
ENDBRANCH  12  24
TORSDOF 3
ENDMDL
MODEL 5
REMARK VINA RESULT:      -8.1      2.719      5.027
REMARK  3 active torsions:
REMARK  status: ('A' for Active; 'I' for Inactive)
REMARK    1  A    between atoms: C4_4  and  O1_5 
REMARK    2  A    between atoms: C6_7  and  N1_8 
REMARK    3  A    between atoms: N4_19  and  C13_20 
ROOT
HETATM    1  N1  UNL     1      24.485   4.161  50.037  1.00  0.00    -0.307 N 
HETATM    2  C7  UNL     1      25.559   4.811  49.364  1.00  0.00     0.249 C 
HETATM    3  O2  UNL     1      25.465   5.965  48.870  1.00  0.00    -0.271 OA
HETATM    4  C8  UNL     1      26.875   4.137  49.210  1.00  0.00     0.279 C 
HETATM    5  O3  UNL     1      27.143   3.299  50.319  1.00  0.00    -0.340 OA
HETATM    6  C9  UNL     1      26.136   2.650  50.982  1.00  0.00     0.099 A 
HETATM    7  C10 UNL     1      26.495   1.609  51.749  1.00  0.00     0.073 A 
HETATM    8  C11 UNL     1      25.383   0.950  52.436  1.00  0.00     0.090 A 
HETATM    9  N2  UNL     1      25.583  -0.068  53.208  1.00  0.00    -0.238 NA
HETATM   10  C12 UNL     1      24.458  -0.684  53.863  1.00  0.00     0.255 A 
HETATM   11  N3  UNL     1      23.213  -0.313  53.756  1.00  0.00    -0.164 NA
HETATM   12  N4  UNL     1      22.899   0.795  52.930  1.00  0.00    -0.254 N 
HETATM   13  C18 UNL     1      24.013   1.427  52.264  1.00  0.00     0.096 A 
HETATM   14  C19 UNL     1      23.752   2.434  51.510  1.00  0.00     0.040 A 
HETATM   15  C20 UNL     1      24.725   3.041  50.884  1.00  0.00     0.085 A 
ENDROOT
BRANCH   1  16
HETATM   16  C6  UNL     1      23.148   4.647  49.854  1.00  0.00     0.100 C 
HETATM   17  C2  UNL     1      22.363   3.729  48.944  1.00  0.00    -0.027 C 
HETATM   18  C1  UNL     1      22.719   2.727  48.113  1.00  0.00     0.044 C 
HETATM   19  C3  UNL     1      20.932   4.125  49.099  1.00  0.00     0.039 C 
HETATM   20  C4  UNL     1      20.891   4.748  50.488  1.00  0.00     0.120 C 
HETATM   21  C5  UNL     1      22.282   4.603  51.070  1.00  0.00     0.057 C 
BRANCH  20  22
HETATM   22  O1  UNL     1      20.616   6.114  50.321  1.00  0.00    -0.395 OA
HETATM   23  H6  UNL     1      19.687   6.179  49.998  1.00  0.00     0.210 HD
ENDBRANCH  20  22
ENDBRANCH   1  16
BRANCH  12  24
HETATM   24  C13 UNL     1      21.568   1.288  52.740  1.00  0.00     0.158 A 
HETATM   25  C14 UNL     1      21.150   1.028  51.329  1.00  0.00     0.006 A 
HETATM   26  C15 UNL     1      20.104   0.230  51.379  1.00  0.00     0.022 A 
HETATM   27  C16 UNL     1      19.758  -0.088  52.749  1.00  0.00     0.032 A 
HETATM   28 CL1  UNL     1      18.483  -1.083  53.412  1.00  0.00    -0.085 Cl
HETATM   29  C17 UNL     1      20.606   0.523  53.571  1.00  0.00     0.028 A 
ENDBRANCH  12  24
TORSDOF 3
ENDMDL
MODEL 6
REMARK VINA RESULT:      -8.0      2.553      4.824
REMARK  3 active torsions:
REMARK  status: ('A' for Active; 'I' for Inactive)
REMARK    1  A    between atoms: C4_4  and  O1_5 
REMARK    2  A    between atoms: C6_7  and  N1_8 
REMARK    3  A    between atoms: N4_19  and  C13_20 
ROOT
HETATM    1  N1  UNL     1      24.369   2.754  50.150  1.00  0.00    -0.307 N 
HETATM    2  C7  UNL     1      24.991   3.773  49.376  1.00  0.00     0.249 C 
HETATM    3  O2  UNL     1      24.350   4.565  48.635  1.00  0.00    -0.271 OA
HETATM    4  C8  UNL     1      26.467   3.955  49.408  1.00  0.00     0.279 C 
HETATM    5  O3  UNL     1      26.987   3.621  50.681  1.00  0.00    -0.340 OA
HETATM    6  C9  UNL     1      26.420   2.638  51.448  1.00  0.00     0.099 A 
HETATM    7  C10 UNL     1      27.176   2.135  52.435  1.00  0.00     0.073 A 
HETATM    8  C11 UNL     1      26.525   1.088  53.224  1.00  0.00     0.090 A 
HETATM    9  N2  UNL     1      27.138   0.514  54.208  1.00  0.00    -0.238 NA
HETATM   10  C12 UNL     1      26.456  -0.511  54.956  1.00  0.00     0.255 A 
HETATM   11  N3  UNL     1      25.245  -0.939  54.740  1.00  0.00    -0.164 NA
HETATM   12  N4  UNL     1      24.497  -0.367  53.680  1.00  0.00    -0.254 N 
HETATM   13  C18 UNL     1      25.162   0.663  52.918  1.00  0.00     0.096 A 
HETATM   14  C19 UNL     1      24.503   1.196  51.952  1.00  0.00     0.040 A 
HETATM   15  C20 UNL     1      25.059   2.133  51.231  1.00  0.00     0.085 A 
ENDROOT
BRANCH   1  16
HETATM   16  C6  UNL     1      23.029   2.352  49.832  1.00  0.00     0.100 C 
HETATM   17  C2  UNL     1      22.025   3.327  50.409  1.00  0.00    -0.027 C 
HETATM   18  C1  UNL     1      22.118   4.315  51.324  1.00  0.00     0.044 C 
HETATM   19  C3  UNL     1      20.727   3.017  49.742  1.00  0.00     0.039 C 
HETATM   20  C4  UNL     1      21.151   2.383  48.425  1.00  0.00     0.120 C 
HETATM   21  C5  UNL     1      22.665   2.436  48.386  1.00  0.00     0.057 C 
BRANCH  20  22
HETATM   22  O1  UNL     1      20.752   1.039  48.466  1.00  0.00    -0.395 OA
HETATM   23  H6  UNL     1      21.020   0.690  49.348  1.00  0.00     0.210 HD
ENDBRANCH  20  22
ENDBRANCH   1  16
BRANCH  12  24
HETATM   24  C13 UNL     1      23.160  -0.761  53.354  1.00  0.00     0.158 A 
HETATM   25  C14 UNL     1      22.445  -1.139  54.611  1.00  0.00     0.006 A 
HETATM   26  C15 UNL     1      21.430  -0.311  54.739  1.00  0.00     0.022 A 
HETATM   27  C16 UNL     1      21.386   0.631  53.640  1.00  0.00     0.032 A 
HETATM   28 CL1  UNL     1      20.278   1.937  53.288  1.00  0.00    -0.085 Cl
HETATM   29  C17 UNL     1      22.396   0.387  52.810  1.00  0.00     0.028 A 
ENDBRANCH  12  24
TORSDOF 3
ENDMDL
MODEL 7
REMARK VINA RESULT:      -7.9      1.793      2.422
REMARK  3 active torsions:
REMARK  status: ('A' for Active; 'I' for Inactive)
REMARK    1  A    between atoms: C4_4  and  O1_5 
REMARK    2  A    between atoms: C6_7  and  N1_8 
REMARK    3  A    between atoms: N4_19  and  C13_20 
ROOT
HETATM    1  N1  UNL     1      22.800   3.553  49.099  1.00  0.00    -0.307 N 
HETATM    2  C7  UNL     1      21.780   4.000  48.213  1.00  0.00     0.249 C 
HETATM    3  O2  UNL     1      22.014   4.683  47.181  1.00  0.00    -0.271 OA
HETATM    4  C8  UNL     1      20.353   3.672  48.472  1.00  0.00     0.279 C 
HETATM    5  O3  UNL     1      20.235   2.410  49.103  1.00  0.00    -0.340 OA
HETATM    6  C9  UNL     1      21.192   1.955  49.970  1.00  0.00     0.099 A 
HETATM    7  C10 UNL     1      20.830   0.959  50.794  1.00  0.00     0.073 A 
HETATM    8  C11 UNL     1      21.887   0.507  51.700  1.00  0.00     0.090 A 
HETATM    9  N2  UNL     1      21.678  -0.446  52.549  1.00  0.00    -0.238 NA
HETATM   10  C12 UNL     1      22.749  -0.856  53.420  1.00  0.00     0.255 A 
HETATM   11  N3  UNL     1      23.950  -0.351  53.448  1.00  0.00    -0.164 NA
HETATM   12  N4  UNL     1      24.269   0.700  52.551  1.00  0.00    -0.254 N 
HETATM   13  C18 UNL     1      23.210   1.126  51.669  1.00  0.00     0.096 A 
HETATM   14  C19 UNL     1      23.477   2.078  50.848  1.00  0.00     0.040 A 
HETATM   15  C20 UNL     1      22.552   2.501  50.027  1.00  0.00     0.085 A 
ENDROOT
BRANCH   1  16
HETATM   16  C6  UNL     1      24.092   4.175  49.051  1.00  0.00     0.100 C 
HETATM   17  C2  UNL     1      24.145   5.376  49.970  1.00  0.00    -0.027 C 
HETATM   18  C1  UNL     1      23.196   6.091  50.609  1.00  0.00     0.044 C 
HETATM   19  C3  UNL     1      25.590   5.724  50.103  1.00  0.00     0.039 C 
HETATM   20  C4  UNL     1      26.296   4.404  49.825  1.00  0.00     0.120 C 
HETATM   21  C5  UNL     1      25.210   3.366  49.622  1.00  0.00     0.057 C 
BRANCH  20  22
HETATM   22  O1  UNL     1      26.998   4.557  48.621  1.00  0.00    -0.395 OA
HETATM   23  H6  UNL     1      27.679   3.845  48.597  1.00  0.00     0.210 HD
ENDBRANCH  20  22
ENDBRANCH   1  16
BRANCH  12  24
HETATM   24  C13 UNL     1      25.555   1.328  52.496  1.00  0.00     0.158 A 
HETATM   25  C14 UNL     1      25.903   1.844  53.855  1.00  0.00     0.006 A 
HETATM   26  C15 UNL     1      26.995   1.216  54.236  1.00  0.00     0.022 A 
HETATM   27  C16 UNL     1      27.441   0.285  53.220  1.00  0.00     0.032 A 
HETATM   28 CL1  UNL     1      28.810  -0.801  53.176  1.00  0.00    -0.085 Cl
HETATM   29  C17 UNL     1      26.608   0.332  52.184  1.00  0.00     0.028 A 
ENDBRANCH  12  24
TORSDOF 3
ENDMDL
MODEL 8
REMARK VINA RESULT:      -7.6      2.816      4.015
REMARK  3 active torsions:
REMARK  status: ('A' for Active; 'I' for Inactive)
REMARK    1  A    between atoms: C4_4  and  O1_5 
REMARK    2  A    between atoms: C6_7  and  N1_8 
REMARK    3  A    between atoms: N4_19  and  C13_20 
ROOT
HETATM    1  N1  UNL     1      18.453   0.524  50.801  1.00  0.00    -0.307 N 
HETATM    2  C7  UNL     1      17.082   0.162  50.679  1.00  0.00     0.249 C 
HETATM    3  O2  UNL     1      16.416   0.327  49.623  1.00  0.00    -0.271 OA
HETATM    4  C8  UNL     1      16.353  -0.443  51.826  1.00  0.00     0.279 C 
HETATM    5  O3  UNL     1      17.224  -1.235  52.612  1.00  0.00    -0.340 OA
HETATM    6  C9  UNL     1      18.546  -0.909  52.760  1.00  0.00     0.099 A 
HETATM    7  C10 UNL     1      19.190  -1.469  53.794  1.00  0.00     0.073 A 
HETATM    8  C11 UNL     1      20.599  -1.090  53.908  1.00  0.00     0.090 A 
HETATM    9  N2  UNL     1      21.342  -1.555  54.860  1.00  0.00    -0.238 NA
HETATM   10  C12 UNL     1      22.723  -1.154  54.931  1.00  0.00     0.255 A 
HETATM   11  N3  UNL     1      23.328  -0.341  54.111  1.00  0.00    -0.164 NA
HETATM   12  N4  UNL     1      22.590   0.218  53.037  1.00  0.00    -0.254 N 
HETATM   13  C18 UNL     1      21.204  -0.172  52.947  1.00  0.00     0.096 A 
HETATM   14  C19 UNL     1      20.516   0.323  51.981  1.00  0.00     0.040 A 
HETATM   15  C20 UNL     1      19.256   0.002  51.855  1.00  0.00     0.085 A 
ENDROOT
BRANCH   1  16
HETATM   16  C6  UNL     1      19.026   1.427  49.845  1.00  0.00     0.100 C 
HETATM   17  C2  UNL     1      19.150   2.818  50.428  1.00  0.00    -0.027 C 
HETATM   18  C1  UNL     1      18.632   3.409  51.524  1.00  0.00     0.044 C 
HETATM   19  C3  UNL     1      20.050   3.569  49.504  1.00  0.00     0.039 C 
HETATM   20  C4  UNL     1      20.880   2.470  48.853  1.00  0.00     0.120 C 
HETATM   21  C5  UNL     1      20.455   1.167  49.499  1.00  0.00     0.057 C 
BRANCH  20  22
HETATM   22  O1  UNL     1      20.526   2.433  47.497  1.00  0.00    -0.395 OA
HETATM   23  H6  UNL     1      19.592   2.123  47.455  1.00  0.00     0.210 HD
ENDBRANCH  20  22
ENDBRANCH   1  16
BRANCH  12  24
HETATM   24  C13 UNL     1      23.153   1.121  52.078  1.00  0.00     0.158 A 
HETATM   25  C14 UNL     1      22.996   2.521  52.578  1.00  0.00     0.006 A 
HETATM   26  C15 UNL     1      24.207   3.015  52.722  1.00  0.00     0.022 A 
HETATM   27  C16 UNL     1      25.214   2.042  52.349  1.00  0.00     0.032 A 
HETATM   28 CL1  UNL     1      26.959   2.139  52.337  1.00  0.00    -0.085 Cl
HETATM   29  C17 UNL     1      24.617   0.917  51.966  1.00  0.00     0.028 A 
ENDBRANCH  12  24
TORSDOF 3
ENDMDL
MODEL 9
REMARK VINA RESULT:      -7.3     12.099     15.386
REMARK  3 active torsions:
REMARK  status: ('A' for Active; 'I' for Inactive)
REMARK    1  A    between atoms: C4_4  and  O1_5 
REMARK    2  A    between atoms: C6_7  and  N1_8 
REMARK    3  A    between atoms: N4_19  and  C13_20 
ROOT
HETATM    1  N1  UNL     1      33.466   5.682  45.216  1.00  0.00    -0.307 N 
HETATM    2  C7  UNL     1      33.598   6.611  46.286  1.00  0.00     0.249 C 
HETATM    3  O2  UNL     1      33.625   6.267  47.498  1.00  0.00    -0.271 OA
HETATM    4  C8  UNL     1      33.712   8.069  46.016  1.00  0.00     0.279 C 
HETATM    5  O3  UNL     1      34.389   8.301  44.794  1.00  0.00    -0.340 OA
HETATM    6  C9  UNL     1      34.275   7.434  43.740  1.00  0.00     0.099 A 
HETATM    7  C10 UNL     1      34.622   7.907  42.534  1.00  0.00     0.073 A 
HETATM    8  C11 UNL     1      34.483   6.943  41.441  1.00  0.00     0.090 A 
HETATM    9  N2  UNL     1      34.782   7.264  40.225  1.00  0.00    -0.238 NA
HETATM   10  C12 UNL     1      34.630   6.281  39.183  1.00  0.00     0.255 A 
HETATM   11  N3  UNL     1      34.205   5.059  39.339  1.00  0.00    -0.164 NA
HETATM   12  N4  UNL     1      33.853   4.619  40.640  1.00  0.00    -0.254 N 
HETATM   13  C18 UNL     1      34.000   5.590  41.699  1.00  0.00     0.096 A 
HETATM   14  C19 UNL     1      33.687   5.213  42.887  1.00  0.00     0.040 A 
HETATM   15  C20 UNL     1      33.801   6.053  43.882  1.00  0.00     0.085 A 
ENDROOT
BRANCH   1  16
HETATM   16  C6  UNL     1      32.990   4.357  45.493  1.00  0.00     0.100 C 
HETATM   17  C2  UNL     1      34.102   3.491  46.042  1.00  0.00    -0.027 C 
HETATM   18  C1  UNL     1      35.443   3.632  46.093  1.00  0.00     0.044 C 
HETATM   19  C3  UNL     1      33.436   2.280  46.605  1.00  0.00     0.039 C 
HETATM   20  C4  UNL     1      32.034   2.774  46.937  1.00  0.00     0.120 C 
HETATM   21  C5  UNL     1      32.008   4.255  46.613  1.00  0.00     0.057 C 
BRANCH  20  22
HETATM   22  O1  UNL     1      31.148   2.112  46.076  1.00  0.00    -0.395 OA
HETATM   23  H6  UNL     1      31.248   2.531  45.189  1.00  0.00     0.210 HD
ENDBRANCH  20  22
ENDBRANCH   1  16
BRANCH  12  24
HETATM   24  C13 UNL     1      33.376   3.300  40.927  1.00  0.00     0.158 A 
HETATM   25  C14 UNL     1      32.034   3.120  40.293  1.00  0.00     0.006 A 
HETATM   26  C15 UNL     1      32.149   2.140  39.423  1.00  0.00     0.022 A 
HETATM   27  C16 UNL     1      33.499   1.614  39.406  1.00  0.00     0.032 A 
HETATM   28 CL1  UNL     1      34.222   0.330  38.467  1.00  0.00    -0.085 Cl
HETATM   29  C17 UNL     1      34.242   2.282  40.284  1.00  0.00     0.028 A 
ENDBRANCH  12  24
TORSDOF 3
ENDMDL
