MODEL 1
REMARK VINA RESULT:      -8.3      0.000      0.000
REMARK  7 active torsions:
REMARK  status: ('A' for Active; 'I' for Inactive)
REMARK    1  A    between atoms: C7_7  and  N1_8 
REMARK    2  A    between atoms: N1_8  and  C8_9 
REMARK    3  A    between atoms: C12_15  and  O1_16 
REMARK    4  A    between atoms: C13_17  and  O2_18 
REMARK    5  A    between atoms: O2_18  and  C14_19 
REMARK    6  A    between atoms: C14_19  and  C15_20 
REMARK    7  A    between atoms: C15_20  and  O3_21 
ROOT
HETATM    1  C1  UNL     1      28.151   6.798  47.931  1.00  0.00     0.018 C 
HETATM    2  C2  UNL     1      27.346   6.040  48.422  1.00  0.00    -0.078 C 
HETATM    3  C3  UNL     1      26.390   5.150  49.022  1.00  0.00     0.019 A 
HETATM    4  C4  UNL     1      25.021   5.441  49.025  1.00  0.00     0.021 A 
HETATM    5  C5  UNL     1      24.108   4.562  49.614  1.00  0.00     0.004 A 
HETATM    6  C6  UNL     1      24.557   3.378  50.208  1.00  0.00     0.029 A 
HETATM    7  C7  UNL     1      25.919   3.162  50.166  1.00  0.00     0.035 A 
HETATM    8  C19 UNL     1      26.882   3.977  49.605  1.00  0.00     0.050 A 
ENDROOT
BRANCH   7   9
HETATM    9  N1  UNL     1      26.398   1.965  50.763  1.00  0.00    -0.340 N 
HETATM   10  H5  UNL     1      26.409   1.027  50.306  1.00  0.00     0.167 HD
BRANCH   9  11
HETATM   11  C8  UNL     1      26.938   1.781  52.045  1.00  0.00     0.142 A 
HETATM   12  N2  UNL     1      28.082   2.421  52.379  1.00  0.00    -0.224 NA
HETATM   13  C9  UNL     1      28.631   2.263  53.616  1.00  0.00     0.236 A 
HETATM   14  N3  UNL     1      28.110   1.482  54.597  1.00  0.00    -0.241 NA
HETATM   15  C10 UNL     1      26.965   0.832  54.285  1.00  0.00     0.075 A 
HETATM   16  C11 UNL     1      26.335   0.007  55.195  1.00  0.00     0.072 A 
HETATM   17  C18 UNL     1      26.377   0.972  53.029  1.00  0.00     0.042 A 
HETATM   18  C12 UNL     1      25.160  -0.647  54.849  1.00  0.00     0.101 A 
HETATM   19  C13 UNL     1      24.582  -0.503  53.597  1.00  0.00     0.102 A 
HETATM   20  C17 UNL     1      25.216   0.323  52.692  1.00  0.00     0.057 A 
BRANCH  18  21
HETATM   21  O1  UNL     1      24.616  -1.457  55.862  1.00  0.00    -0.358 OA
HETATM   22  H8  UNL     1      24.169  -1.010  56.642  1.00  0.00     0.217 HD
ENDBRANCH  18  21
BRANCH  19  23
HETATM   23  O2  UNL     1      23.426  -1.217  53.419  1.00  0.00    -0.346 OA
BRANCH  23  24
HETATM   24  C14 UNL     1      22.300  -0.545  52.883  1.00  0.00     0.201 C 
BRANCH  24  25
HETATM   25  C15 UNL     1      21.852   0.593  53.768  1.00  0.00     0.193 C 
BRANCH  25  26
HETATM   26  O3  UNL     1      20.504   0.462  54.008  1.00  0.00    -0.394 OA
HETATM   27  C16 UNL     1      19.976  -0.657  53.366  1.00  0.00     0.201 C 
ENDBRANCH  25  26
ENDBRANCH  24  25
ENDBRANCH  23  24
ENDBRANCH  19  23
ENDBRANCH   9  11
ENDBRANCH   7   9
TORSDOF 7
ENDMDL
MODEL 2
REMARK VINA RESULT:      -8.3      2.523      4.761
REMARK  7 active torsions:
REMARK  status: ('A' for Active; 'I' for Inactive)
REMARK    1  A    between atoms: C7_7  and  N1_8 
REMARK    2  A    between atoms: N1_8  and  C8_9 
REMARK    3  A    between atoms: C12_15  and  O1_16 
REMARK    4  A    between atoms: C13_17  and  O2_18 
REMARK    5  A    between atoms: O2_18  and  C14_19 
REMARK    6  A    between atoms: C14_19  and  C15_20 
REMARK    7  A    between atoms: C15_20  and  O3_21 
ROOT
HETATM    1  C1  UNL     1      27.437   4.972  48.682  1.00  0.00     0.018 C 
HETATM    2  C2  UNL     1      26.422   4.724  49.290  1.00  0.00    -0.078 C 
HETATM    3  C3  UNL     1      25.225   4.428  50.030  1.00  0.00     0.019 A 
HETATM    4  C4  UNL     1      24.542   5.420  50.743  1.00  0.00     0.021 A 
HETATM    5  C5  UNL     1      23.380   5.111  51.456  1.00  0.00     0.004 A 
HETATM    6  C6  UNL     1      22.888   3.802  51.463  1.00  0.00     0.029 A 
HETATM    7  C7  UNL     1      23.616   2.881  50.738  1.00  0.00     0.035 A 
HETATM    8  C19 UNL     1      24.767   3.106  50.010  1.00  0.00     0.050 A 
ENDROOT
BRANCH   7   9
HETATM    9  N1  UNL     1      23.135   1.545  50.730  1.00  0.00    -0.340 N 
HETATM   10  H5  UNL     1      23.438   0.799  50.066  1.00  0.00     0.167 HD
BRANCH   9  11
HETATM   11  C8  UNL     1      22.185   0.951  51.575  1.00  0.00     0.142 A 
HETATM   12  N2  UNL     1      20.871   1.055  51.271  1.00  0.00    -0.224 NA
HETATM   13  C9  UNL     1      19.925   0.489  52.071  1.00  0.00     0.236 A 
HETATM   14  N3  UNL     1      20.192  -0.207  53.207  1.00  0.00    -0.241 NA
HETATM   15  C10 UNL     1      21.500  -0.324  53.530  1.00  0.00     0.075 A 
HETATM   16  C11 UNL     1      21.903  -1.008  54.661  1.00  0.00     0.072 A 
HETATM   17  C18 UNL     1      22.492   0.243  52.734  1.00  0.00     0.042 A 
HETATM   18  C12 UNL     1      23.253  -1.113  54.969  1.00  0.00     0.101 A 
HETATM   19  C13 UNL     1      24.234  -0.545  54.171  1.00  0.00     0.102 A 
HETATM   20  C17 UNL     1      23.825   0.136  53.043  1.00  0.00     0.057 A 
BRANCH  18  21
HETATM   21  O1  UNL     1      23.534  -1.833  56.144  1.00  0.00    -0.358 OA
HETATM   22  H8  UNL     1      22.834  -2.458  56.500  1.00  0.00     0.217 HD
ENDBRANCH  18  21
BRANCH  19  23
HETATM   23  O2  UNL     1      25.515  -0.742  54.618  1.00  0.00    -0.346 OA
BRANCH  23  24
HETATM   24  C14 UNL     1      26.445   0.317  54.471  1.00  0.00     0.201 C 
BRANCH  24  25
HETATM   25  C15 UNL     1      27.851  -0.122  54.799  1.00  0.00     0.193 C 
BRANCH  25  26
HETATM   26  O3  UNL     1      28.236  -1.084  53.894  1.00  0.00    -0.394 OA
HETATM   27  C16 UNL     1      29.575  -0.941  53.534  1.00  0.00     0.201 C 
ENDBRANCH  25  26
ENDBRANCH  24  25
ENDBRANCH  23  24
ENDBRANCH  19  23
ENDBRANCH   9  11
ENDBRANCH   7   9
TORSDOF 7
ENDMDL
MODEL 3
REMARK VINA RESULT:      -8.1      0.924      1.923
REMARK  7 active torsions:
REMARK  status: ('A' for Active; 'I' for Inactive)
REMARK    1  A    between atoms: C7_7  and  N1_8 
REMARK    2  A    between atoms: N1_8  and  C8_9 
REMARK    3  A    between atoms: C12_15  and  O1_16 
REMARK    4  A    between atoms: C13_17  and  O2_18 
REMARK    5  A    between atoms: O2_18  and  C14_19 
REMARK    6  A    between atoms: C14_19  and  C15_20 
REMARK    7  A    between atoms: C15_20  and  O3_21 
ROOT
HETATM    1  C1  UNL     1      22.451   6.734  50.759  1.00  0.00     0.018 C 
HETATM    2  C2  UNL     1      23.461   6.143  50.455  1.00  0.00    -0.078 C 
HETATM    3  C3  UNL     1      24.653   5.434  50.077  1.00  0.00     0.019 A 
HETATM    4  C4  UNL     1      25.567   5.973  49.164  1.00  0.00     0.021 A 
HETATM    5  C5  UNL     1      26.721   5.266  48.809  1.00  0.00     0.004 A 
HETATM    6  C6  UNL     1      26.972   4.009  49.367  1.00  0.00     0.029 A 
HETATM    7  C7  UNL     1      26.025   3.545  50.257  1.00  0.00     0.035 A 
HETATM    8  C19 UNL     1      24.867   4.179  50.658  1.00  0.00     0.050 A 
ENDROOT
BRANCH   7   9
HETATM    9  N1  UNL     1      26.261   2.269  50.837  1.00  0.00    -0.340 N 
HETATM   10  H5  UNL     1      26.005   1.355  50.403  1.00  0.00     0.167 HD
BRANCH   9  11
HETATM   11  C8  UNL     1      26.862   1.963  52.067  1.00  0.00     0.142 A 
HETATM   12  N2  UNL     1      28.041   2.542  52.390  1.00  0.00    -0.224 NA
HETATM   13  C9  UNL     1      28.649   2.266  53.577  1.00  0.00     0.236 A 
HETATM   14  N3  UNL     1      28.156   1.418  54.517  1.00  0.00    -0.241 NA
HETATM   15  C10 UNL     1      26.978   0.827  54.215  1.00  0.00     0.075 A 
HETATM   16  C11 UNL     1      26.372  -0.056  55.087  1.00  0.00     0.072 A 
HETATM   17  C18 UNL     1      26.329   1.088  53.009  1.00  0.00     0.042 A 
HETATM   18  C12 UNL     1      25.160  -0.648  54.752  1.00  0.00     0.101 A 
HETATM   19  C13 UNL     1      24.522  -0.384  53.550  1.00  0.00     0.102 A 
HETATM   20  C17 UNL     1      25.133   0.500  52.683  1.00  0.00     0.057 A 
BRANCH  18  21
HETATM   21  O1  UNL     1      24.647  -1.527  55.722  1.00  0.00    -0.358 OA
HETATM   22  H8  UNL     1      23.738  -1.337  56.104  1.00  0.00     0.217 HD
ENDBRANCH  18  21
BRANCH  19  23
HETATM   23  O2  UNL     1      23.337  -1.050  53.376  1.00  0.00    -0.346 OA
BRANCH  23  24
HETATM   24  C14 UNL     1      22.132  -0.316  53.504  1.00  0.00     0.201 C 
BRANCH  24  25
HETATM   25  C15 UNL     1      21.035  -1.143  54.128  1.00  0.00     0.193 C 
BRANCH  25  26
HETATM   26  O3  UNL     1      19.819  -0.644  53.721  1.00  0.00    -0.394 OA
HETATM   27  C16 UNL     1      19.940   0.111  52.555  1.00  0.00     0.201 C 
ENDBRANCH  25  26
ENDBRANCH  24  25
ENDBRANCH  23  24
ENDBRANCH  19  23
ENDBRANCH   9  11
ENDBRANCH   7   9
TORSDOF 7
ENDMDL
MODEL 4
REMARK VINA RESULT:      -7.6      2.787      4.897
REMARK  7 active torsions:
REMARK  status: ('A' for Active; 'I' for Inactive)
REMARK    1  A    between atoms: C7_7  and  N1_8 
REMARK    2  A    between atoms: N1_8  and  C8_9 
REMARK    3  A    between atoms: C12_15  and  O1_16 
REMARK    4  A    between atoms: C13_17  and  O2_18 
REMARK    5  A    between atoms: O2_18  and  C14_19 
REMARK    6  A    between atoms: C14_19  and  C15_20 
REMARK    7  A    between atoms: C15_20  and  O3_21 
ROOT
HETATM    1  C1  UNL     1      22.325   9.232  48.852  1.00  0.00     0.018 C 
HETATM    2  C2  UNL     1      22.984   8.261  49.144  1.00  0.00    -0.078 C 
HETATM    3  C3  UNL     1      23.755   7.095  49.478  1.00  0.00     0.019 A 
HETATM    4  C4  UNL     1      24.808   6.657  48.666  1.00  0.00     0.021 A 
HETATM    5  C5  UNL     1      25.546   5.520  49.010  1.00  0.00     0.004 A 
HETATM    6  C6  UNL     1      25.237   4.808  50.173  1.00  0.00     0.029 A 
HETATM    7  C7  UNL     1      24.187   5.301  50.920  1.00  0.00     0.035 A 
HETATM    8  C19 UNL     1      23.414   6.412  50.651  1.00  0.00     0.050 A 
ENDROOT
BRANCH   7   9
HETATM    9  N1  UNL     1      23.856   4.594  52.107  1.00  0.00    -0.340 N 
HETATM   10  H5  UNL     1      23.986   4.954  53.078  1.00  0.00     0.167 HD
BRANCH   9  11
HETATM   11  C8  UNL     1      23.305   3.310  52.237  1.00  0.00     0.142 A 
HETATM   12  N2  UNL     1      22.056   3.075  51.774  1.00  0.00    -0.224 NA
HETATM   13  C9  UNL     1      21.495   1.840  51.885  1.00  0.00     0.236 A 
HETATM   14  N3  UNL     1      22.104   0.763  52.446  1.00  0.00    -0.241 NA
HETATM   15  C10 UNL     1      23.355   0.975  52.916  1.00  0.00     0.075 A 
HETATM   16  C11 UNL     1      24.081  -0.039  53.509  1.00  0.00     0.072 A 
HETATM   17  C18 UNL     1      23.958   2.227  52.818  1.00  0.00     0.042 A 
HETATM   18  C12 UNL     1      25.364   0.205  53.982  1.00  0.00     0.101 A 
HETATM   19  C13 UNL     1      25.957   1.455  53.881  1.00  0.00     0.102 A 
HETATM   20  C17 UNL     1      25.227   2.463  53.287  1.00  0.00     0.057 A 
BRANCH  18  21
HETATM   21  O1  UNL     1      25.999  -0.906  54.564  1.00  0.00    -0.358 OA
HETATM   22  H8  UNL     1      26.968  -0.825  54.814  1.00  0.00     0.217 HD
ENDBRANCH  18  21
BRANCH  19  23
HETATM   23  O2  UNL     1      27.225   1.525  54.397  1.00  0.00    -0.346 OA
BRANCH  23  24
HETATM   24  C14 UNL     1      28.318   1.356  53.511  1.00  0.00     0.201 C 
BRANCH  24  25
HETATM   25  C15 UNL     1      29.383   0.463  54.099  1.00  0.00     0.193 C 
BRANCH  25  26
HETATM   26  O3  UNL     1      28.852  -0.792  54.290  1.00  0.00    -0.394 OA
HETATM   27  C16 UNL     1      29.285  -1.685  53.312  1.00  0.00     0.201 C 
ENDBRANCH  25  26
ENDBRANCH  24  25
ENDBRANCH  23  24
ENDBRANCH  19  23
ENDBRANCH   9  11
ENDBRANCH   7   9
TORSDOF 7
ENDMDL
MODEL 5
REMARK VINA RESULT:      -7.3      2.898      4.783
REMARK  7 active torsions:
REMARK  status: ('A' for Active; 'I' for Inactive)
REMARK    1  A    between atoms: C7_7  and  N1_8 
REMARK    2  A    between atoms: N1_8  and  C8_9 
REMARK    3  A    between atoms: C12_15  and  O1_16 
REMARK    4  A    between atoms: C13_17  and  O2_18 
REMARK    5  A    between atoms: O2_18  and  C14_19 
REMARK    6  A    between atoms: C14_19  and  C15_20 
REMARK    7  A    between atoms: C15_20  and  O3_21 
ROOT
HETATM    1  C1  UNL     1      22.910   7.719  49.765  1.00  0.00     0.018 C 
HETATM    2  C2  UNL     1      22.913   6.526  49.564  1.00  0.00    -0.078 C 
HETATM    3  C3  UNL     1      22.897   5.108  49.329  1.00  0.00     0.019 A 
HETATM    4  C4  UNL     1      22.515   4.575  48.092  1.00  0.00     0.021 A 
HETATM    5  C5  UNL     1      22.506   3.193  47.884  1.00  0.00     0.004 A 
HETATM    6  C6  UNL     1      22.881   2.326  48.915  1.00  0.00     0.029 A 
HETATM    7  C7  UNL     1      23.244   2.926  50.104  1.00  0.00     0.035 A 
HETATM    8  C19 UNL     1      23.280   4.276  50.387  1.00  0.00     0.050 A 
ENDROOT
BRANCH   7   9
HETATM    9  N1  UNL     1      23.630   2.064  51.166  1.00  0.00    -0.340 N 
HETATM   10  H5  UNL     1      24.612   1.793  51.395  1.00  0.00     0.167 HD
BRANCH   9  11
HETATM   11  C8  UNL     1      22.816   1.411  52.103  1.00  0.00     0.142 A 
HETATM   12  N2  UNL     1      21.478   1.606  52.070  1.00  0.00    -0.224 NA
HETATM   13  C9  UNL     1      20.662   0.986  52.966  1.00  0.00     0.236 A 
HETATM   14  N3  UNL     1      21.088   0.145  53.944  1.00  0.00    -0.241 NA
HETATM   15  C10 UNL     1      22.423  -0.065  53.996  1.00  0.00     0.075 A 
HETATM   16  C11 UNL     1      22.983  -0.900  54.944  1.00  0.00     0.072 A 
HETATM   17  C18 UNL     1      23.286   0.553  53.094  1.00  0.00     0.042 A 
HETATM   18  C12 UNL     1      24.357  -1.099  54.976  1.00  0.00     0.101 A 
HETATM   19  C13 UNL     1      25.209  -0.479  54.075  1.00  0.00     0.102 A 
HETATM   20  C17 UNL     1      24.643   0.353  53.130  1.00  0.00     0.057 A 
BRANCH  18  21
HETATM   21  O1  UNL     1      24.803  -1.969  55.986  1.00  0.00    -0.358 OA
HETATM   22  H8  UNL     1      25.792  -2.095  56.105  1.00  0.00     0.217 HD
ENDBRANCH  18  21
BRANCH  19  23
HETATM   23  O2  UNL     1      26.534  -0.783  54.244  1.00  0.00    -0.346 OA
BRANCH  23  24
HETATM   24  C14 UNL     1      27.495   0.024  53.585  1.00  0.00     0.201 C 
BRANCH  24  25
HETATM   25  C15 UNL     1      28.649   0.374  54.491  1.00  0.00     0.193 C 
BRANCH  25  26
HETATM   26  O3  UNL     1      28.732   1.744  54.594  1.00  0.00    -0.394 OA
HETATM   27  C16 UNL     1      28.268   2.372  53.440  1.00  0.00     0.201 C 
ENDBRANCH  25  26
ENDBRANCH  24  25
ENDBRANCH  23  24
ENDBRANCH  19  23
ENDBRANCH   9  11
ENDBRANCH   7   9
TORSDOF 7
ENDMDL
MODEL 6
REMARK VINA RESULT:      -7.2      1.915      2.310
REMARK  7 active torsions:
REMARK  status: ('A' for Active; 'I' for Inactive)
REMARK    1  A    between atoms: C7_7  and  N1_8 
REMARK    2  A    between atoms: N1_8  and  C8_9 
REMARK    3  A    between atoms: C12_15  and  O1_16 
REMARK    4  A    between atoms: C13_17  and  O2_18 
REMARK    5  A    between atoms: O2_18  and  C14_19 
REMARK    6  A    between atoms: C14_19  and  C15_20 
REMARK    7  A    between atoms: C15_20  and  O3_21 
ROOT
HETATM    1  C1  UNL     1      29.904   5.731  47.736  1.00  0.00     0.018 C 
HETATM    2  C2  UNL     1      28.775   5.614  48.154  1.00  0.00    -0.078 C 
HETATM    3  C3  UNL     1      27.439   5.482  48.668  1.00  0.00     0.019 A 
HETATM    4  C4  UNL     1      26.541   6.556  48.655  1.00  0.00     0.021 A 
HETATM    5  C5  UNL     1      25.246   6.408  49.161  1.00  0.00     0.004 A 
HETATM    6  C6  UNL     1      24.835   5.178  49.685  1.00  0.00     0.029 A 
HETATM    7  C7  UNL     1      25.775   4.169  49.663  1.00  0.00     0.035 A 
HETATM    8  C19 UNL     1      27.068   4.235  49.183  1.00  0.00     0.050 A 
ENDROOT
BRANCH   7   9
HETATM    9  N1  UNL     1      25.379   2.911  50.190  1.00  0.00    -0.340 N 
HETATM   10  H5  UNL     1      24.644   2.292  49.783  1.00  0.00     0.167 HD
BRANCH   9  11
HETATM   11  C8  UNL     1      25.863   2.246  51.327  1.00  0.00     0.142 A 
HETATM   12  N2  UNL     1      27.162   2.390  51.676  1.00  0.00    -0.224 NA
HETATM   13  C9  UNL     1      27.661   1.758  52.774  1.00  0.00     0.236 A 
HETATM   14  N3  UNL     1      26.938   0.953  53.596  1.00  0.00    -0.241 NA
HETATM   15  C10 UNL     1      25.636   0.794  53.265  1.00  0.00     0.075 A 
HETATM   16  C11 UNL     1      24.795  -0.000  54.020  1.00  0.00     0.072 A 
HETATM   17  C18 UNL     1      25.094   1.426  52.149  1.00  0.00     0.042 A 
HETATM   18  C12 UNL     1      23.461  -0.146  53.659  1.00  0.00     0.101 A 
HETATM   19  C13 UNL     1      22.930   0.487  52.545  1.00  0.00     0.102 A 
HETATM   20  C17 UNL     1      23.776   1.279  51.796  1.00  0.00     0.057 A 
BRANCH  18  21
HETATM   21  O1  UNL     1      22.709  -0.978  54.506  1.00  0.00    -0.358 OA
HETATM   22  H8  UNL     1      23.196  -1.520  55.198  1.00  0.00     0.217 HD
ENDBRANCH  18  21
BRANCH  19  23
HETATM   23  O2  UNL     1      21.600   0.238  52.331  1.00  0.00    -0.346 OA
BRANCH  23  24
HETATM   24  C14 UNL     1      21.131   0.209  50.994  1.00  0.00     0.201 C 
BRANCH  24  25
HETATM   25  C15 UNL     1      20.215   1.371  50.695  1.00  0.00     0.193 C 
BRANCH  25  26
HETATM   26  O3  UNL     1      20.522   1.866  49.449  1.00  0.00    -0.394 OA
HETATM   27  C16 UNL     1      21.438   1.053  48.786  1.00  0.00     0.201 C 
ENDBRANCH  25  26
ENDBRANCH  24  25
ENDBRANCH  23  24
ENDBRANCH  19  23
ENDBRANCH   9  11
ENDBRANCH   7   9
TORSDOF 7
ENDMDL
MODEL 7
REMARK VINA RESULT:      -7.2      2.958      5.211
REMARK  7 active torsions:
REMARK  status: ('A' for Active; 'I' for Inactive)
REMARK    1  A    between atoms: C7_7  and  N1_8 
REMARK    2  A    between atoms: N1_8  and  C8_9 
REMARK    3  A    between atoms: C12_15  and  O1_16 
REMARK    4  A    between atoms: C13_17  and  O2_18 
REMARK    5  A    between atoms: O2_18  and  C14_19 
REMARK    6  A    between atoms: C14_19  and  C15_20 
REMARK    7  A    between atoms: C15_20  and  O3_21 
ROOT
HETATM    1  C1  UNL     1      20.767   4.030  46.363  1.00  0.00     0.018 C 
HETATM    2  C2  UNL     1      21.513   4.249  47.290  1.00  0.00    -0.078 C 
HETATM    3  C3  UNL     1      22.412   4.494  48.385  1.00  0.00     0.019 A 
HETATM    4  C4  UNL     1      23.540   5.308  48.236  1.00  0.00     0.021 A 
HETATM    5  C5  UNL     1      24.402   5.534  49.314  1.00  0.00     0.004 A 
HETATM    6  C6  UNL     1      24.142   4.945  50.555  1.00  0.00     0.029 A 
HETATM    7  C7  UNL     1      23.011   4.157  50.623  1.00  0.00     0.035 A 
HETATM    8  C19 UNL     1      22.114   3.886  49.609  1.00  0.00     0.050 A 
ENDROOT
BRANCH   7   9
HETATM    9  N1  UNL     1      22.727   3.549  51.875  1.00  0.00    -0.340 N 
HETATM   10  H5  UNL     1      22.529   4.062  52.762  1.00  0.00     0.167 HD
BRANCH   9  11
HETATM   11  C8  UNL     1      22.651   2.184  52.189  1.00  0.00     0.142 A 
HETATM   12  N2  UNL     1      21.555   1.480  51.824  1.00  0.00    -0.224 NA
HETATM   13  C9  UNL     1      21.452   0.154  52.114  1.00  0.00     0.236 A 
HETATM   14  N3  UNL     1      22.397  -0.568  52.770  1.00  0.00    -0.241 NA
HETATM   15  C10 UNL     1      23.503   0.115  53.145  1.00  0.00     0.075 A 
HETATM   16  C11 UNL     1      24.537  -0.504  53.819  1.00  0.00     0.072 A 
HETATM   17  C18 UNL     1      23.640   1.473  52.864  1.00  0.00     0.042 A 
HETATM   18  C12 UNL     1      25.662   0.221  54.191  1.00  0.00     0.101 A 
HETATM   19  C13 UNL     1      25.789   1.573  53.908  1.00  0.00     0.102 A 
HETATM   20  C17 UNL     1      24.753   2.185  53.234  1.00  0.00     0.057 A 
BRANCH  18  21
HETATM   21  O1  UNL     1      26.643  -0.522  54.871  1.00  0.00    -0.358 OA
HETATM   22  H8  UNL     1      27.557  -0.120  54.978  1.00  0.00     0.217 HD
ENDBRANCH  18  21
BRANCH  19  23
HETATM   23  O2  UNL     1      26.960   2.137  54.345  1.00  0.00    -0.346 OA
BRANCH  23  24
HETATM   24  C14 UNL     1      28.051   2.197  53.443  1.00  0.00     0.201 C 
BRANCH  24  25
HETATM   25  C15 UNL     1      29.347   1.797  54.103  1.00  0.00     0.193 C 
BRANCH  25  26
HETATM   26  O3  UNL     1      29.253   0.484  54.503  1.00  0.00    -0.394 OA
HETATM   27  C16 UNL     1      29.854  -0.375  53.583  1.00  0.00     0.201 C 
ENDBRANCH  25  26
ENDBRANCH  24  25
ENDBRANCH  23  24
ENDBRANCH  19  23
ENDBRANCH   9  11
ENDBRANCH   7   9
TORSDOF 7
ENDMDL
MODEL 8
REMARK VINA RESULT:      -7.0      4.044      6.019
REMARK  7 active torsions:
REMARK  status: ('A' for Active; 'I' for Inactive)
REMARK    1  A    between atoms: C7_7  and  N1_8 
REMARK    2  A    between atoms: N1_8  and  C8_9 
REMARK    3  A    between atoms: C12_15  and  O1_16 
REMARK    4  A    between atoms: C13_17  and  O2_18 
REMARK    5  A    between atoms: O2_18  and  C14_19 
REMARK    6  A    between atoms: C14_19  and  C15_20 
REMARK    7  A    between atoms: C15_20  and  O3_21 
ROOT
HETATM    1  C1  UNL     1      29.773   2.350  54.394  1.00  0.00     0.018 C 
HETATM    2  C2  UNL     1      29.030   1.478  54.006  1.00  0.00    -0.078 C 
HETATM    3  C3  UNL     1      28.151   0.447  53.526  1.00  0.00     0.019 A 
HETATM    4  C4  UNL     1      28.622  -0.839  53.238  1.00  0.00     0.021 A 
HETATM    5  C5  UNL     1      27.751  -1.829  52.771  1.00  0.00     0.004 A 
HETATM    6  C6  UNL     1      26.395  -1.540  52.588  1.00  0.00     0.029 A 
HETATM    7  C7  UNL     1      26.007  -0.251  52.893  1.00  0.00     0.035 A 
HETATM    8  C19 UNL     1      26.802   0.778  53.357  1.00  0.00     0.050 A 
ENDROOT
BRANCH   7   9
HETATM    9  N1  UNL     1      24.634   0.064  52.715  1.00  0.00    -0.340 N 
HETATM   10  H5  UNL     1      24.253   0.706  51.985  1.00  0.00     0.167 HD
BRANCH   9  11
HETATM   11  C8  UNL     1      23.528  -0.394  53.447  1.00  0.00     0.142 A 
HETATM   12  N2  UNL     1      23.730  -1.061  54.606  1.00  0.00    -0.224 NA
HETATM   13  C9  UNL     1      22.677  -1.518  55.338  1.00  0.00     0.236 A 
HETATM   14  N3  UNL     1      21.372  -1.358  54.996  1.00  0.00    -0.241 NA
HETATM   15  C10 UNL     1      21.146  -0.693  53.840  1.00  0.00     0.075 A 
HETATM   16  C11 UNL     1      19.863  -0.465  53.382  1.00  0.00     0.072 A 
HETATM   17  C18 UNL     1      22.200  -0.213  53.067  1.00  0.00     0.042 A 
HETATM   18  C12 UNL     1      19.659   0.222  52.191  1.00  0.00     0.101 A 
HETATM   19  C13 UNL     1      20.714   0.696  51.428  1.00  0.00     0.102 A 
HETATM   20  C17 UNL     1      21.993   0.465  51.892  1.00  0.00     0.057 A 
BRANCH  18  21
HETATM   21  O1  UNL     1      18.310   0.390  51.833  1.00  0.00    -0.358 OA
HETATM   22  H8  UNL     1      18.075   0.419  50.857  1.00  0.00     0.217 HD
ENDBRANCH  18  21
BRANCH  19  23
HETATM   23  O2  UNL     1      20.339   1.350  50.283  1.00  0.00    -0.346 OA
BRANCH  23  24
HETATM   24  C14 UNL     1      20.726   2.705  50.130  1.00  0.00     0.201 C 
BRANCH  24  25
HETATM   25  C15 UNL     1      19.533   3.626  50.075  1.00  0.00     0.193 C 
BRANCH  25  26
HETATM   26  O3  UNL     1      18.573   3.159  50.943  1.00  0.00    -0.394 OA
HETATM   27  C16 UNL     1      17.439   3.970  50.936  1.00  0.00     0.201 C 
ENDBRANCH  25  26
ENDBRANCH  24  25
ENDBRANCH  23  24
ENDBRANCH  19  23
ENDBRANCH   9  11
ENDBRANCH   7   9
TORSDOF 7
ENDMDL
MODEL 9
REMARK VINA RESULT:      -6.9      5.731      8.896
REMARK  7 active torsions:
REMARK  status: ('A' for Active; 'I' for Inactive)
REMARK    1  A    between atoms: C7_7  and  N1_8 
REMARK    2  A    between atoms: N1_8  and  C8_9 
REMARK    3  A    between atoms: C12_15  and  O1_16 
REMARK    4  A    between atoms: C13_17  and  O2_18 
REMARK    5  A    between atoms: O2_18  and  C14_19 
REMARK    6  A    between atoms: C14_19  and  C15_20 
REMARK    7  A    between atoms: C15_20  and  O3_21 
ROOT
HETATM    1  C1  UNL     1      31.796   0.483  46.376  1.00  0.00     0.018 C 
HETATM    2  C2  UNL     1      32.358   1.515  46.661  1.00  0.00    -0.078 C 
HETATM    3  C3  UNL     1      33.037   2.731  47.015  1.00  0.00     0.019 A 
HETATM    4  C4  UNL     1      34.321   3.018  46.537  1.00  0.00     0.021 A 
HETATM    5  C5  UNL     1      34.965   4.207  46.894  1.00  0.00     0.004 A 
HETATM    6  C6  UNL     1      34.327   5.124  47.735  1.00  0.00     0.029 A 
HETATM    7  C7  UNL     1      33.064   4.771  48.165  1.00  0.00     0.035 A 
HETATM    8  C19 UNL     1      32.364   3.622  47.859  1.00  0.00     0.050 A 
ENDROOT
BRANCH   7   9
HETATM    9  N1  UNL     1      32.398   5.688  49.020  1.00  0.00    -0.340 N 
HETATM   10  H5  UNL     1      32.300   5.586  50.055  1.00  0.00     0.167 HD
BRANCH   9  11
HETATM   11  C8  UNL     1      31.749   6.886  48.685  1.00  0.00     0.142 A 
HETATM   12  N2  UNL     1      32.470   8.027  48.589  1.00  0.00    -0.224 NA
HETATM   13  C9  UNL     1      31.870   9.204  48.264  1.00  0.00     0.236 A 
HETATM   14  N3  UNL     1      30.542   9.350  48.014  1.00  0.00    -0.241 NA
HETATM   15  C10 UNL     1      29.801   8.223  48.103  1.00  0.00     0.075 A 
HETATM   16  C11 UNL     1      28.439   8.237  47.872  1.00  0.00     0.072 A 
HETATM   17  C18 UNL     1      30.384   7.001  48.433  1.00  0.00     0.042 A 
HETATM   18  C12 UNL     1      27.702   7.064  47.969  1.00  0.00     0.101 A 
HETATM   19  C13 UNL     1      28.290   5.853  48.299  1.00  0.00     0.102 A 
HETATM   20  C17 UNL     1      29.651   5.845  48.529  1.00  0.00     0.057 A 
BRANCH  18  21
HETATM   21  O1  UNL     1      26.327   7.210  47.711  1.00  0.00    -0.358 OA
HETATM   22  H8  UNL     1      25.682   7.073  48.468  1.00  0.00     0.217 HD
ENDBRANCH  18  21
BRANCH  19  23
HETATM   23  O2  UNL     1      27.421   4.795  48.353  1.00  0.00    -0.346 OA
BRANCH  23  24
HETATM   24  C14 UNL     1      27.006   4.334  49.627  1.00  0.00     0.201 C 
BRANCH  24  25
HETATM   25  C15 UNL     1      25.522   4.063  49.670  1.00  0.00     0.193 C 
BRANCH  25  26
HETATM   26  O3  UNL     1      24.851   5.224  49.360  1.00  0.00    -0.394 OA
HETATM   27  C16 UNL     1      24.747   6.066  50.466  1.00  0.00     0.201 C 
ENDBRANCH  25  26
ENDBRANCH  24  25
ENDBRANCH  23  24
ENDBRANCH  19  23
ENDBRANCH   9  11
ENDBRANCH   7   9
TORSDOF 7
ENDMDL
