MODEL 1
REMARK VINA RESULT:      -6.6      0.000      0.000
REMARK  4 active torsions:
REMARK  status: ('A' for Active; 'I' for Inactive)
REMARK    1  A    between atoms: C8_11  and  S1_12 
REMARK    2  A    between atoms: S1_12  and  C9_13 
REMARK    3  A    between atoms: C9_13  and  C10_14 
REMARK    4  A    between atoms: C12_17  and  C13_18 
ROOT
HETATM    1  C1  UNL     1      33.883   7.672  44.504  1.00  0.00     0.043 C 
HETATM    2  C2  UNL     1      33.372   6.481  45.162  1.00  0.00     0.137 C 
HETATM    3  N1  UNL     1      33.069   5.262  44.549  1.00  0.00    -0.409 N 
HETATM    4  C3  UNL     1      34.244   4.459  44.216  1.00  0.00     0.115 C 
HETATM    5  C4  UNL     1      34.939   4.061  45.511  1.00  0.00     0.021 C 
HETATM    6  C5  UNL     1      34.018   3.422  46.515  1.00  0.00     0.021 C 
HETATM    7  C6  UNL     1      34.681   3.188  47.854  1.00  0.00     0.120 C 
HETATM    8  N2  UNL     1      35.092   4.418  48.526  1.00  0.00    -0.385 N 
HETATM    9  C7  UNL     1      34.721   5.643  49.220  1.00  0.00     0.198 C 
HETATM   10  N3  UNL     1      34.063   6.034  48.271  1.00  0.00    -0.259 NA
HETATM   11  C8  UNL     1      33.294   7.190  48.017  1.00  0.00     0.234 C 
HETATM   12  S2  UNL     1      32.217   6.795  46.535  1.00  0.00    -0.107 SA
HETATM   13  H5  UNL     1      32.316   5.217  43.857  1.00  0.00     0.154 HD
HETATM   14  H14 UNL     1      36.159   4.499  48.514  1.00  0.00     0.160 HD
ENDROOT
BRANCH  11  15
HETATM   15  S1  UNL     1      32.126   7.513  49.342  1.00  0.00    -0.123 SA
BRANCH  15  16
HETATM   16  C9  UNL     1      31.160   8.978  48.978  1.00  0.00     0.163 C 
BRANCH  16  17
HETATM   17  C10 UNL     1      29.682   8.665  49.053  1.00  0.00     0.154 A 
HETATM   18  N4  UNL     1      28.678   9.390  49.546  1.00  0.00    -0.237 NA
HETATM   19  C11 UNL     1      27.529   8.691  49.389  1.00  0.00     0.153 A 
HETATM   20  C12 UNL     1      27.895   7.510  48.775  1.00  0.00     0.086 A 
HETATM   21  O1  UNL     1      29.184   7.533  48.592  1.00  0.00    -0.297 OA
BRANCH  20  22
HETATM   22  C13 UNL     1      26.956   6.408  48.397  1.00  0.00     0.108 C 
HETATM   23  C14 UNL     1      27.792   5.126  48.534  1.00  0.00     0.028 C 
HETATM   24  I1  UNL     1      25.259   6.397  49.647  1.00  0.00    -0.078 I 
ENDBRANCH  20  22
ENDBRANCH  16  17
ENDBRANCH  15  16
ENDBRANCH  11  15
TORSDOF 4
ENDMDL
MODEL 2
REMARK VINA RESULT:      -6.6      7.999     11.440
REMARK  4 active torsions:
REMARK  status: ('A' for Active; 'I' for Inactive)
REMARK    1  A    between atoms: C8_11  and  S1_12 
REMARK    2  A    between atoms: S1_12  and  C9_13 
REMARK    3  A    between atoms: C9_13  and  C10_14 
REMARK    4  A    between atoms: C12_17  and  C13_18 
ROOT
HETATM    1  C1  UNL     1      21.202   1.288  49.637  1.00  0.00     0.043 C 
HETATM    2  C2  UNL     1      21.184   1.533  51.070  1.00  0.00     0.137 C 
HETATM    3  N1  UNL     1      20.053   1.779  51.853  1.00  0.00    -0.409 N 
HETATM    4  C3  UNL     1      19.263   0.583  52.142  1.00  0.00     0.115 C 
HETATM    5  C4  UNL     1      20.106  -0.358  52.991  1.00  0.00     0.021 C 
HETATM    6  C5  UNL     1      20.700   0.299  54.208  1.00  0.00     0.021 C 
HETATM    7  C6  UNL     1      21.668  -0.597  54.946  1.00  0.00     0.120 C 
HETATM    8  N2  UNL     1      22.846  -0.957  54.163  1.00  0.00    -0.385 N 
HETATM    9  C7  UNL     1      24.102  -0.555  53.543  1.00  0.00     0.198 C 
HETATM   10  N3  UNL     1      23.547   0.293  52.865  1.00  0.00    -0.259 NA
HETATM   11  C8  UNL     1      23.990   1.231  51.907  1.00  0.00     0.234 C 
HETATM   12  S2  UNL     1      22.605   2.478  51.709  1.00  0.00    -0.107 SA
HETATM   13  H5  UNL     1      19.498   2.623  51.690  1.00  0.00     0.154 HD
HETATM   14  H14 UNL     1      22.797  -1.989  53.885  1.00  0.00     0.160 HD
ENDROOT
BRANCH  11  15
HETATM   15  S1  UNL     1      25.374   2.197  52.517  1.00  0.00    -0.123 SA
BRANCH  15  16
HETATM   16  C9  UNL     1      26.678   2.262  51.289  1.00  0.00     0.163 C 
BRANCH  16  17
HETATM   17  C10 UNL     1      26.497   3.466  50.393  1.00  0.00     0.154 A 
HETATM   18  N4  UNL     1      27.241   3.893  49.372  1.00  0.00    -0.237 NA
HETATM   19  C11 UNL     1      26.678   5.019  48.875  1.00  0.00     0.153 A 
HETATM   20  C12 UNL     1      25.557   5.246  49.648  1.00  0.00     0.086 A 
HETATM   21  O1  UNL     1      25.484   4.299  50.539  1.00  0.00    -0.297 OA
BRANCH  20  22
HETATM   22  C13 UNL     1      24.606   6.388  49.474  1.00  0.00     0.108 C 
HETATM   23  C14 UNL     1      24.542   7.050  50.859  1.00  0.00     0.028 C 
HETATM   24  I1  UNL     1      25.282   7.714  47.982  1.00  0.00    -0.078 I 
ENDBRANCH  20  22
ENDBRANCH  16  17
ENDBRANCH  15  16
ENDBRANCH  11  15
TORSDOF 4
ENDMDL
MODEL 3
REMARK VINA RESULT:      -6.5     10.400     12.589
REMARK  4 active torsions:
REMARK  status: ('A' for Active; 'I' for Inactive)
REMARK    1  A    between atoms: C8_11  and  S1_12 
REMARK    2  A    between atoms: S1_12  and  C9_13 
REMARK    3  A    between atoms: C9_13  and  C10_14 
REMARK    4  A    between atoms: C12_17  and  C13_18 
ROOT
HETATM    1  C1  UNL     1      23.799   3.663  52.563  1.00  0.00     0.043 C 
HETATM    2  C2  UNL     1      24.389   2.453  52.016  1.00  0.00     0.137 C 
HETATM    3  N1  UNL     1      25.339   2.386  50.992  1.00  0.00    -0.409 N 
HETATM    4  C3  UNL     1      26.692   2.741  51.417  1.00  0.00     0.115 C 
HETATM    5  C4  UNL     1      27.165   1.710  52.432  1.00  0.00     0.021 C 
HETATM    6  C5  UNL     1      27.019   0.288  51.957  1.00  0.00     0.021 C 
HETATM    7  C6  UNL     1      27.332  -0.725  53.035  1.00  0.00     0.120 C 
HETATM    8  N2  UNL     1      26.421  -0.667  54.175  1.00  0.00    -0.385 N 
HETATM    9  C7  UNL     1      25.089  -0.892  54.719  1.00  0.00     0.198 C 
HETATM   10  N3  UNL     1      24.580  -0.146  53.900  1.00  0.00    -0.259 NA
HETATM   11  C8  UNL     1      23.258   0.276  53.642  1.00  0.00     0.234 C 
HETATM   12  S2  UNL     1      23.266   1.021  51.922  1.00  0.00    -0.107 SA
HETATM   13  H5  UNL     1      25.093   2.706  50.052  1.00  0.00     0.154 HD
HETATM   14  H14 UNL     1      26.930  -0.268  55.027  1.00  0.00     0.160 HD
ENDROOT
BRANCH  11  15
HETATM   15  S1  UNL     1      22.130  -1.114  53.518  1.00  0.00    -0.123 SA
BRANCH  15  16
HETATM   16  C9  UNL     1      20.533  -0.684  54.207  1.00  0.00     0.163 C 
BRANCH  16  17
HETATM   17  C10 UNL     1      19.535  -0.428  53.101  1.00  0.00     0.154 A 
HETATM   18  N4  UNL     1      19.668   0.271  51.973  1.00  0.00    -0.237 NA
HETATM   19  C11 UNL     1      18.497   0.216  51.295  1.00  0.00     0.153 A 
HETATM   20  C12 UNL     1      17.654  -0.553  52.074  1.00  0.00     0.086 A 
HETATM   21  O1  UNL     1      18.309  -0.916  53.139  1.00  0.00    -0.297 OA
BRANCH  20  22
HETATM   22  C13 UNL     1      16.238  -0.894  51.733  1.00  0.00     0.108 C 
HETATM   23  C14 UNL     1      15.393  -0.014  52.668  1.00  0.00     0.028 C 
HETATM   24  I1  UNL     1      15.838  -0.517  49.698  1.00  0.00    -0.078 I 
ENDBRANCH  20  22
ENDBRANCH  16  17
ENDBRANCH  15  16
ENDBRANCH  11  15
TORSDOF 4
ENDMDL
MODEL 4
REMARK VINA RESULT:      -6.5      8.140     11.480
REMARK  4 active torsions:
REMARK  status: ('A' for Active; 'I' for Inactive)
REMARK    1  A    between atoms: C8_11  and  S1_12 
REMARK    2  A    between atoms: S1_12  and  C9_13 
REMARK    3  A    between atoms: C9_13  and  C10_14 
REMARK    4  A    between atoms: C12_17  and  C13_18 
ROOT
HETATM    1  C1  UNL     1      20.451   0.596  50.553  1.00  0.00     0.043 C 
HETATM    2  C2  UNL     1      20.826   0.827  51.938  1.00  0.00     0.137 C 
HETATM    3  N1  UNL     1      19.987   0.722  53.051  1.00  0.00    -0.409 N 
HETATM    4  C3  UNL     1      19.708  -0.655  53.454  1.00  0.00     0.115 C 
HETATM    5  C4  UNL     1      21.012  -1.297  53.909  1.00  0.00     0.021 C 
HETATM    6  C5  UNL     1      21.752  -0.489  54.941  1.00  0.00     0.021 C 
HETATM    7  C6  UNL     1      23.119  -1.051  55.257  1.00  0.00     0.120 C 
HETATM    8  N2  UNL     1      24.033  -1.041  54.118  1.00  0.00    -0.385 N 
HETATM    9  C7  UNL     1      24.852  -0.281  53.184  1.00  0.00     0.198 C 
HETATM   10  N3  UNL     1      23.891   0.359  52.793  1.00  0.00    -0.259 NA
HETATM   11  C8  UNL     1      23.714   1.385  51.839  1.00  0.00     0.234 C 
HETATM   12  S2  UNL     1      22.044   2.157  52.196  1.00  0.00    -0.107 SA
HETATM   13  H5  UNL     1      19.192   1.360  53.148  1.00  0.00     0.154 HD
HETATM   14  H14 UNL     1      24.194  -2.040  53.772  1.00  0.00     0.160 HD
ENDROOT
BRANCH  11  15
HETATM   15  S1  UNL     1      24.884   2.725  52.082  1.00  0.00    -0.123 SA
BRANCH  15  16
HETATM   16  C9  UNL     1      26.301   2.518  51.006  1.00  0.00     0.163 C 
BRANCH  16  17
HETATM   17  C10 UNL     1      26.473   3.732  50.122  1.00  0.00     0.154 A 
HETATM   18  N4  UNL     1      27.406   4.002  49.209  1.00  0.00    -0.237 NA
HETATM   19  C11 UNL     1      27.142   5.217  48.674  1.00  0.00     0.153 A 
HETATM   20  C12 UNL     1      26.001   5.663  49.311  1.00  0.00     0.086 A 
HETATM   21  O1  UNL     1      25.634   4.750  50.165  1.00  0.00    -0.297 OA
BRANCH  20  22
HETATM   22  C13 UNL     1      25.323   6.970  49.049  1.00  0.00     0.108 C 
HETATM   23  C14 UNL     1      25.426   7.731  50.381  1.00  0.00     0.028 C 
HETATM   24  I1  UNL     1      26.251   8.001  47.463  1.00  0.00    -0.078 I 
ENDBRANCH  20  22
ENDBRANCH  16  17
ENDBRANCH  15  16
ENDBRANCH  11  15
TORSDOF 4
ENDMDL
MODEL 5
REMARK VINA RESULT:      -6.5      1.306      1.601
REMARK  4 active torsions:
REMARK  status: ('A' for Active; 'I' for Inactive)
REMARK    1  A    between atoms: C8_11  and  S1_12 
REMARK    2  A    between atoms: S1_12  and  C9_13 
REMARK    3  A    between atoms: C9_13  and  C10_14 
REMARK    4  A    between atoms: C12_17  and  C13_18 
ROOT
HETATM    1  C1  UNL     1      33.959   7.563  44.253  1.00  0.00     0.043 C 
HETATM    2  C2  UNL     1      33.463   6.348  44.878  1.00  0.00     0.137 C 
HETATM    3  N1  UNL     1      33.311   5.103  44.261  1.00  0.00    -0.409 N 
HETATM    4  C3  UNL     1      34.567   4.380  44.071  1.00  0.00     0.115 C 
HETATM    5  C4  UNL     1      35.145   4.049  45.441  1.00  0.00     0.021 C 
HETATM    6  C5  UNL     1      34.167   3.360  46.355  1.00  0.00     0.021 C 
HETATM    7  C6  UNL     1      34.697   3.191  47.761  1.00  0.00     0.120 C 
HETATM    8  N2  UNL     1      34.949   4.455  48.447  1.00  0.00    -0.385 N 
HETATM    9  C7  UNL     1      34.423   5.660  49.072  1.00  0.00     0.198 C 
HETATM   10  N3  UNL     1      33.845   5.992  48.051  1.00  0.00    -0.259 NA
HETATM   11  C8  UNL     1      33.030   7.088  47.694  1.00  0.00     0.234 C 
HETATM   12  S2  UNL     1      32.148   6.598  46.114  1.00  0.00    -0.107 SA
HETATM   13  H5  UNL     1      32.642   4.996  43.494  1.00  0.00     0.154 HD
HETATM   14  H14 UNL     1      36.003   4.611  48.546  1.00  0.00     0.160 HD
ENDROOT
BRANCH  11  15
HETATM   15  S1  UNL     1      31.708   7.345  48.880  1.00  0.00    -0.123 SA
BRANCH  15  16
HETATM   16  C9  UNL     1      30.200   7.822  48.038  1.00  0.00     0.163 C 
BRANCH  16  17
HETATM   17  C10 UNL     1      29.123   6.784  48.260  1.00  0.00     0.154 A 
HETATM   18  N4  UNL     1      29.218   5.457  48.347  1.00  0.00    -0.237 NA
HETATM   19  C11 UNL     1      27.979   4.951  48.550  1.00  0.00     0.153 A 
HETATM   20  C12 UNL     1      27.134   6.043  48.583  1.00  0.00     0.086 A 
HETATM   21  O1  UNL     1      27.854   7.115  48.407  1.00  0.00    -0.297 OA
BRANCH  20  22
HETATM   22  C13 UNL     1      25.654   5.982  48.787  1.00  0.00     0.108 C 
HETATM   23  C14 UNL     1      25.406   4.594  49.397  1.00  0.00     0.028 C 
HETATM   24  I1  UNL     1      24.997   7.540  50.045  1.00  0.00    -0.078 I 
ENDBRANCH  20  22
ENDBRANCH  16  17
ENDBRANCH  15  16
ENDBRANCH  11  15
TORSDOF 4
ENDMDL
MODEL 6
REMARK VINA RESULT:      -6.4      9.429     11.798
REMARK  4 active torsions:
REMARK  status: ('A' for Active; 'I' for Inactive)
REMARK    1  A    between atoms: C8_11  and  S1_12 
REMARK    2  A    between atoms: S1_12  and  C9_13 
REMARK    3  A    between atoms: C9_13  and  C10_14 
REMARK    4  A    between atoms: C12_17  and  C13_18 
ROOT
HETATM    1  C1  UNL     1      23.810   3.673  52.559  1.00  0.00     0.043 C 
HETATM    2  C2  UNL     1      24.359   2.448  52.001  1.00  0.00     0.137 C 
HETATM    3  N1  UNL     1      25.316   2.359  50.987  1.00  0.00    -0.409 N 
HETATM    4  C3  UNL     1      26.677   2.656  51.429  1.00  0.00     0.115 C 
HETATM    5  C4  UNL     1      27.100   1.594  52.435  1.00  0.00     0.021 C 
HETATM    6  C5  UNL     1      26.906   0.186  51.939  1.00  0.00     0.021 C 
HETATM    7  C6  UNL     1      27.169  -0.853  53.005  1.00  0.00     0.120 C 
HETATM    8  N2  UNL     1      26.249  -0.776  54.137  1.00  0.00    -0.385 N 
HETATM    9  C7  UNL     1      24.903  -0.957  54.664  1.00  0.00     0.198 C 
HETATM   10  N3  UNL     1      24.432  -0.182  53.850  1.00  0.00    -0.259 NA
HETATM   11  C8  UNL     1      23.129   0.294  53.585  1.00  0.00     0.234 C 
HETATM   12  S2  UNL     1      23.184   1.062  51.876  1.00  0.00    -0.107 SA
HETATM   13  H5  UNL     1      25.093   2.701  50.048  1.00  0.00     0.154 HD
HETATM   14  H14 UNL     1      26.763  -0.407  55.000  1.00  0.00     0.160 HD
ENDROOT
BRANCH  11  15
HETATM   15  S1  UNL     1      21.951  -1.051  53.431  1.00  0.00    -0.123 SA
BRANCH  15  16
HETATM   16  C9  UNL     1      20.317  -0.507  53.927  1.00  0.00     0.163 C 
BRANCH  16  17
HETATM   17  C10 UNL     1      19.606   0.150  52.765  1.00  0.00     0.154 A 
HETATM   18  N4  UNL     1      18.660  -0.330  51.957  1.00  0.00    -0.237 NA
HETATM   19  C11 UNL     1      18.333   0.632  51.062  1.00  0.00     0.153 A 
HETATM   20  C12 UNL     1      19.130   1.715  51.375  1.00  0.00     0.086 A 
HETATM   21  O1  UNL     1      19.873   1.388  52.394  1.00  0.00    -0.297 OA
BRANCH  20  22
HETATM   22  C13 UNL     1      19.125   3.025  50.654  1.00  0.00     0.108 C 
HETATM   23  C14 UNL     1      19.994   3.947  51.525  1.00  0.00     0.028 C 
HETATM   24  I1  UNL     1      19.885   2.817  48.699  1.00  0.00    -0.078 I 
ENDBRANCH  20  22
ENDBRANCH  16  17
ENDBRANCH  15  16
ENDBRANCH  11  15
TORSDOF 4
ENDMDL
MODEL 7
REMARK VINA RESULT:      -6.3      8.572     11.782
REMARK  4 active torsions:
REMARK  status: ('A' for Active; 'I' for Inactive)
REMARK    1  A    between atoms: C8_11  and  S1_12 
REMARK    2  A    between atoms: S1_12  and  C9_13 
REMARK    3  A    between atoms: C9_13  and  C10_14 
REMARK    4  A    between atoms: C12_17  and  C13_18 
ROOT
HETATM    1  C1  UNL     1      24.983   2.446  53.332  1.00  0.00     0.043 C 
HETATM    2  C2  UNL     1      24.274   1.255  52.895  1.00  0.00     0.137 C 
HETATM    3  N1  UNL     1      24.772  -0.051  52.899  1.00  0.00    -0.409 N 
HETATM    4  C3  UNL     1      24.804  -0.669  54.223  1.00  0.00     0.115 C 
HETATM    5  C4  UNL     1      23.372  -0.815  54.721  1.00  0.00     0.021 C 
HETATM    6  C5  UNL     1      22.462  -1.504  53.740  1.00  0.00     0.021 C 
HETATM    7  C6  UNL     1      21.014  -1.490  54.173  1.00  0.00     0.120 C 
HETATM    8  N2  UNL     1      20.442  -0.149  54.263  1.00  0.00    -0.385 N 
HETATM    9  C7  UNL     1      19.977   1.055  53.589  1.00  0.00     0.198 C 
HETATM   10  N3  UNL     1      21.063   1.234  53.064  1.00  0.00    -0.259 NA
HETATM   11  C8  UNL     1      21.583   2.211  52.188  1.00  0.00     0.234 C 
HETATM   12  S2  UNL     1      23.161   1.496  51.474  1.00  0.00    -0.107 SA
HETATM   13  H5  UNL     1      25.568  -0.292  52.302  1.00  0.00     0.154 HD
HETATM   14  H14 UNL     1      20.287   0.112  55.289  1.00  0.00     0.160 HD
ENDROOT
BRANCH  11  15
HETATM   15  S1  UNL     1      20.520   2.455  50.762  1.00  0.00    -0.123 SA
BRANCH  15  16
HETATM   16  C9  UNL     1      20.438   4.193  50.335  1.00  0.00     0.163 C 
BRANCH  16  17
HETATM   17  C10 UNL     1      21.797   4.837  50.492  1.00  0.00     0.154 A 
HETATM   18  N4  UNL     1      22.248   5.667  51.434  1.00  0.00    -0.237 NA
HETATM   19  C11 UNL     1      23.534   5.978  51.149  1.00  0.00     0.153 A 
HETATM   20  C12 UNL     1      23.834   5.292  49.989  1.00  0.00     0.086 A 
HETATM   21  O1  UNL     1      22.774   4.625  49.630  1.00  0.00    -0.297 OA
BRANCH  20  22
HETATM   22  C13 UNL     1      25.152   5.325  49.284  1.00  0.00     0.108 C 
HETATM   23  C14 UNL     1      25.811   6.630  49.759  1.00  0.00     0.028 C 
HETATM   24  I1  UNL     1      26.306   3.626  49.756  1.00  0.00    -0.078 I 
ENDBRANCH  20  22
ENDBRANCH  16  17
ENDBRANCH  15  16
ENDBRANCH  11  15
TORSDOF 4
ENDMDL
MODEL 8
REMARK VINA RESULT:      -6.3      6.560      9.867
REMARK  4 active torsions:
REMARK  status: ('A' for Active; 'I' for Inactive)
REMARK    1  A    between atoms: C8_11  and  S1_12 
REMARK    2  A    between atoms: S1_12  and  C9_13 
REMARK    3  A    between atoms: C9_13  and  C10_14 
REMARK    4  A    between atoms: C12_17  and  C13_18 
ROOT
HETATM    1  C1  UNL     1      27.203   4.338  48.971  1.00  0.00     0.043 C 
HETATM    2  C2  UNL     1      26.312   5.443  49.286  1.00  0.00     0.137 C 
HETATM    3  N1  UNL     1      26.695   6.745  49.617  1.00  0.00    -0.409 N 
HETATM    4  C3  UNL     1      27.129   7.544  48.473  1.00  0.00     0.115 C 
HETATM    5  C4  UNL     1      25.942   7.732  47.537  1.00  0.00     0.021 C 
HETATM    6  C5  UNL     1      24.712   8.258  48.227  1.00  0.00     0.021 C 
HETATM    7  C6  UNL     1      23.497   8.278  47.326  1.00  0.00     0.120 C 
HETATM    8  N2  UNL     1      23.079   6.953  46.879  1.00  0.00    -0.385 N 
HETATM    9  C7  UNL     1      22.494   5.657  47.196  1.00  0.00     0.198 C 
HETATM   10  N3  UNL     1      23.350   5.426  48.033  1.00  0.00    -0.259 NA
HETATM   11  C8  UNL     1      23.608   4.345  48.904  1.00  0.00     0.234 C 
HETATM   12  S2  UNL     1      24.804   4.983  50.198  1.00  0.00    -0.107 SA
HETATM   13  H5  UNL     1      27.226   6.914  50.476  1.00  0.00     0.154 HD
HETATM   14  H14 UNL     1      23.295   6.835  45.838  1.00  0.00     0.160 HD
ENDROOT
BRANCH  11  15
HETATM   15  S1  UNL     1      22.146   3.884  49.838  1.00  0.00    -0.123 SA
BRANCH  15  16
HETATM   16  C9  UNL     1      21.869   2.117  49.728  1.00  0.00     0.163 C 
BRANCH  16  17
HETATM   17  C10 UNL     1      22.418   1.421  50.953  1.00  0.00     0.154 A 
HETATM   18  N4  UNL     1      21.865   0.485  51.726  1.00  0.00    -0.237 NA
HETATM   19  C11 UNL     1      22.742   0.169  52.708  1.00  0.00     0.153 A 
HETATM   20  C12 UNL     1      23.850   0.963  52.486  1.00  0.00     0.086 A 
HETATM   21  O1  UNL     1      23.617   1.693  51.432  1.00  0.00    -0.297 OA
BRANCH  20  22
HETATM   22  C13 UNL     1      25.089   0.968  53.323  1.00  0.00     0.108 C 
HETATM   23  C14 UNL     1      25.275  -0.499  53.743  1.00  0.00     0.028 C 
HETATM   24  I1  UNL     1      26.736   1.704  52.233  1.00  0.00    -0.078 I 
ENDBRANCH  20  22
ENDBRANCH  16  17
ENDBRANCH  15  16
ENDBRANCH  11  15
TORSDOF 4
ENDMDL
MODEL 9
REMARK VINA RESULT:      -6.3      7.165     10.766
REMARK  4 active torsions:
REMARK  status: ('A' for Active; 'I' for Inactive)
REMARK    1  A    between atoms: C8_11  and  S1_12 
REMARK    2  A    between atoms: S1_12  and  C9_13 
REMARK    3  A    between atoms: C9_13  and  C10_14 
REMARK    4  A    between atoms: C12_17  and  C13_18 
ROOT
HETATM    1  C1  UNL     1      25.535   2.337  53.731  1.00  0.00     0.043 C 
HETATM    2  C2  UNL     1      24.617   1.628  52.855  1.00  0.00     0.137 C 
HETATM    3  N1  UNL     1      24.550   0.243  52.675  1.00  0.00    -0.409 N 
HETATM    4  C3  UNL     1      23.900  -0.466  53.775  1.00  0.00     0.115 C 
HETATM    5  C4  UNL     1      22.443  -0.028  53.838  1.00  0.00     0.021 C 
HETATM    6  C5  UNL     1      21.725  -0.141  52.520  1.00  0.00     0.021 C 
HETATM    7  C6  UNL     1      20.335   0.454  52.556  1.00  0.00     0.120 C 
HETATM    8  N2  UNL     1      20.321   1.892  52.813  1.00  0.00    -0.385 N 
HETATM    9  C7  UNL     1      20.602   3.244  52.350  1.00  0.00     0.198 C 
HETATM   10  N3  UNL     1      21.782   2.988  52.181  1.00  0.00    -0.259 NA
HETATM   11  C8  UNL     1      22.894   3.731  51.728  1.00  0.00     0.234 C 
HETATM   12  S2  UNL     1      24.224   2.482  51.295  1.00  0.00    -0.107 SA
HETATM   13  H5  UNL     1      25.345  -0.253  52.263  1.00  0.00     0.154 HD
HETATM   14  H14 UNL     1      19.944   2.082  53.796  1.00  0.00     0.160 HD
ENDROOT
BRANCH  11  15
HETATM   15  S1  UNL     1      22.547   4.565  50.177  1.00  0.00    -0.123 SA
BRANCH  15  16
HETATM   16  C9  UNL     1      23.950   4.433  49.070  1.00  0.00     0.163 C 
BRANCH  16  17
HETATM   17  C10 UNL     1      24.909   5.580  49.298  1.00  0.00     0.154 A 
HETATM   18  N4  UNL     1      24.836   6.599  50.155  1.00  0.00    -0.237 NA
HETATM   19  C11 UNL     1      25.934   7.374  49.991  1.00  0.00     0.153 A 
HETATM   20  C12 UNL     1      26.670   6.768  48.992  1.00  0.00     0.086 A 
HETATM   21  O1  UNL     1      26.026   5.703  48.607  1.00  0.00    -0.297 OA
BRANCH  20  22
HETATM   22  C13 UNL     1      27.977   7.265  48.462  1.00  0.00     0.108 C 
HETATM   23  C14 UNL     1      28.785   5.991  48.169  1.00  0.00     0.028 C 
HETATM   24  I1  UNL     1      27.694   8.448  46.741  1.00  0.00    -0.078 I 
ENDBRANCH  20  22
ENDBRANCH  16  17
ENDBRANCH  15  16
ENDBRANCH  11  15
TORSDOF 4
ENDMDL
