MODEL 1
REMARK VINA RESULT:      -8.6      0.000      0.000
REMARK  3 active torsions:
REMARK  status: ('A' for Active; 'I' for Inactive)
REMARK    1  A    between atoms: C2_2  and  O1_3 
REMARK    2  A    between atoms: O1_3  and  C3_4 
REMARK    3  A    between atoms: C6_7  and  C7_8 
ROOT
HETATM    1  C7  UNL     1      26.258   3.559  50.078  1.00  0.00     0.070 C 
HETATM    2  N1  UNL     1      26.798   2.607  50.659  1.00  0.00    -0.175 NA
HETATM    3  N2  UNL     1      26.025   1.618  51.241  1.00  0.00    -0.264 N 
HETATM    4  C8  UNL     1      26.775   0.540  51.803  1.00  0.00     0.229 C 
HETATM    5  S1  UNL     1      26.835   0.349  53.581  1.00  0.00    -0.120 SA
HETATM    6  C9  UNL     1      25.388  -0.314  54.313  1.00  0.00     0.043 C 
HETATM    7  C10 UNL     1      24.282  -0.854  54.731  1.00  0.00    -0.016 C 
HETATM    8  C11 UNL     1      23.112  -1.365  55.435  1.00  0.00     0.054 C 
HETATM    9  C12 UNL     1      21.843  -0.794  54.947  1.00  0.00    -0.023 C 
HETATM   10  C13 UNL     1      21.425   0.023  54.048  1.00  0.00    -0.007 C 
HETATM   11  C14 UNL     1      21.473   0.943  52.959  1.00  0.00     0.009 C 
HETATM   12  C15 UNL     1      22.509   1.376  52.261  1.00  0.00     0.023 C 
HETATM   13  C16 UNL     1      23.549   1.931  51.420  1.00  0.00     0.005 C 
HETATM   14  C17 UNL     1      24.752   2.128  50.948  1.00  0.00     0.034 C 
HETATM   15  C18 UNL     1      24.817   3.224  49.963  1.00  0.00     0.120 C 
ENDROOT
BRANCH   1  16
HETATM   16  C6  UNL     1      26.697   4.764  49.378  1.00  0.00    -0.009 A 
HETATM   17  C5  UNL     1      25.787   5.816  49.483  1.00  0.00     0.016 A 
HETATM   18  C4  UNL     1      26.135   7.004  48.841  1.00  0.00     0.037 A 
HETATM   19  C3  UNL     1      27.298   7.194  48.128  1.00  0.00     0.068 A 
HETATM   20  C20 UNL     1      28.144   6.108  48.074  1.00  0.00     0.037 A 
HETATM   21  C19 UNL     1      27.866   4.908  48.680  1.00  0.00     0.016 A 
BRANCH  19  22
HETATM   22  O1  UNL     1      27.572   8.403  47.519  1.00  0.00    -0.352 OA
BRANCH  22  23
HETATM   23  C2  UNL     1      28.754   9.123  47.771  1.00  0.00     0.171 C 
HETATM   24  C1  UNL     1      28.822   9.561  49.242  1.00  0.00     0.034 C 
ENDBRANCH  22  23
ENDBRANCH  19  22
ENDBRANCH   1  16
TORSDOF 3
ENDMDL
MODEL 2
REMARK VINA RESULT:      -8.2      6.071      8.416
REMARK  3 active torsions:
REMARK  status: ('A' for Active; 'I' for Inactive)
REMARK    1  A    between atoms: C2_2  and  O1_3 
REMARK    2  A    between atoms: O1_3  and  C3_4 
REMARK    3  A    between atoms: C6_7  and  C7_8 
ROOT
HETATM    1  C7  UNL     1      21.762  -0.155  53.246  1.00  0.00     0.070 C 
HETATM    2  N1  UNL     1      20.956   0.522  52.593  1.00  0.00    -0.175 NA
HETATM    3  N2  UNL     1      19.610   0.202  52.600  1.00  0.00    -0.264 N 
HETATM    4  C8  UNL     1      18.785   1.113  51.872  1.00  0.00     0.229 C 
HETATM    5  S1  UNL     1      18.030   0.577  50.342  1.00  0.00    -0.120 SA
HETATM    6  C9  UNL     1      16.649  -0.486  50.520  1.00  0.00     0.043 C 
HETATM    7  C10 UNL     1      15.614  -1.228  50.781  1.00  0.00    -0.016 C 
HETATM    8  C11 UNL     1      14.480  -2.144  50.825  1.00  0.00     0.054 C 
HETATM    9  C12 UNL     1      14.646  -3.229  51.811  1.00  0.00    -0.023 C 
HETATM   10  C13 UNL     1      15.493  -3.622  52.693  1.00  0.00    -0.007 C 
HETATM   11  C14 UNL     1      16.675  -3.634  53.492  1.00  0.00     0.009 C 
HETATM   12  C15 UNL     1      17.688  -2.785  53.518  1.00  0.00     0.023 C 
HETATM   13  C16 UNL     1      18.856  -1.940  53.650  1.00  0.00     0.005 C 
HETATM   14  C17 UNL     1      19.654  -0.928  53.428  1.00  0.00     0.034 C 
HETATM   15  C18 UNL     1      20.957  -1.056  54.108  1.00  0.00     0.120 C 
ENDROOT
BRANCH   1  16
HETATM   16  C6  UNL     1      23.204  -0.158  53.481  1.00  0.00    -0.009 A 
HETATM   17  C5  UNL     1      23.570  -0.887  54.613  1.00  0.00     0.016 A 
HETATM   18  C4  UNL     1      24.933  -0.938  54.904  1.00  0.00     0.037 A 
HETATM   19  C3  UNL     1      25.915  -0.326  54.156  1.00  0.00     0.068 A 
HETATM   20  C20 UNL     1      25.471   0.372  53.055  1.00  0.00     0.037 A 
HETATM   21  C19 UNL     1      24.146   0.467  52.708  1.00  0.00     0.016 A 
BRANCH  19  22
HETATM   22  O1  UNL     1      27.246  -0.424  54.510  1.00  0.00    -0.352 OA
BRANCH  22  23
HETATM   23  C2  UNL     1      28.269  -0.581  53.559  1.00  0.00     0.171 C 
HETATM   24  C1  UNL     1      29.418   0.403  53.827  1.00  0.00     0.034 C 
ENDBRANCH  22  23
ENDBRANCH  19  22
ENDBRANCH   1  16
TORSDOF 3
ENDMDL
MODEL 3
REMARK VINA RESULT:      -8.1      2.406      3.305
REMARK  3 active torsions:
REMARK  status: ('A' for Active; 'I' for Inactive)
REMARK    1  A    between atoms: C2_2  and  O1_3 
REMARK    2  A    between atoms: O1_3  and  C3_4 
REMARK    3  A    between atoms: C6_7  and  C7_8 
ROOT
HETATM    1  C7  UNL     1      24.584   4.111  50.506  1.00  0.00     0.070 C 
HETATM    2  N1  UNL     1      23.350   4.218  50.539  1.00  0.00    -0.175 NA
HETATM    3  N2  UNL     1      22.609   3.456  51.425  1.00  0.00    -0.264 N 
HETATM    4  C8  UNL     1      21.208   3.739  51.414  1.00  0.00     0.229 C 
HETATM    5  S1  UNL     1      20.076   2.524  50.751  1.00  0.00    -0.120 SA
HETATM    6  C9  UNL     1      19.760   1.149  51.788  1.00  0.00     0.043 C 
HETATM    7  C10 UNL     1      19.571   0.205  52.662  1.00  0.00    -0.016 C 
HETATM    8  C11 UNL     1      19.274  -0.994  53.437  1.00  0.00     0.054 C 
HETATM    9  C12 UNL     1      20.465  -1.586  54.074  1.00  0.00    -0.023 C 
HETATM   10  C13 UNL     1      21.724  -1.358  54.186  1.00  0.00    -0.007 C 
HETATM   11  C14 UNL     1      22.979  -0.699  54.017  1.00  0.00     0.009 C 
HETATM   12  C15 UNL     1      23.267   0.420  53.375  1.00  0.00     0.023 C 
HETATM   13  C16 UNL     1      23.724   1.623  52.711  1.00  0.00     0.005 C 
HETATM   14  C17 UNL     1      23.649   2.731  52.022  1.00  0.00     0.034 C 
HETATM   15  C18 UNL     1      24.970   3.294  51.684  1.00  0.00     0.120 C 
ENDROOT
BRANCH   1  16
HETATM   16  C6  UNL     1      25.682   4.696  49.741  1.00  0.00    -0.009 A 
HETATM   17  C5  UNL     1      25.477   6.042  49.436  1.00  0.00     0.016 A 
HETATM   18  C4  UNL     1      26.483   6.674  48.706  1.00  0.00     0.037 A 
HETATM   19  C3  UNL     1      27.641   6.061  48.280  1.00  0.00     0.068 A 
HETATM   20  C20 UNL     1      27.768   4.733  48.623  1.00  0.00     0.037 A 
HETATM   21  C19 UNL     1      26.818   4.046  49.338  1.00  0.00     0.016 A 
BRANCH  19  22
HETATM   22  O1  UNL     1      28.593   6.756  47.561  1.00  0.00    -0.352 OA
BRANCH  22  23
HETATM   23  C2  UNL     1      29.914   6.916  48.016  1.00  0.00     0.171 C 
HETATM   24  C1  UNL     1      30.045   8.184  48.872  1.00  0.00     0.034 C 
ENDBRANCH  22  23
ENDBRANCH  19  22
ENDBRANCH   1  16
TORSDOF 3
ENDMDL
MODEL 4
REMARK VINA RESULT:      -8.1      3.398      9.331
REMARK  3 active torsions:
REMARK  status: ('A' for Active; 'I' for Inactive)
REMARK    1  A    between atoms: C2_2  and  O1_3 
REMARK    2  A    between atoms: O1_3  and  C3_4 
REMARK    3  A    between atoms: C6_7  and  C7_8 
ROOT
HETATM    1  C7  UNL     1      25.194   4.245  50.327  1.00  0.00     0.070 C 
HETATM    2  N1  UNL     1      25.077   5.473  50.204  1.00  0.00    -0.175 NA
HETATM    3  N2  UNL     1      25.982   6.185  49.437  1.00  0.00    -0.264 N 
HETATM    4  C8  UNL     1      25.682   7.576  49.315  1.00  0.00     0.229 C 
HETATM    5  S1  UNL     1      26.733   8.772  50.130  1.00  0.00    -0.120 SA
HETATM    6  C9  UNL     1      28.275   9.067  49.355  1.00  0.00     0.043 C 
HETATM    7  C10 UNL     1      29.365   9.232  48.665  1.00  0.00    -0.016 C 
HETATM    8  C11 UNL     1      30.684   9.518  48.114  1.00  0.00     0.054 C 
HETATM    9  C12 UNL     1      31.404   8.309  47.669  1.00  0.00    -0.023 C 
HETATM   10  C13 UNL     1      31.219   7.041  47.588  1.00  0.00    -0.007 C 
HETATM   11  C14 UNL     1      30.558   5.781  47.700  1.00  0.00     0.009 C 
HETATM   12  C15 UNL     1      29.342   5.499  48.135  1.00  0.00     0.023 C 
HETATM   13  C16 UNL     1      28.042   5.049  48.585  1.00  0.00     0.005 C 
HETATM   14  C17 UNL     1      26.821   5.132  49.048  1.00  0.00     0.034 C 
HETATM   15  C18 UNL     1      26.224   3.817  49.348  1.00  0.00     0.120 C 
ENDROOT
BRANCH   1  16
HETATM   16  C6  UNL     1      24.489   3.175  51.029  1.00  0.00    -0.009 A 
HETATM   17  C5  UNL     1      23.499   2.573  50.252  1.00  0.00     0.016 A 
HETATM   18  C4  UNL     1      22.781   1.540  50.854  1.00  0.00     0.037 A 
HETATM   19  C3  UNL     1      22.989   1.089  52.139  1.00  0.00     0.068 A 
HETATM   20  C20 UNL     1      23.986   1.734  52.838  1.00  0.00     0.037 A 
HETATM   21  C19 UNL     1      24.731   2.760  52.312  1.00  0.00     0.016 A 
BRANCH  19  22
HETATM   22  O1  UNL     1      22.236   0.058  52.664  1.00  0.00    -0.352 OA
BRANCH  22  23
HETATM   23  C2  UNL     1      21.526   0.182  53.871  1.00  0.00     0.171 C 
HETATM   24  C1  UNL     1      21.972  -0.889  54.878  1.00  0.00     0.034 C 
ENDBRANCH  22  23
ENDBRANCH  19  22
ENDBRANCH   1  16
TORSDOF 3
ENDMDL
MODEL 5
REMARK VINA RESULT:      -7.6      2.150      2.943
REMARK  3 active torsions:
REMARK  status: ('A' for Active; 'I' for Inactive)
REMARK    1  A    between atoms: C2_2  and  O1_3 
REMARK    2  A    between atoms: O1_3  and  C3_4 
REMARK    3  A    between atoms: C6_7  and  C7_8 
ROOT
HETATM    1  C7  UNL     1      24.710   3.362  49.938  1.00  0.00     0.070 C 
HETATM    2  N1  UNL     1      24.771   2.550  50.872  1.00  0.00    -0.175 NA
HETATM    3  N2  UNL     1      23.759   1.626  51.059  1.00  0.00    -0.264 N 
HETATM    4  C8  UNL     1      23.997   0.699  52.120  1.00  0.00     0.229 C 
HETATM    5  S1  UNL     1      23.013   0.804  53.610  1.00  0.00    -0.120 SA
HETATM    6  C9  UNL     1      21.381   0.184  53.475  1.00  0.00     0.043 C 
HETATM    7  C10 UNL     1      20.212  -0.345  53.264  1.00  0.00    -0.016 C 
HETATM    8  C11 UNL     1      18.828  -0.802  53.240  1.00  0.00     0.054 C 
HETATM    9  C12 UNL     1      18.099  -0.393  52.024  1.00  0.00    -0.023 C 
HETATM   10  C13 UNL     1      18.314   0.241  50.928  1.00  0.00    -0.007 C 
HETATM   11  C14 UNL     1      19.024   0.973  49.929  1.00  0.00     0.009 C 
HETATM   12  C15 UNL     1      20.291   1.346  49.895  1.00  0.00     0.023 C 
HETATM   13  C16 UNL     1      21.650   1.818  49.727  1.00  0.00     0.005 C 
HETATM   14  C17 UNL     1      22.913   2.005  50.008  1.00  0.00     0.034 C 
HETATM   15  C18 UNL     1      23.584   2.928  49.073  1.00  0.00     0.120 C 
ENDROOT
BRANCH   1  16
HETATM   16  C6  UNL     1      25.527   4.461  49.429  1.00  0.00    -0.009 A 
HETATM   17  C5  UNL     1      26.839   4.079  49.148  1.00  0.00     0.016 A 
HETATM   18  C4  UNL     1      27.683   5.075  48.656  1.00  0.00     0.037 A 
HETATM   19  C3  UNL     1      27.304   6.381  48.436  1.00  0.00     0.068 A 
HETATM   20  C20 UNL     1      25.993   6.675  48.737  1.00  0.00     0.037 A 
HETATM   21  C19 UNL     1      25.106   5.748  49.226  1.00  0.00     0.016 A 
BRANCH  19  22
HETATM   22  O1  UNL     1      28.200   7.310  47.945  1.00  0.00    -0.352 OA
BRANCH  22  23
HETATM   23  C2  UNL     1      29.461   7.524  48.530  1.00  0.00     0.171 C 
HETATM   24  C1  UNL     1      29.575   8.958  49.068  1.00  0.00     0.034 C 
ENDBRANCH  22  23
ENDBRANCH  19  22
ENDBRANCH   1  16
TORSDOF 3
ENDMDL
MODEL 6
REMARK VINA RESULT:      -7.6      3.514      9.226
REMARK  3 active torsions:
REMARK  status: ('A' for Active; 'I' for Inactive)
REMARK    1  A    between atoms: C2_2  and  O1_3 
REMARK    2  A    between atoms: O1_3  and  C3_4 
REMARK    3  A    between atoms: C6_7  and  C7_8 
ROOT
HETATM    1  C7  UNL     1      24.452   3.094  50.500  1.00  0.00     0.070 C 
HETATM    2  N1  UNL     1      23.945   4.117  50.020  1.00  0.00    -0.175 NA
HETATM    3  N2  UNL     1      24.682   4.929  49.177  1.00  0.00    -0.264 N 
HETATM    4  C8  UNL     1      23.950   6.029  48.632  1.00  0.00     0.229 C 
HETATM    5  S1  UNL     1      24.335   7.690  49.173  1.00  0.00    -0.120 SA
HETATM    6  C9  UNL     1      25.803   8.374  48.505  1.00  0.00     0.043 C 
HETATM    7  C10 UNL     1      26.883   8.787  47.911  1.00  0.00    -0.016 C 
HETATM    8  C11 UNL     1      28.104   9.428  47.437  1.00  0.00     0.054 C 
HETATM    9  C12 UNL     1      29.271   8.526  47.431  1.00  0.00    -0.023 C 
HETATM   10  C13 UNL     1      29.557   7.302  47.698  1.00  0.00    -0.007 C 
HETATM   11  C14 UNL     1      29.365   5.946  48.099  1.00  0.00     0.009 C 
HETATM   12  C15 UNL     1      28.261   5.322  48.471  1.00  0.00     0.023 C 
HETATM   13  C16 UNL     1      27.134   4.519  48.898  1.00  0.00     0.005 C 
HETATM   14  C17 UNL     1      25.894   4.226  49.192  1.00  0.00     0.034 C 
HETATM   15  C18 UNL     1      25.741   2.888  49.793  1.00  0.00     0.120 C 
ENDROOT
BRANCH   1  16
HETATM   16  C6  UNL     1      24.036   2.024  51.404  1.00  0.00    -0.009 A 
HETATM   17  C5  UNL     1      22.802   1.469  51.061  1.00  0.00     0.016 A 
HETATM   18  C4  UNL     1      22.336   0.440  51.877  1.00  0.00     0.037 A 
HETATM   19  C3  UNL     1      23.007  -0.050  52.977  1.00  0.00     0.068 A 
HETATM   20  C20 UNL     1      24.218   0.550  53.246  1.00  0.00     0.037 A 
HETATM   21  C19 UNL     1      24.738   1.569  52.488  1.00  0.00     0.016 A 
BRANCH  19  22
HETATM   22  O1  UNL     1      22.479  -1.075  53.737  1.00  0.00    -0.352 OA
BRANCH  22  23
HETATM   23  C2  UNL     1      21.168  -1.038  54.245  1.00  0.00     0.171 C 
HETATM   24  C1  UNL     1      20.836   0.357  54.795  1.00  0.00     0.034 C 
ENDBRANCH  22  23
ENDBRANCH  19  22
ENDBRANCH   1  16
TORSDOF 3
ENDMDL
MODEL 7
REMARK VINA RESULT:      -7.5      5.757      8.479
REMARK  3 active torsions:
REMARK  status: ('A' for Active; 'I' for Inactive)
REMARK    1  A    between atoms: C2_2  and  O1_3 
REMARK    2  A    between atoms: O1_3  and  C3_4 
REMARK    3  A    between atoms: C6_7  and  C7_8 
ROOT
HETATM    1  C7  UNL     1      20.210   0.378  52.443  1.00  0.00     0.070 C 
HETATM    2  N1  UNL     1      19.125   0.673  51.923  1.00  0.00    -0.175 NA
HETATM    3  N2  UNL     1      17.992  -0.067  52.209  1.00  0.00    -0.264 N 
HETATM    4  C8  UNL     1      16.796   0.431  51.607  1.00  0.00     0.229 C 
HETATM    5  S1  UNL     1      16.030  -0.499  50.284  1.00  0.00    -0.120 SA
HETATM    6  C9  UNL     1      15.147  -1.926  50.785  1.00  0.00     0.043 C 
HETATM    7  C10 UNL     1      14.488  -2.930  51.283  1.00  0.00    -0.016 C 
HETATM    8  C11 UNL     1      13.761  -4.155  51.597  1.00  0.00     0.054 C 
HETATM    9  C12 UNL     1      14.449  -5.001  52.591  1.00  0.00    -0.023 C 
HETATM   10  C13 UNL     1      15.512  -4.990  53.310  1.00  0.00    -0.007 C 
HETATM   11  C14 UNL     1      16.741  -4.520  53.864  1.00  0.00     0.009 C 
HETATM   12  C15 UNL     1      17.390  -3.389  53.646  1.00  0.00     0.023 C 
HETATM   13  C16 UNL     1      18.202  -2.199  53.502  1.00  0.00     0.005 C 
HETATM   14  C17 UNL     1      18.556  -1.015  53.074  1.00  0.00     0.034 C 
HETATM   15  C18 UNL     1      19.917  -0.629  53.493  1.00  0.00     0.120 C 
ENDROOT
BRANCH   1  16
HETATM   16  C6  UNL     1      21.583   0.875  52.393  1.00  0.00    -0.009 A 
HETATM   17  C5  UNL     1      22.428   0.233  53.299  1.00  0.00     0.016 A 
HETATM   18  C4  UNL     1      23.758   0.652  53.311  1.00  0.00     0.037 A 
HETATM   19  C3  UNL     1      24.273   1.638  52.498  1.00  0.00     0.068 A 
HETATM   20  C20 UNL     1      23.375   2.220  51.632  1.00  0.00     0.037 A 
HETATM   21  C19 UNL     1      22.051   1.861  51.566  1.00  0.00     0.016 A 
BRANCH  19  22
HETATM   22  O1  UNL     1      25.605   1.996  52.569  1.00  0.00    -0.352 OA
BRANCH  22  23
HETATM   23  C2  UNL     1      26.425   1.639  53.654  1.00  0.00     0.171 C 
HETATM   24  C1  UNL     1      27.849   2.182  53.462  1.00  0.00     0.034 C 
ENDBRANCH  22  23
ENDBRANCH  19  22
ENDBRANCH   1  16
TORSDOF 3
ENDMDL
MODEL 8
REMARK VINA RESULT:      -7.3      5.486      9.680
REMARK  3 active torsions:
REMARK  status: ('A' for Active; 'I' for Inactive)
REMARK    1  A    between atoms: C2_2  and  O1_3 
REMARK    2  A    between atoms: O1_3  and  C3_4 
REMARK    3  A    between atoms: C6_7  and  C7_8 
ROOT
HETATM    1  C7  UNL     1      19.225  -0.105  52.334  1.00  0.00     0.070 C 
HETATM    2  N1  UNL     1      19.785  -0.402  53.398  1.00  0.00    -0.175 NA
HETATM    3  N2  UNL     1      21.058   0.068  53.670  1.00  0.00    -0.264 N 
HETATM    4  C8  UNL     1      21.550  -0.283  54.965  1.00  0.00     0.229 C 
HETATM    5  S1  UNL     1      22.882  -1.467  55.103  1.00  0.00    -0.120 SA
HETATM    6  C9  UNL     1      24.473  -0.857  54.696  1.00  0.00     0.043 C 
HETATM    7  C10 UNL     1      25.602  -0.277  54.415  1.00  0.00    -0.016 C 
HETATM    8  C11 UNL     1      26.958   0.128  54.063  1.00  0.00     0.054 C 
HETATM    9  C12 UNL     1      27.022   0.945  52.836  1.00  0.00    -0.023 C 
HETATM   10  C13 UNL     1      26.230   1.453  51.962  1.00  0.00    -0.007 C 
HETATM   11  C14 UNL     1      25.006   1.780  51.304  1.00  0.00     0.009 C 
HETATM   12  C15 UNL     1      23.762   1.482  51.633  1.00  0.00     0.023 C 
HETATM   13  C16 UNL     1      22.357   1.227  51.873  1.00  0.00     0.005 C 
HETATM   14  C17 UNL     1      21.291   0.779  52.485  1.00  0.00     0.034 C 
HETATM   15  C18 UNL     1      20.056   0.948  51.697  1.00  0.00     0.120 C 
ENDROOT
BRANCH   1  16
HETATM   16  C6  UNL     1      17.948  -0.396  51.687  1.00  0.00    -0.009 A 
HETATM   17  C5  UNL     1      17.857   0.133  50.399  1.00  0.00     0.016 A 
HETATM   18  C4  UNL     1      16.665  -0.103  49.714  1.00  0.00     0.037 A 
HETATM   19  C3  UNL     1      15.599  -0.813  50.223  1.00  0.00     0.068 A 
HETATM   20  C20 UNL     1      15.770  -1.303  51.499  1.00  0.00     0.037 A 
HETATM   21  C19 UNL     1      16.914  -1.108  52.233  1.00  0.00     0.016 A 
BRANCH  19  22
HETATM   22  O1  UNL     1      14.451  -1.005  49.480  1.00  0.00    -0.352 OA
BRANCH  22  23
HETATM   23  C2  UNL     1      14.478  -1.497  48.163  1.00  0.00     0.171 C 
HETATM   24  C1  UNL     1      14.985  -2.946  48.133  1.00  0.00     0.034 C 
ENDBRANCH  22  23
ENDBRANCH  19  22
ENDBRANCH   1  16
TORSDOF 3
ENDMDL
MODEL 9
REMARK VINA RESULT:      -7.2      4.430      8.249
REMARK  3 active torsions:
REMARK  status: ('A' for Active; 'I' for Inactive)
REMARK    1  A    between atoms: C2_2  and  O1_3 
REMARK    2  A    between atoms: O1_3  and  C3_4 
REMARK    3  A    between atoms: C6_7  and  C7_8 
ROOT
HETATM    1  C7  UNL     1      23.785   2.092  51.102  1.00  0.00     0.070 C 
HETATM    2  N1  UNL     1      22.562   2.217  50.948  1.00  0.00    -0.175 NA
HETATM    3  N2  UNL     1      22.067   3.096  50.002  1.00  0.00    -0.264 N 
HETATM    4  C8  UNL     1      20.644   3.080  49.873  1.00  0.00     0.229 C 
HETATM    5  S1  UNL     1      19.700   4.492  50.435  1.00  0.00    -0.120 SA
HETATM    6  C9  UNL     1      19.750   5.893  49.385  1.00  0.00     0.043 C 
HETATM    7  C10 UNL     1      19.827   6.848  48.505  1.00  0.00    -0.016 C 
HETATM    8  C11 UNL     1      19.836   8.074  47.717  1.00  0.00     0.054 C 
HETATM    9  C12 UNL     1      21.174   8.427  47.204  1.00  0.00    -0.023 C 
HETATM   10  C13 UNL     1      22.373   7.966  47.213  1.00  0.00    -0.007 C 
HETATM   11  C14 UNL     1      23.460   7.085  47.497  1.00  0.00     0.009 C 
HETATM   12  C15 UNL     1      23.469   5.938  48.153  1.00  0.00     0.023 C 
HETATM   13  C16 UNL     1      23.625   4.676  48.847  1.00  0.00     0.005 C 
HETATM   14  C17 UNL     1      23.278   3.608  49.516  1.00  0.00     0.034 C 
HETATM   15  C18 UNL     1      24.431   2.810  49.975  1.00  0.00     0.120 C 
ENDROOT
BRANCH   1  16
HETATM   16  C6  UNL     1      24.674   1.317  51.965  1.00  0.00    -0.009 A 
HETATM   17  C5  UNL     1      26.022   1.473  51.639  1.00  0.00     0.016 A 
HETATM   18  C4  UNL     1      26.935   0.765  52.419  1.00  0.00     0.037 A 
HETATM   19  C3  UNL     1      26.592  -0.058  53.470  1.00  0.00     0.068 A 
HETATM   20  C20 UNL     1      25.242  -0.155  53.729  1.00  0.00     0.037 A 
HETATM   21  C19 UNL     1      24.287   0.510  53.001  1.00  0.00     0.016 A 
BRANCH  19  22
HETATM   22  O1  UNL     1      27.557  -0.726  54.198  1.00  0.00    -0.352 OA
BRANCH  22  23
HETATM   23  C2  UNL     1      28.828  -0.177  54.446  1.00  0.00     0.171 C 
HETATM   24  C1  UNL     1      29.914  -0.957  53.692  1.00  0.00     0.034 C 
ENDBRANCH  22  23
ENDBRANCH  19  22
ENDBRANCH   1  16
TORSDOF 3
ENDMDL
