MODEL 1
REMARK VINA RESULT:      -7.9      0.000      0.000
REMARK  4 active torsions:
REMARK  status: ('A' for Active; 'I' for Inactive)
REMARK    1  A    between atoms: C2_2  and  C3_3 
REMARK    2  A    between atoms: C4_4  and  C5_5 
REMARK    3  A    between atoms: C7_8  and  N2_9 
REMARK    4  A    between atoms: C8_11  and  N4_12 
ROOT
HETATM    1  C5  UNL     1      24.850   0.492  53.331  1.00  0.00     0.030 A 
HETATM    2  C6  UNL     1      25.239  -0.472  54.231  1.00  0.00     0.151 A 
HETATM    3  N1  UNL     1      26.457  -0.471  54.820  1.00  0.00    -0.074 NA
HETATM    4  C7  UNL     1      27.364   0.485  54.552  1.00  0.00     0.722 A 
HETATM    5  N3  UNL     1      27.021   1.446  53.676  1.00  0.00    -0.043 NA
HETATM    6  C8  UNL     1      25.811   1.442  53.093  1.00  0.00     0.179 A 
ENDROOT
BRANCH   6   7
HETATM    7  N4  UNL     1      25.563   2.477  52.195  1.00  0.00    -0.252 N 
HETATM    8  C9  UNL     1      26.322   2.658  50.959  1.00  0.00     0.101 A 
HETATM    9  C10 UNL     1      26.559   3.351  49.841  1.00  0.00     0.061 A 
HETATM   10  C11 UNL     1      25.987   4.581  49.200  1.00  0.00    -0.020 A 
HETATM   11  C12 UNL     1      25.164   5.650  49.083  1.00  0.00    -0.026 A 
HETATM   12  C13 UNL     1      24.061   6.208  49.921  1.00  0.00     0.055 A 
HETATM   13  C14 UNL     1      23.738   5.471  51.123  1.00  0.00    -0.004 A 
HETATM   14  C15 UNL     1      23.761   4.562  52.085  1.00  0.00     0.104 A 
HETATM   15  N5  UNL     1      24.660   3.504  52.130  1.00  0.00    -0.305 N 
HETATM   16  H19 UNL     1      25.297   3.954  52.871  1.00  0.00     0.186 HD
ENDBRANCH   6   7
BRANCH   1  17
HETATM   17  C4  UNL     1      23.565   0.556  52.700  1.00  0.00     0.013 C 
HETATM   18  C3  UNL     1      22.336   0.374  53.136  1.00  0.00    -0.026 C 
BRANCH  18  19
HETATM   19  C2  UNL     1      21.464   0.050  54.273  1.00  0.00     0.022 C 
HETATM   20  C1  UNL     1      21.575  -1.447  54.581  1.00  0.00     0.009 C 
ENDBRANCH  18  19
ENDBRANCH   1  17
BRANCH   4  21
HETATM   21  N2  UNL     1      28.633   0.482  55.168  1.00  0.00    -0.231 N 
HETATM   22  H9  UNL     1      29.430  -0.186  55.009  1.00  0.00     0.174 HD
HETATM   23  H10 UNL     1      28.631   1.275  55.817  1.00  0.00     0.174 HD
ENDBRANCH   4  21
TORSDOF 4
ENDMDL
MODEL 2
REMARK VINA RESULT:      -7.5      2.266      5.248
REMARK  4 active torsions:
REMARK  status: ('A' for Active; 'I' for Inactive)
REMARK    1  A    between atoms: C2_2  and  C3_3 
REMARK    2  A    between atoms: C4_4  and  C5_5 
REMARK    3  A    between atoms: C7_8  and  N2_9 
REMARK    4  A    between atoms: C8_11  and  N4_12 
ROOT
HETATM    1  C5  UNL     1      23.429   1.408  52.647  1.00  0.00     0.030 A 
HETATM    2  C6  UNL     1      22.338   2.222  52.453  1.00  0.00     0.151 A 
HETATM    3  N1  UNL     1      22.439   3.567  52.354  1.00  0.00    -0.074 NA
HETATM    4  C7  UNL     1      23.629   4.189  52.443  1.00  0.00     0.722 A 
HETATM    5  N3  UNL     1      24.720   3.427  52.632  1.00  0.00    -0.043 NA
HETATM    6  C8  UNL     1      24.616   2.091  52.730  1.00  0.00     0.179 A 
ENDROOT
BRANCH   6   7
HETATM    7  N4  UNL     1      25.808   1.400  52.936  1.00  0.00    -0.252 N 
HETATM    8  C9  UNL     1      27.040   2.051  53.379  1.00  0.00     0.101 A 
HETATM    9  C10 UNL     1      28.333   1.972  53.704  1.00  0.00     0.061 A 
HETATM   10  C11 UNL     1      29.358   0.879  53.771  1.00  0.00    -0.020 A 
HETATM   11  C12 UNL     1      29.832  -0.385  53.662  1.00  0.00    -0.026 A 
HETATM   12  C13 UNL     1      29.224  -1.691  53.268  1.00  0.00     0.055 A 
HETATM   13  C14 UNL     1      27.814  -1.668  52.946  1.00  0.00    -0.004 A 
HETATM   14  C15 UNL     1      26.581  -1.239  52.730  1.00  0.00     0.104 A 
HETATM   15  N5  UNL     1      26.191   0.088  52.850  1.00  0.00    -0.305 N 
HETATM   16  H19 UNL     1      26.185   0.280  51.790  1.00  0.00     0.186 HD
ENDBRANCH   6   7
BRANCH   1  17
HETATM   17  C4  UNL     1      23.384  -0.022  52.729  1.00  0.00     0.013 C 
HETATM   18  C3  UNL     1      22.667  -0.862  53.445  1.00  0.00    -0.026 C 
BRANCH  18  19
HETATM   19  C2  UNL     1      21.622  -1.038  54.463  1.00  0.00     0.022 C 
HETATM   20  C1  UNL     1      20.274  -0.601  53.880  1.00  0.00     0.009 C 
ENDBRANCH  18  19
ENDBRANCH   1  17
BRANCH   4  21
HETATM   21  N2  UNL     1      23.729   5.592  52.340  1.00  0.00    -0.231 N 
HETATM   22  H9  UNL     1      24.593   6.188  52.408  1.00  0.00     0.174 HD
HETATM   23  H10 UNL     1      22.775   5.929  52.183  1.00  0.00     0.174 HD
ENDBRANCH   4  21
TORSDOF 4
ENDMDL
MODEL 3
REMARK VINA RESULT:      -7.5      2.576      6.092
REMARK  4 active torsions:
REMARK  status: ('A' for Active; 'I' for Inactive)
REMARK    1  A    between atoms: C2_2  and  C3_3 
REMARK    2  A    between atoms: C4_4  and  C5_5 
REMARK    3  A    between atoms: C7_8  and  N2_9 
REMARK    4  A    between atoms: C8_11  and  N4_12 
ROOT
HETATM    1  C5  UNL     1      23.335   0.874  52.319  1.00  0.00     0.030 A 
HETATM    2  C6  UNL     1      21.967   0.993  52.245  1.00  0.00     0.151 A 
HETATM    3  N1  UNL     1      21.127   0.218  52.969  1.00  0.00    -0.074 NA
HETATM    4  C7  UNL     1      21.591  -0.724  53.810  1.00  0.00     0.722 A 
HETATM    5  N3  UNL     1      22.924  -0.871  53.910  1.00  0.00    -0.043 NA
HETATM    6  C8  UNL     1      23.755  -0.099  53.190  1.00  0.00     0.179 A 
ENDROOT
BRANCH   6   7
HETATM    7  N4  UNL     1      25.116  -0.343  53.363  1.00  0.00    -0.252 N 
HETATM    8  C9  UNL     1      25.978   0.502  54.188  1.00  0.00     0.101 A 
HETATM    9  C10 UNL     1      27.187   0.782  54.682  1.00  0.00     0.061 A 
HETATM   10  C11 UNL     1      28.557   0.181  54.570  1.00  0.00    -0.020 A 
HETATM   11  C12 UNL     1      29.493  -0.703  54.148  1.00  0.00    -0.026 A 
HETATM   12  C13 UNL     1      29.461  -1.907  53.266  1.00  0.00     0.055 A 
HETATM   13  C14 UNL     1      28.166  -2.277  52.738  1.00  0.00    -0.004 A 
HETATM   14  C15 UNL     1      26.871  -2.271  52.466  1.00  0.00     0.104 A 
HETATM   15  N5  UNL     1      25.987  -1.307  52.932  1.00  0.00    -0.305 N 
HETATM   16  H19 UNL     1      25.939  -0.767  52.002  1.00  0.00     0.186 HD
ENDBRANCH   6   7
BRANCH   1  17
HETATM   17  C4  UNL     1      24.270   1.686  51.599  1.00  0.00     0.013 C 
HETATM   18  C3  UNL     1      24.276   2.952  51.240  1.00  0.00    -0.026 C 
BRANCH  18  19
HETATM   19  C2  UNL     1      23.571   4.241  51.246  1.00  0.00     0.022 C 
HETATM   20  C1  UNL     1      23.411   4.720  52.693  1.00  0.00     0.009 C 
ENDBRANCH  18  19
ENDBRANCH   1  17
BRANCH   4  21
HETATM   21  N2  UNL     1      20.712  -1.530  54.562  1.00  0.00    -0.231 N 
HETATM   22  H9  UNL     1      19.828  -2.002  54.241  1.00  0.00     0.174 HD
HETATM   23  H10 UNL     1      21.107  -1.569  55.506  1.00  0.00     0.174 HD
ENDBRANCH   4  21
TORSDOF 4
ENDMDL
MODEL 4
REMARK VINA RESULT:      -7.4      2.135      5.384
REMARK  4 active torsions:
REMARK  status: ('A' for Active; 'I' for Inactive)
REMARK    1  A    between atoms: C2_2  and  C3_3 
REMARK    2  A    between atoms: C4_4  and  C5_5 
REMARK    3  A    between atoms: C7_8  and  N2_9 
REMARK    4  A    between atoms: C8_11  and  N4_12 
ROOT
HETATM    1  C5  UNL     1      26.503   0.798  53.240  1.00  0.00     0.030 A 
HETATM    2  C6  UNL     1      27.867   0.629  53.202  1.00  0.00     0.151 A 
HETATM    3  N1  UNL     1      28.450  -0.591  53.141  1.00  0.00    -0.074 NA
HETATM    4  C7  UNL     1      27.716  -1.718  53.115  1.00  0.00     0.722 A 
HETATM    5  N3  UNL     1      26.378  -1.594  53.150  1.00  0.00    -0.043 NA
HETATM    6  C8  UNL     1      25.802  -0.381  53.211  1.00  0.00     0.179 A 
ENDROOT
BRANCH   6   7
HETATM    7  N4  UNL     1      24.410  -0.369  53.253  1.00  0.00    -0.252 N 
HETATM    8  C9  UNL     1      23.642  -0.937  54.359  1.00  0.00     0.101 A 
HETATM    9  C10 UNL     1      22.462  -1.219  54.919  1.00  0.00     0.061 A 
HETATM   10  C11 UNL     1      21.023  -1.014  54.550  1.00  0.00    -0.020 A 
HETATM   11  C12 UNL     1      19.986  -0.604  53.781  1.00  0.00    -0.026 A 
HETATM   12  C13 UNL     1      19.882   0.090  52.462  1.00  0.00     0.055 A 
HETATM   13  C14 UNL     1      21.132   0.453  51.832  1.00  0.00    -0.004 A 
HETATM   14  C15 UNL     1      22.427   0.595  51.596  1.00  0.00     0.104 A 
HETATM   15  N5  UNL     1      23.423   0.122  52.441  1.00  0.00    -0.305 N 
HETATM   16  H19 UNL     1      23.654  -0.740  51.839  1.00  0.00     0.186 HD
ENDBRANCH   6   7
BRANCH   1  17
HETATM   17  C4  UNL     1      25.833   2.064  53.275  1.00  0.00     0.013 C 
HETATM   18  C3  UNL     1      25.356   2.858  52.340  1.00  0.00    -0.026 C 
BRANCH  18  19
HETATM   19  C2  UNL     1      25.149   3.091  50.905  1.00  0.00     0.022 C 
HETATM   20  C1  UNL     1      26.496   2.990  50.179  1.00  0.00     0.009 C 
ENDBRANCH  18  19
ENDBRANCH   1  17
BRANCH   4  21
HETATM   21  N2  UNL     1      28.328  -2.987  53.052  1.00  0.00    -0.231 N 
HETATM   22  H9  UNL     1      27.985  -3.850  52.559  1.00  0.00     0.174 HD
HETATM   23  H10 UNL     1      29.194  -2.906  53.594  1.00  0.00     0.174 HD
ENDBRANCH   4  21
TORSDOF 4
ENDMDL
MODEL 5
REMARK VINA RESULT:      -7.4      2.706      5.698
REMARK  4 active torsions:
REMARK  status: ('A' for Active; 'I' for Inactive)
REMARK    1  A    between atoms: C2_2  and  C3_3 
REMARK    2  A    between atoms: C4_4  and  C5_5 
REMARK    3  A    between atoms: C7_8  and  N2_9 
REMARK    4  A    between atoms: C8_11  and  N4_12 
ROOT
HETATM    1  C5  UNL     1      23.384   1.367  52.038  1.00  0.00     0.030 A 
HETATM    2  C6  UNL     1      22.013   1.479  52.048  1.00  0.00     0.151 A 
HETATM    3  N1  UNL     1      21.233   0.801  52.922  1.00  0.00    -0.074 NA
HETATM    4  C7  UNL     1      21.764  -0.029  53.838  1.00  0.00     0.722 A 
HETATM    5  N3  UNL     1      23.101  -0.165  53.859  1.00  0.00    -0.043 NA
HETATM    6  C8  UNL     1      23.873   0.510  52.990  1.00  0.00     0.179 A 
ENDROOT
BRANCH   6   7
HETATM    7  N4  UNL     1      25.244   0.287  53.093  1.00  0.00    -0.252 N 
HETATM    8  C9  UNL     1      25.859  -1.019  52.861  1.00  0.00     0.101 A 
HETATM    9  C10 UNL     1      26.950  -1.789  52.819  1.00  0.00     0.061 A 
HETATM   10  C11 UNL     1      28.417  -1.585  53.056  1.00  0.00    -0.020 A 
HETATM   11  C12 UNL     1      29.539  -0.892  53.365  1.00  0.00    -0.026 A 
HETATM   12  C13 UNL     1      29.813   0.530  53.732  1.00  0.00     0.055 A 
HETATM   13  C14 UNL     1      28.669   1.415  53.753  1.00  0.00    -0.004 A 
HETATM   14  C15 UNL     1      27.428   1.868  53.673  1.00  0.00     0.104 A 
HETATM   15  N5  UNL     1      26.332   1.073  53.365  1.00  0.00    -0.305 N 
HETATM   16  H19 UNL     1      25.983   0.997  54.381  1.00  0.00     0.186 HD
ENDBRANCH   6   7
BRANCH   1  17
HETATM   17  C4  UNL     1      24.259   2.082  51.156  1.00  0.00     0.013 C 
HETATM   18  C3  UNL     1      24.055   2.827  50.090  1.00  0.00    -0.026 C 
BRANCH  18  19
HETATM   19  C2  UNL     1      23.080   3.404  49.156  1.00  0.00     0.022 C 
HETATM   20  C1  UNL     1      22.575   2.307  48.213  1.00  0.00     0.009 C 
ENDBRANCH  18  19
ENDBRANCH   1  17
BRANCH   4  21
HETATM   21  N2  UNL     1      20.946  -0.733  54.745  1.00  0.00    -0.231 N 
HETATM   22  H9  UNL     1      20.278  -1.520  54.543  1.00  0.00     0.174 HD
HETATM   23  H10 UNL     1      21.132  -0.322  55.666  1.00  0.00     0.174 HD
ENDBRANCH   4  21
TORSDOF 4
ENDMDL
MODEL 6
REMARK VINA RESULT:      -7.2      2.412      5.540
REMARK  4 active torsions:
REMARK  status: ('A' for Active; 'I' for Inactive)
REMARK    1  A    between atoms: C2_2  and  C3_3 
REMARK    2  A    between atoms: C4_4  and  C5_5 
REMARK    3  A    between atoms: C7_8  and  N2_9 
REMARK    4  A    between atoms: C8_11  and  N4_12 
ROOT
HETATM    1  C5  UNL     1      25.702   1.014  52.035  1.00  0.00     0.030 A 
HETATM    2  C6  UNL     1      26.917   1.607  51.781  1.00  0.00     0.151 A 
HETATM    3  N1  UNL     1      27.029   2.812  51.177  1.00  0.00    -0.074 NA
HETATM    4  C7  UNL     1      25.943   3.503  50.785  1.00  0.00     0.722 A 
HETATM    5  N3  UNL     1      24.737   2.957  51.016  1.00  0.00    -0.043 NA
HETATM    6  C8  UNL     1      24.629   1.760  51.617  1.00  0.00     0.179 A 
ENDROOT
BRANCH   6   7
HETATM    7  N4  UNL     1      23.333   1.283  51.797  1.00  0.00    -0.252 N 
HETATM    8  C9  UNL     1      22.337   1.257  50.727  1.00  0.00     0.101 A 
HETATM    9  C10 UNL     1      21.098   0.980  50.311  1.00  0.00     0.061 A 
HETATM   10  C11 UNL     1      19.855   0.422  50.938  1.00  0.00    -0.020 A 
HETATM   11  C12 UNL     1      19.088  -0.086  51.932  1.00  0.00    -0.026 A 
HETATM   12  C13 UNL     1      19.330  -0.403  53.371  1.00  0.00     0.055 A 
HETATM   13  C14 UNL     1      20.669  -0.159  53.862  1.00  0.00    -0.004 A 
HETATM   14  C15 UNL     1      21.942   0.198  53.917  1.00  0.00     0.104 A 
HETATM   15  N5  UNL     1      22.644   0.729  52.843  1.00  0.00    -0.305 N 
HETATM   16  H19 UNL     1      22.595   1.746  53.194  1.00  0.00     0.186 HD
ENDBRANCH   6   7
BRANCH   1  17
HETATM   17  C4  UNL     1      25.524  -0.244  52.697  1.00  0.00     0.013 C 
HETATM   18  C3  UNL     1      26.309  -1.283  52.885  1.00  0.00    -0.026 C 
BRANCH  18  19
HETATM   19  C2  UNL     1      27.628  -1.891  52.665  1.00  0.00     0.022 C 
HETATM   20  C1  UNL     1      28.687  -1.085  53.426  1.00  0.00     0.009 C 
ENDBRANCH  18  19
ENDBRANCH   1  17
BRANCH   4  21
HETATM   21  N2  UNL     1      26.065   4.759  50.155  1.00  0.00    -0.231 N 
HETATM   22  H9  UNL     1      25.384   5.228  49.505  1.00  0.00     0.174 HD
HETATM   23  H10 UNL     1      26.968   5.137  50.458  1.00  0.00     0.174 HD
ENDBRANCH   4  21
TORSDOF 4
ENDMDL
MODEL 7
REMARK VINA RESULT:      -7.1      2.300      6.388
REMARK  4 active torsions:
REMARK  status: ('A' for Active; 'I' for Inactive)
REMARK    1  A    between atoms: C2_2  and  C3_3 
REMARK    2  A    between atoms: C4_4  and  C5_5 
REMARK    3  A    between atoms: C7_8  and  N2_9 
REMARK    4  A    between atoms: C8_11  and  N4_12 
ROOT
HETATM    1  C5  UNL     1      24.674   2.734  50.545  1.00  0.00     0.030 A 
HETATM    2  C6  UNL     1      23.451   3.247  50.181  1.00  0.00     0.151 A 
HETATM    3  N1  UNL     1      22.325   3.024  50.896  1.00  0.00    -0.074 NA
HETATM    4  C7  UNL     1      22.341   2.277  52.014  1.00  0.00     0.722 A 
HETATM    5  N3  UNL     1      23.518   1.757  52.403  1.00  0.00    -0.043 NA
HETATM    6  C8  UNL     1      24.635   1.981  51.691  1.00  0.00     0.179 A 
ENDROOT
BRANCH   6   7
HETATM    7  N4  UNL     1      25.797   1.386  52.177  1.00  0.00    -0.252 N 
HETATM    8  C9  UNL     1      26.896   2.149  52.766  1.00  0.00     0.101 A 
HETATM    9  C10 UNL     1      28.110   2.181  53.325  1.00  0.00     0.061 A 
HETATM   10  C11 UNL     1      29.151   1.163  53.686  1.00  0.00    -0.020 A 
HETATM   11  C12 UNL     1      29.691  -0.074  53.793  1.00  0.00    -0.026 A 
HETATM   12  C13 UNL     1      29.225  -1.445  53.431  1.00  0.00     0.055 A 
HETATM   13  C14 UNL     1      27.899  -1.538  52.860  1.00  0.00    -0.004 A 
HETATM   14  C15 UNL     1      26.710  -1.208  52.383  1.00  0.00     0.104 A 
HETATM   15  N5  UNL     1      26.247   0.098  52.295  1.00  0.00    -0.305 N 
HETATM   16  H19 UNL     1      26.429   0.191  51.238  1.00  0.00     0.186 HD
ENDBRANCH   6   7
BRANCH   1  17
HETATM   17  C4  UNL     1      25.903   2.962  49.843  1.00  0.00     0.013 C 
HETATM   18  C3  UNL     1      26.505   4.049  49.410  1.00  0.00    -0.026 C 
BRANCH  18  19
HETATM   19  C2  UNL     1      26.477   5.513  49.291  1.00  0.00     0.022 C 
HETATM   20  C1  UNL     1      25.167   5.938  48.619  1.00  0.00     0.009 C 
ENDBRANCH  18  19
ENDBRANCH   1  17
BRANCH   4  21
HETATM   21  N2  UNL     1      21.163   2.046  52.756  1.00  0.00    -0.231 N 
HETATM   22  H9  UNL     1      21.058   1.522  53.661  1.00  0.00     0.174 HD
HETATM   23  H10 UNL     1      20.409   2.498  52.229  1.00  0.00     0.174 HD
ENDBRANCH   4  21
TORSDOF 4
ENDMDL
MODEL 8
REMARK VINA RESULT:      -7.0      1.993      5.506
REMARK  4 active torsions:
REMARK  status: ('A' for Active; 'I' for Inactive)
REMARK    1  A    between atoms: C2_2  and  C3_3 
REMARK    2  A    between atoms: C4_4  and  C5_5 
REMARK    3  A    between atoms: C7_8  and  N2_9 
REMARK    4  A    between atoms: C8_11  and  N4_12 
ROOT
HETATM    1  C5  UNL     1      24.048   3.295  51.959  1.00  0.00     0.030 A 
HETATM    2  C6  UNL     1      23.286   4.253  51.333  1.00  0.00     0.151 A 
HETATM    3  N1  UNL     1      23.754   5.004  50.309  1.00  0.00    -0.074 NA
HETATM    4  C7  UNL     1      25.007   4.852  49.845  1.00  0.00     0.722 A 
HETATM    5  N3  UNL     1      25.784   3.925  50.432  1.00  0.00    -0.043 NA
HETATM    6  C8  UNL     1      25.315   3.181  51.448  1.00  0.00     0.179 A 
ENDROOT
BRANCH   6   7
HETATM    7  N4  UNL     1      26.207   2.258  51.989  1.00  0.00    -0.252 N 
HETATM    8  C9  UNL     1      26.087   0.816  51.778  1.00  0.00     0.101 A 
HETATM    9  C10 UNL     1      26.536  -0.423  51.997  1.00  0.00     0.061 A 
HETATM   10  C11 UNL     1      27.671  -1.033  52.766  1.00  0.00    -0.020 A 
HETATM   11  C12 UNL     1      28.769  -1.041  53.559  1.00  0.00    -0.026 A 
HETATM   12  C13 UNL     1      29.575   0.024  54.227  1.00  0.00     0.055 A 
HETATM   13  C14 UNL     1      29.154   1.387  53.988  1.00  0.00    -0.004 A 
HETATM   14  C15 UNL     1      28.473   2.434  53.552  1.00  0.00     0.104 A 
HETATM   15  N5  UNL     1      27.341   2.343  52.752  1.00  0.00    -0.305 N 
HETATM   16  H19 UNL     1      26.645   2.528  53.552  1.00  0.00     0.186 HD
ENDBRANCH   6   7
BRANCH   1  17
HETATM   17  C4  UNL     1      23.594   2.453  53.026  1.00  0.00     0.013 C 
HETATM   18  C3  UNL     1      22.925   1.320  53.058  1.00  0.00    -0.026 C 
BRANCH  18  19
HETATM   19  C2  UNL     1      22.261   0.255  52.294  1.00  0.00     0.022 C 
HETATM   20  C1  UNL     1      21.765   0.826  50.961  1.00  0.00     0.009 C 
ENDBRANCH  18  19
ENDBRANCH   1  17
BRANCH   4  21
HETATM   21  N2  UNL     1      25.492   5.637  48.779  1.00  0.00    -0.231 N 
HETATM   22  H9  UNL     1      25.126   6.562  48.434  1.00  0.00     0.174 HD
HETATM   23  H10 UNL     1      26.289   5.123  48.392  1.00  0.00     0.174 HD
ENDBRANCH   4  21
TORSDOF 4
ENDMDL
MODEL 9
REMARK VINA RESULT:      -6.9      2.608      6.123
REMARK  4 active torsions:
REMARK  status: ('A' for Active; 'I' for Inactive)
REMARK    1  A    between atoms: C2_2  and  C3_3 
REMARK    2  A    between atoms: C4_4  and  C5_5 
REMARK    3  A    between atoms: C7_8  and  N2_9 
REMARK    4  A    between atoms: C8_11  and  N4_12 
ROOT
HETATM    1  C5  UNL     1      23.242   4.027  49.357  1.00  0.00     0.030 A 
HETATM    2  C6  UNL     1      22.865   5.240  48.830  1.00  0.00     0.151 A 
HETATM    3  N1  UNL     1      23.060   6.410  49.482  1.00  0.00    -0.074 NA
HETATM    4  C7  UNL     1      23.638   6.449  50.695  1.00  0.00     0.722 A 
HETATM    5  N3  UNL     1      24.021   5.283  51.244  1.00  0.00    -0.043 NA
HETATM    6  C8  UNL     1      23.826   4.123  50.594  1.00  0.00     0.179 A 
ENDROOT
BRANCH   6   7
HETATM    7  N4  UNL     1      24.251   2.974  51.258  1.00  0.00    -0.252 N 
HETATM    8  C9  UNL     1      23.367   2.165  52.095  1.00  0.00     0.101 A 
HETATM    9  C10 UNL     1      23.182   1.112  52.897  1.00  0.00     0.061 A 
HETATM   10  C11 UNL     1      24.042   0.004  53.428  1.00  0.00    -0.020 A 
HETATM   11  C12 UNL     1      25.180  -0.711  53.596  1.00  0.00    -0.026 A 
HETATM   12  C13 UNL     1      26.575  -0.579  53.079  1.00  0.00     0.055 A 
HETATM   13  C14 UNL     1      26.818   0.522  52.173  1.00  0.00    -0.004 A 
HETATM   14  C15 UNL     1      26.637   1.600  51.428  1.00  0.00     0.104 A 
HETATM   15  N5  UNL     1      25.430   2.281  51.332  1.00  0.00    -0.305 N 
HETATM   16  H19 UNL     1      25.720   3.081  51.991  1.00  0.00     0.186 HD
ENDBRANCH   6   7
BRANCH   1  17
HETATM   17  C4  UNL     1      23.087   2.763  48.700  1.00  0.00     0.013 C 
HETATM   18  C3  UNL     1      22.068   1.942  48.550  1.00  0.00    -0.026 C 
BRANCH  18  19
HETATM   19  C2  UNL     1      20.652   1.670  48.826  1.00  0.00     0.022 C 
HETATM   20  C1  UNL     1      20.536   0.880  50.134  1.00  0.00     0.009 C 
ENDBRANCH  18  19
ENDBRANCH   1  17
BRANCH   4  21
HETATM   21  N2  UNL     1      23.838   7.670  51.371  1.00  0.00    -0.231 N 
HETATM   22  H9  UNL     1      24.312   7.832  52.296  1.00  0.00     0.174 HD
HETATM   23  H10 UNL     1      23.421   8.391  50.773  1.00  0.00     0.174 HD
ENDBRANCH   4  21
TORSDOF 4
ENDMDL
