MODEL 1
REMARK VINA RESULT:      -8.5      0.000      0.000
REMARK  5 active torsions:
REMARK  status: ('A' for Active; 'I' for Inactive)
REMARK    1  A    between atoms: C5_6  and  N2_7 
REMARK    2  A    between atoms: C8_13  and  N6_14 
REMARK    3  A    between atoms: N6_14  and  C9_15 
REMARK    4  A    between atoms: C12_18  and  S1_19 
REMARK    5  A    between atoms: S1_19  and  N7_20 
ROOT
HETATM    1  N1  UNL     1      27.902   1.887  52.588  1.00  0.00    -0.191 NA
HETATM    2  C1  UNL     1      26.853   1.468  52.735  1.00  0.00     0.103 C 
HETATM    3  C2  UNL     1      25.551   0.946  52.918  1.00  0.00     0.091 A 
HETATM    4  C3  UNL     1      25.281   0.102  53.975  1.00  0.00     0.045 A 
HETATM    5  C4  UNL     1      23.998  -0.365  54.088  1.00  0.00     0.059 A 
HETATM    6  C5  UNL     1      23.746  -1.208  55.151  1.00  0.00     0.136 A 
HETATM    7  N3  UNL     1      22.517  -1.720  55.352  1.00  0.00    -0.224 NA
HETATM    8  C6  UNL     1      21.512  -1.396  54.487  1.00  0.00     0.237 A 
HETATM    9  N4  UNL     1      21.734  -0.576  53.447  1.00  0.00    -0.221 NA
HETATM   10  C7  UNL     1      22.960  -0.046  53.220  1.00  0.00     0.167 A 
HETATM   11  N5  UNL     1      23.235   0.788  52.181  1.00  0.00    -0.209 NA
HETATM   12  C8  UNL     1      24.503   1.244  52.073  1.00  0.00     0.151 A 
ENDROOT
BRANCH  12  13
HETATM   13  N6  UNL     1      24.692   2.108  50.960  1.00  0.00    -0.343 N 
HETATM   14  H5  UNL     1      24.357   1.485  50.176  1.00  0.00     0.167 HD
BRANCH  13  15
HETATM   15  C9  UNL     1      25.119   3.395  50.467  1.00  0.00     0.011 A 
HETATM   16  C10 UNL     1      26.138   3.479  49.630  1.00  0.00     0.026 A 
HETATM   17  C11 UNL     1      26.497   4.822  49.189  1.00  0.00     0.022 A 
HETATM   18  C12 UNL     1      25.758   5.799  49.679  1.00  0.00     0.052 A 
HETATM   19  C13 UNL     1      24.624   5.781  50.603  1.00  0.00     0.058 A 
HETATM   20  C14 UNL     1      24.233   4.422  51.071  1.00  0.00     0.062 A 
BRANCH  18  21
HETATM   21  S1  UNL     1      26.213   7.417  49.127  1.00  0.00     0.235 S 
HETATM   22  O1  UNL     1      27.169   7.339  47.990  1.00  0.00    -0.206 OA
HETATM   23  O2  UNL     1      24.991   8.161  48.625  1.00  0.00    -0.206 OA
BRANCH  21  24
HETATM   24  N7  UNL     1      26.887   8.313  50.420  1.00  0.00    -0.225 NA
HETATM   25  H8  UNL     1      26.897   7.771  51.306  1.00  0.00     0.136 HD
HETATM   26  H9  UNL     1      27.839   8.627  50.142  1.00  0.00     0.136 HD
ENDBRANCH  21  24
ENDBRANCH  18  21
ENDBRANCH  13  15
ENDBRANCH  12  13
BRANCH   6  27
HETATM   27  N2  UNL     1      24.747  -1.587  56.086  1.00  0.00    -0.383 N 
HETATM   28  H2  UNL     1      25.448  -0.935  56.450  1.00  0.00     0.157 HD
HETATM   29  H3  UNL     1      24.958  -2.497  56.548  1.00  0.00     0.157 HD
ENDBRANCH   6  27
TORSDOF 5
ENDMDL
MODEL 2
REMARK VINA RESULT:      -8.2      2.059      3.488
REMARK  5 active torsions:
REMARK  status: ('A' for Active; 'I' for Inactive)
REMARK    1  A    between atoms: C5_6  and  N2_7 
REMARK    2  A    between atoms: C8_13  and  N6_14 
REMARK    3  A    between atoms: N6_14  and  C9_15 
REMARK    4  A    between atoms: C12_18  and  S1_19 
REMARK    5  A    between atoms: S1_19  and  N7_20 
ROOT
HETATM    1  N1  UNL     1      22.668   1.897  50.686  1.00  0.00    -0.191 NA
HETATM    2  C1  UNL     1      23.701   1.805  51.157  1.00  0.00     0.103 C 
HETATM    3  C2  UNL     1      24.983   1.690  51.743  1.00  0.00     0.091 A 
HETATM    4  C3  UNL     1      25.189   0.835  52.806  1.00  0.00     0.045 A 
HETATM    5  C4  UNL     1      26.456   0.776  53.323  1.00  0.00     0.059 A 
HETATM    6  C5  UNL     1      26.645  -0.084  54.386  1.00  0.00     0.136 A 
HETATM    7  N3  UNL     1      27.853  -0.216  54.964  1.00  0.00    -0.224 NA
HETATM    8  C6  UNL     1      28.902   0.516  54.487  1.00  0.00     0.237 A 
HETATM    9  N4  UNL     1      28.743   1.358  53.454  1.00  0.00    -0.221 NA
HETATM   10  C7  UNL     1      27.538   1.511  52.852  1.00  0.00     0.167 A 
HETATM   11  N5  UNL     1      27.326   2.351  51.804  1.00  0.00    -0.209 NA
HETATM   12  C8  UNL     1      26.074   2.406  51.298  1.00  0.00     0.151 A 
ENDROOT
BRANCH  12  13
HETATM   13  N6  UNL     1      25.952   3.309  50.206  1.00  0.00    -0.343 N 
HETATM   14  H5  UNL     1      25.490   2.684  49.493  1.00  0.00     0.167 HD
BRANCH  13  15
HETATM   15  C9  UNL     1      26.175   4.635  49.684  1.00  0.00     0.011 A 
HETATM   16  C10 UNL     1      27.197   4.867  48.879  1.00  0.00     0.026 A 
HETATM   17  C11 UNL     1      27.340   6.238  48.403  1.00  0.00     0.022 A 
HETATM   18  C12 UNL     1      26.428   7.089  48.834  1.00  0.00     0.052 A 
HETATM   19  C13 UNL     1      25.279   6.905  49.719  1.00  0.00     0.058 A 
HETATM   20  C14 UNL     1      25.105   5.513  50.221  1.00  0.00     0.062 A 
BRANCH  18  21
HETATM   21  S1  UNL     1      26.625   8.745  48.241  1.00  0.00     0.235 S 
HETATM   22  O1  UNL     1      27.932   8.907  47.550  1.00  0.00    -0.206 OA
HETATM   23  O2  UNL     1      25.546   9.067  47.225  1.00  0.00    -0.206 OA
BRANCH  21  24
HETATM   24  N7  UNL     1      26.486   9.855  49.535  1.00  0.00    -0.225 NA
HETATM   25  H8  UNL     1      26.670   9.407  50.454  1.00  0.00     0.136 HD
HETATM   26  H9  UNL     1      27.126  10.654  49.354  1.00  0.00     0.136 HD
ENDBRANCH  21  24
ENDBRANCH  18  21
ENDBRANCH  13  15
ENDBRANCH  12  13
BRANCH   6  27
HETATM   27  N2  UNL     1      25.595  -0.874  54.930  1.00  0.00    -0.383 N 
HETATM   28  H2  UNL     1      25.624  -1.897  54.965  1.00  0.00     0.157 HD
HETATM   29  H3  UNL     1      24.681  -0.613  55.360  1.00  0.00     0.157 HD
ENDBRANCH   6  27
TORSDOF 5
ENDMDL
MODEL 3
REMARK VINA RESULT:      -8.0      1.311      2.787
REMARK  5 active torsions:
REMARK  status: ('A' for Active; 'I' for Inactive)
REMARK    1  A    between atoms: C5_6  and  N2_7 
REMARK    2  A    between atoms: C8_13  and  N6_14 
REMARK    3  A    between atoms: N6_14  and  C9_15 
REMARK    4  A    between atoms: C12_18  and  S1_19 
REMARK    5  A    between atoms: S1_19  and  N7_20 
ROOT
HETATM    1  N1  UNL     1      21.252   2.390  49.688  1.00  0.00    -0.191 NA
HETATM    2  C1  UNL     1      21.783   1.850  50.538  1.00  0.00     0.103 C 
HETATM    3  C2  UNL     1      22.441   1.178  51.595  1.00  0.00     0.091 A 
HETATM    4  C3  UNL     1      21.725   0.395  52.476  1.00  0.00     0.045 A 
HETATM    5  C4  UNL     1      22.430  -0.224  53.474  1.00  0.00     0.059 A 
HETATM    6  C5  UNL     1      21.697  -1.004  54.347  1.00  0.00     0.136 A 
HETATM    7  N3  UNL     1      22.295  -1.656  55.362  1.00  0.00    -0.224 NA
HETATM    8  C6  UNL     1      23.645  -1.538  55.524  1.00  0.00     0.237 A 
HETATM    9  N4  UNL     1      24.378  -0.786  54.687  1.00  0.00    -0.221 NA
HETATM   10  C7  UNL     1      23.804  -0.119  53.657  1.00  0.00     0.167 A 
HETATM   11  N5  UNL     1      24.502   0.656  52.783  1.00  0.00    -0.209 NA
HETATM   12  C8  UNL     1      23.802   1.265  51.801  1.00  0.00     0.151 A 
ENDROOT
BRANCH  12  13
HETATM   13  N6  UNL     1      24.618   2.049  50.939  1.00  0.00    -0.343 N 
HETATM   14  H5  UNL     1      25.107   1.289  50.395  1.00  0.00     0.167 HD
BRANCH  13  15
HETATM   15  C9  UNL     1      25.040   3.361  50.513  1.00  0.00     0.011 A 
HETATM   16  C10 UNL     1      24.358   4.430  50.884  1.00  0.00     0.026 A 
HETATM   17  C11 UNL     1      24.862   5.711  50.403  1.00  0.00     0.022 A 
HETATM   18  C12 UNL     1      25.944   5.651  49.650  1.00  0.00     0.052 A 
HETATM   19  C13 UNL     1      26.745   4.513  49.200  1.00  0.00     0.058 A 
HETATM   20  C14 UNL     1      26.255   3.190  49.677  1.00  0.00     0.062 A 
BRANCH  18  21
HETATM   21  S1  UNL     1      26.534   7.219  49.080  1.00  0.00     0.235 S 
HETATM   22  O1  UNL     1      27.754   7.053  48.244  1.00  0.00    -0.206 OA
HETATM   23  O2  UNL     1      25.488   7.884  48.206  1.00  0.00    -0.206 OA
BRANCH  21  24
HETATM   24  N7  UNL     1      26.850   8.249  50.409  1.00  0.00    -0.225 NA
HETATM   25  H8  UNL     1      26.007   8.783  50.697  1.00  0.00     0.136 HD
HETATM   26  H9  UNL     1      27.235   7.675  51.187  1.00  0.00     0.136 HD
ENDBRANCH  21  24
ENDBRANCH  18  21
ENDBRANCH  13  15
ENDBRANCH  12  13
BRANCH   6  27
HETATM   27  N2  UNL     1      20.290  -1.168  54.234  1.00  0.00    -0.383 N 
HETATM   28  H2  UNL     1      19.740  -1.748  54.875  1.00  0.00     0.157 HD
HETATM   29  H3  UNL     1      19.597  -0.780  53.558  1.00  0.00     0.157 HD
ENDBRANCH   6  27
TORSDOF 5
ENDMDL
MODEL 4
REMARK VINA RESULT:      -7.9      7.232     10.189
REMARK  5 active torsions:
REMARK  status: ('A' for Active; 'I' for Inactive)
REMARK    1  A    between atoms: C5_6  and  N2_7 
REMARK    2  A    between atoms: C8_13  and  N6_14 
REMARK    3  A    between atoms: N6_14  and  C9_15 
REMARK    4  A    between atoms: C12_18  and  S1_19 
REMARK    5  A    between atoms: S1_19  and  N7_20 
ROOT
HETATM    1  N1  UNL     1      19.111   0.727  50.745  1.00  0.00    -0.191 NA
HETATM    2  C1  UNL     1      19.785   0.332  51.574  1.00  0.00     0.103 C 
HETATM    3  C2  UNL     1      20.624  -0.158  52.602  1.00  0.00     0.091 A 
HETATM    4  C3  UNL     1      21.976   0.111  52.586  1.00  0.00     0.045 A 
HETATM    5  C4  UNL     1      22.725  -0.397  53.615  1.00  0.00     0.059 A 
HETATM    6  C5  UNL     1      24.077  -0.117  53.583  1.00  0.00     0.136 A 
HETATM    7  N3  UNL     1      24.900  -0.570  54.548  1.00  0.00    -0.224 NA
HETATM    8  C6  UNL     1      24.383  -1.315  55.568  1.00  0.00     0.237 A 
HETATM    9  N4  UNL     1      23.072  -1.598  55.620  1.00  0.00    -0.221 NA
HETATM   10  C7  UNL     1      22.220  -1.156  54.663  1.00  0.00     0.167 A 
HETATM   11  N5  UNL     1      20.884  -1.417  54.671  1.00  0.00    -0.209 NA
HETATM   12  C8  UNL     1      20.150  -0.914  53.654  1.00  0.00     0.151 A 
ENDROOT
BRANCH  12  13
HETATM   13  N6  UNL     1      18.769  -1.238  53.750  1.00  0.00    -0.343 N 
HETATM   14  H5  UNL     1      18.427  -0.438  54.347  1.00  0.00     0.167 HD
BRANCH  13  15
HETATM   15  C9  UNL     1      17.695  -2.136  53.403  1.00  0.00     0.011 A 
HETATM   16  C10 UNL     1      17.728  -3.395  53.805  1.00  0.00     0.026 A 
HETATM   17  C11 UNL     1      16.599  -4.226  53.405  1.00  0.00     0.022 A 
HETATM   18  C12 UNL     1      15.673  -3.621  52.685  1.00  0.00     0.052 A 
HETATM   19  C13 UNL     1      15.571  -2.243  52.205  1.00  0.00     0.058 A 
HETATM   20  C14 UNL     1      16.711  -1.368  52.600  1.00  0.00     0.062 A 
BRANCH  18  21
HETATM   21  S1  UNL     1      14.314  -4.651  52.213  1.00  0.00     0.235 S 
HETATM   22  O1  UNL     1      14.440  -5.075  50.792  1.00  0.00    -0.206 OA
HETATM   23  O2  UNL     1      14.302  -5.916  53.051  1.00  0.00    -0.206 OA
BRANCH  21  24
HETATM   24  N7  UNL     1      12.835  -3.831  52.467  1.00  0.00    -0.225 NA
HETATM   25  H8  UNL     1      12.761  -2.971  51.888  1.00  0.00     0.136 HD
HETATM   26  H9  UNL     1      12.055  -4.494  52.284  1.00  0.00     0.136 HD
ENDBRANCH  21  24
ENDBRANCH  18  21
ENDBRANCH  13  15
ENDBRANCH  12  13
BRANCH   6  27
HETATM   27  N2  UNL     1      24.679   0.651  52.549  1.00  0.00    -0.383 N 
HETATM   28  H2  UNL     1      24.252   1.497  52.160  1.00  0.00     0.157 HD
HETATM   29  H3  UNL     1      25.574   0.534  52.029  1.00  0.00     0.157 HD
ENDBRANCH   6  27
TORSDOF 5
ENDMDL
MODEL 5
REMARK VINA RESULT:      -7.9      4.332      6.406
REMARK  5 active torsions:
REMARK  status: ('A' for Active; 'I' for Inactive)
REMARK    1  A    between atoms: C5_6  and  N2_7 
REMARK    2  A    between atoms: C8_13  and  N6_14 
REMARK    3  A    between atoms: N6_14  and  C9_15 
REMARK    4  A    between atoms: C12_18  and  S1_19 
REMARK    5  A    between atoms: S1_19  and  N7_20 
ROOT
HETATM    1  N1  UNL     1      23.785   3.860  53.085  1.00  0.00    -0.191 NA
HETATM    2  C1  UNL     1      24.491   2.968  53.131  1.00  0.00     0.103 C 
HETATM    3  C2  UNL     1      25.370   1.861  53.188  1.00  0.00     0.091 A 
HETATM    4  C3  UNL     1      26.719   2.053  53.402  1.00  0.00     0.045 A 
HETATM    5  C4  UNL     1      27.509   0.935  53.444  1.00  0.00     0.059 A 
HETATM    6  C5  UNL     1      28.857   1.145  53.658  1.00  0.00     0.136 A 
HETATM    7  N3  UNL     1      29.718   0.112  53.718  1.00  0.00    -0.224 NA
HETATM    8  C6  UNL     1      29.243  -1.159  53.563  1.00  0.00     0.237 A 
HETATM    9  N4  UNL     1      27.937  -1.388  53.355  1.00  0.00    -0.221 NA
HETATM   10  C7  UNL     1      27.047  -0.368  53.290  1.00  0.00     0.167 A 
HETATM   11  N5  UNL     1      25.715  -0.547  53.081  1.00  0.00    -0.209 NA
HETATM   12  C8  UNL     1      24.941   0.559  53.039  1.00  0.00     0.151 A 
ENDROOT
BRANCH  12  13
HETATM   13  N6  UNL     1      23.566   0.270  52.817  1.00  0.00    -0.343 N 
HETATM   14  H5  UNL     1      23.452  -0.588  53.421  1.00  0.00     0.167 HD
BRANCH  13  15
HETATM   15  C9  UNL     1      22.331   0.624  52.161  1.00  0.00     0.011 A 
HETATM   16  C10 UNL     1      22.336   0.985  50.889  1.00  0.00     0.026 A 
HETATM   17  C11 UNL     1      21.040   1.324  50.314  1.00  0.00     0.022 A 
HETATM   18  C12 UNL     1      20.010   1.230  51.134  1.00  0.00     0.052 A 
HETATM   19  C13 UNL     1      19.930   0.841  52.541  1.00  0.00     0.058 A 
HETATM   20  C14 UNL     1      21.240   0.487  53.157  1.00  0.00     0.062 A 
BRANCH  18  21
HETATM   21  S1  UNL     1      18.450   1.647  50.410  1.00  0.00     0.235 S 
HETATM   22  O1  UNL     1      17.545   2.257  51.421  1.00  0.00    -0.206 OA
HETATM   23  O2  UNL     1      18.643   2.676  49.312  1.00  0.00    -0.206 OA
BRANCH  21  24
HETATM   24  N7  UNL     1      17.731   0.258  49.718  1.00  0.00    -0.225 NA
HETATM   25  H8  UNL     1      17.865   0.223  48.688  1.00  0.00     0.136 HD
HETATM   26  H9  UNL     1      18.117  -0.584  50.192  1.00  0.00     0.136 HD
ENDBRANCH  21  24
ENDBRANCH  18  21
ENDBRANCH  13  15
ENDBRANCH  12  13
BRANCH   6  27
HETATM   27  N2  UNL     1      29.414   2.441  53.826  1.00  0.00    -0.383 N 
HETATM   28  H2  UNL     1      30.361   2.687  53.522  1.00  0.00     0.157 HD
HETATM   29  H3  UNL     1      29.028   3.315  54.243  1.00  0.00     0.157 HD
ENDBRANCH   6  27
TORSDOF 5
ENDMDL
MODEL 6
REMARK VINA RESULT:      -7.7      5.475      9.333
REMARK  5 active torsions:
REMARK  status: ('A' for Active; 'I' for Inactive)
REMARK    1  A    between atoms: C5_6  and  N2_7 
REMARK    2  A    between atoms: C8_13  and  N6_14 
REMARK    3  A    between atoms: N6_14  and  C9_15 
REMARK    4  A    between atoms: C12_18  and  S1_19 
REMARK    5  A    between atoms: S1_19  and  N7_20 
ROOT
HETATM    1  N1  UNL     1      30.352   9.297  49.204  1.00  0.00    -0.191 NA
HETATM    2  C1  UNL     1      30.807   8.289  48.933  1.00  0.00     0.103 C 
HETATM    3  C2  UNL     1      31.373   7.037  48.598  1.00  0.00     0.091 A 
HETATM    4  C3  UNL     1      32.729   6.826  48.736  1.00  0.00     0.045 A 
HETATM    5  C4  UNL     1      33.206   5.589  48.391  1.00  0.00     0.059 A 
HETATM    6  C5  UNL     1      34.566   5.395  48.535  1.00  0.00     0.136 A 
HETATM    7  N3  UNL     1      35.134   4.215  48.224  1.00  0.00    -0.224 NA
HETATM    8  C6  UNL     1      34.347   3.200  47.760  1.00  0.00     0.237 A 
HETATM    9  N4  UNL     1      33.023   3.365  47.613  1.00  0.00    -0.221 NA
HETATM   10  C7  UNL     1      32.424   4.542  47.917  1.00  0.00     0.167 A 
HETATM   11  N5  UNL     1      31.088   4.759  47.784  1.00  0.00    -0.209 NA
HETATM   12  C8  UNL     1      30.622   5.981  48.125  1.00  0.00     0.151 A 
ENDROOT
BRANCH  12  13
HETATM   13  N6  UNL     1      29.217   6.110  47.954  1.00  0.00    -0.343 N 
HETATM   14  H5  UNL     1      29.169   6.325  46.922  1.00  0.00     0.167 HD
BRANCH  13  15
HETATM   15  C9  UNL     1      27.903   6.077  48.549  1.00  0.00     0.011 A 
HETATM   16  C10 UNL     1      27.257   7.204  48.794  1.00  0.00     0.026 A 
HETATM   17  C11 UNL     1      25.936   7.069  49.397  1.00  0.00     0.022 A 
HETATM   18  C12 UNL     1      25.539   5.831  49.627  1.00  0.00     0.052 A 
HETATM   19  C13 UNL     1      26.195   4.547  49.386  1.00  0.00     0.058 A 
HETATM   20  C14 UNL     1      27.547   4.652  48.768  1.00  0.00     0.062 A 
BRANCH  18  21
HETATM   21  S1  UNL     1      23.934   5.695  50.359  1.00  0.00     0.235 S 
HETATM   22  O1  UNL     1      22.933   6.482  49.588  1.00  0.00    -0.206 OA
HETATM   23  O2  UNL     1      23.471   4.251  50.337  1.00  0.00    -0.206 OA
BRANCH  21  24
HETATM   24  N7  UNL     1      23.982   6.214  51.988  1.00  0.00    -0.225 NA
HETATM   25  H8  UNL     1      23.603   5.497  52.637  1.00  0.00     0.136 HD
HETATM   26  H9  UNL     1      24.962   6.475  52.222  1.00  0.00     0.136 HD
ENDBRANCH  21  24
ENDBRANCH  18  21
ENDBRANCH  13  15
ENDBRANCH  12  13
BRANCH   6  27
HETATM   27  N2  UNL     1      35.440   6.410  49.012  1.00  0.00    -0.383 N 
HETATM   28  H2  UNL     1      35.761   7.190  48.432  1.00  0.00     0.157 HD
HETATM   29  H3  UNL     1      35.887   6.561  49.942  1.00  0.00     0.157 HD
ENDBRANCH   6  27
TORSDOF 5
ENDMDL
MODEL 7
REMARK VINA RESULT:      -7.6      5.458      7.812
REMARK  5 active torsions:
REMARK  status: ('A' for Active; 'I' for Inactive)
REMARK    1  A    between atoms: C5_6  and  N2_7 
REMARK    2  A    between atoms: C8_13  and  N6_14 
REMARK    3  A    between atoms: N6_14  and  C9_15 
REMARK    4  A    between atoms: C12_18  and  S1_19 
REMARK    5  A    between atoms: S1_19  and  N7_20 
ROOT
HETATM    1  N1  UNL     1      21.577  -2.017  54.963  1.00  0.00    -0.191 NA
HETATM    2  C1  UNL     1      22.227  -1.294  54.370  1.00  0.00     0.103 C 
HETATM    3  C2  UNL     1      23.035  -0.396  53.635  1.00  0.00     0.091 A 
HETATM    4  C3  UNL     1      24.409  -0.523  53.650  1.00  0.00     0.045 A 
HETATM    5  C4  UNL     1      25.127   0.383  52.915  1.00  0.00     0.059 A 
HETATM    6  C5  UNL     1      26.500   0.241  52.941  1.00  0.00     0.136 A 
HETATM    7  N3  UNL     1      27.296   1.080  52.252  1.00  0.00    -0.224 NA
HETATM    8  C6  UNL     1      26.729   2.082  51.518  1.00  0.00     0.237 A 
HETATM    9  N4  UNL     1      25.396   2.238  51.476  1.00  0.00    -0.221 NA
HETATM   10  C7  UNL     1      24.571   1.410  52.160  1.00  0.00     0.167 A 
HETATM   11  N5  UNL     1      23.216   1.527  52.151  1.00  0.00    -0.209 NA
HETATM   12  C8  UNL     1      22.512   0.632  52.878  1.00  0.00     0.151 A 
ENDROOT
BRANCH  12  13
HETATM   13  N6  UNL     1      21.106   0.834  52.805  1.00  0.00    -0.343 N 
HETATM   14  H5  UNL     1      20.993   1.635  53.482  1.00  0.00     0.167 HD
BRANCH  13  15
HETATM   15  C9  UNL     1      19.841   0.439  52.236  1.00  0.00     0.011 A 
HETATM   16  C10 UNL     1      19.028  -0.353  52.913  1.00  0.00     0.026 A 
HETATM   17  C11 UNL     1      17.773  -0.698  52.256  1.00  0.00     0.022 A 
HETATM   18  C12 UNL     1      17.596  -0.175  51.057  1.00  0.00     0.052 A 
HETATM   19  C13 UNL     1      18.445   0.702  50.251  1.00  0.00     0.058 A 
HETATM   20  C14 UNL     1      19.735   1.073  50.898  1.00  0.00     0.062 A 
BRANCH  18  21
HETATM   21  S1  UNL     1      16.065  -0.609  50.282  1.00  0.00     0.235 S 
HETATM   22  O1  UNL     1      15.494  -1.840  50.891  1.00  0.00    -0.206 OA
HETATM   23  O2  UNL     1      15.046   0.497  50.483  1.00  0.00    -0.206 OA
BRANCH  21  24
HETATM   24  N7  UNL     1      16.295  -0.820  48.600  1.00  0.00    -0.225 NA
HETATM   25  H8  UNL     1      16.769  -1.718  48.381  1.00  0.00     0.136 HD
HETATM   26  H9  UNL     1      15.370  -0.741  48.129  1.00  0.00     0.136 HD
ENDBRANCH  21  24
ENDBRANCH  18  21
ENDBRANCH  13  15
ENDBRANCH  12  13
BRANCH   6  27
HETATM   27  N2  UNL     1      27.153  -0.779  53.685  1.00  0.00    -0.383 N 
HETATM   28  H2  UNL     1      26.679  -1.344  54.396  1.00  0.00     0.157 HD
HETATM   29  H3  UNL     1      28.134  -1.131  53.669  1.00  0.00     0.157 HD
ENDBRANCH   6  27
TORSDOF 5
ENDMDL
MODEL 8
REMARK VINA RESULT:      -7.5      4.435      8.792
REMARK  5 active torsions:
REMARK  status: ('A' for Active; 'I' for Inactive)
REMARK    1  A    between atoms: C5_6  and  N2_7 
REMARK    2  A    between atoms: C8_13  and  N6_14 
REMARK    3  A    between atoms: N6_14  and  C9_15 
REMARK    4  A    between atoms: C12_18  and  S1_19 
REMARK    5  A    between atoms: S1_19  and  N7_20 
ROOT
HETATM    1  N1  UNL     1      23.136   6.358  49.258  1.00  0.00    -0.191 NA
HETATM    2  C1  UNL     1      24.242   6.157  49.077  1.00  0.00     0.103 C 
HETATM    3  C2  UNL     1      25.617   5.910  48.852  1.00  0.00     0.091 A 
HETATM    4  C3  UNL     1      26.401   6.855  48.223  1.00  0.00     0.045 A 
HETATM    5  C4  UNL     1      27.722   6.545  48.039  1.00  0.00     0.059 A 
HETATM    6  C5  UNL     1      28.492   7.502  47.408  1.00  0.00     0.136 A 
HETATM    7  N3  UNL     1      29.803   7.296  47.180  1.00  0.00    -0.224 NA
HETATM    8  C6  UNL     1      30.371   6.121  47.581  1.00  0.00     0.237 A 
HETATM    9  N4  UNL     1      29.642   5.177  48.197  1.00  0.00    -0.221 NA
HETATM   10  C7  UNL     1      28.321   5.357  48.440  1.00  0.00     0.167 A 
HETATM   11  N5  UNL     1      27.541   4.431  49.060  1.00  0.00    -0.209 NA
HETATM   12  C8  UNL     1      26.237   4.741  49.238  1.00  0.00     0.151 A 
ENDROOT
BRANCH  12  13
HETATM   13  N6  UNL     1      25.505   3.714  49.895  1.00  0.00    -0.343 N 
HETATM   14  H5  UNL     1      24.575   3.799  49.403  1.00  0.00     0.167 HD
BRANCH  13  15
HETATM   15  C9  UNL     1      25.486   2.666  50.886  1.00  0.00     0.011 A 
HETATM   16  C10 UNL     1      24.349   2.066  51.195  1.00  0.00     0.026 A 
HETATM   17  C11 UNL     1      24.430   1.021  52.208  1.00  0.00     0.022 A 
HETATM   18  C12 UNL     1      25.635   0.795  52.699  1.00  0.00     0.052 A 
HETATM   19  C13 UNL     1      26.927   1.415  52.408  1.00  0.00     0.058 A 
HETATM   20  C14 UNL     1      26.876   2.487  51.375  1.00  0.00     0.062 A 
BRANCH  18  21
HETATM   21  S1  UNL     1      25.705  -0.478  53.926  1.00  0.00     0.235 S 
HETATM   22  O1  UNL     1      24.338  -0.858  54.373  1.00  0.00    -0.206 OA
HETATM   23  O2  UNL     1      26.342  -1.727  53.346  1.00  0.00    -0.206 OA
BRANCH  21  24
HETATM   24  N7  UNL     1      26.653   0.035  55.254  1.00  0.00    -0.225 NA
HETATM   25  H8  UNL     1      26.228  -0.236  56.163  1.00  0.00     0.136 HD
HETATM   26  H9  UNL     1      27.613  -0.349  55.141  1.00  0.00     0.136 HD
ENDBRANCH  21  24
ENDBRANCH  18  21
ENDBRANCH  13  15
ENDBRANCH  12  13
BRANCH   6  27
HETATM   27  N2  UNL     1      27.963   8.745  46.965  1.00  0.00    -0.383 N 
HETATM   28  H2  UNL     1      26.962   8.908  46.823  1.00  0.00     0.157 HD
HETATM   29  H3  UNL     1      28.422   9.648  46.719  1.00  0.00     0.157 HD
ENDBRANCH   6  27
TORSDOF 5
ENDMDL
MODEL 9
REMARK VINA RESULT:      -7.5      4.962      6.946
REMARK  5 active torsions:
REMARK  status: ('A' for Active; 'I' for Inactive)
REMARK    1  A    between atoms: C5_6  and  N2_7 
REMARK    2  A    between atoms: C8_13  and  N6_14 
REMARK    3  A    between atoms: N6_14  and  C9_15 
REMARK    4  A    between atoms: C12_18  and  S1_19 
REMARK    5  A    between atoms: S1_19  and  N7_20 
ROOT
HETATM    1  N1  UNL     1      21.199  -1.845  54.645  1.00  0.00    -0.191 NA
HETATM    2  C1  UNL     1      21.992  -1.205  54.136  1.00  0.00     0.103 C 
HETATM    3  C2  UNL     1      22.978  -0.410  53.506  1.00  0.00     0.091 A 
HETATM    4  C3  UNL     1      24.258  -0.352  54.018  1.00  0.00     0.045 A 
HETATM    5  C4  UNL     1      25.159   0.438  53.355  1.00  0.00     0.059 A 
HETATM    6  C5  UNL     1      26.435   0.485  53.880  1.00  0.00     0.136 A 
HETATM    7  N3  UNL     1      27.395   1.231  53.302  1.00  0.00    -0.224 NA
HETATM    8  C6  UNL     1      27.094   1.950  52.182  1.00  0.00     0.237 A 
HETATM    9  N4  UNL     1      25.861   1.919  51.652  1.00  0.00    -0.221 NA
HETATM   10  C7  UNL     1      24.875   1.177  52.212  1.00  0.00     0.167 A 
HETATM   11  N5  UNL     1      23.611   1.113  51.714  1.00  0.00    -0.209 NA
HETATM   12  C8  UNL     1      22.725   0.333  52.372  1.00  0.00     0.151 A 
ENDROOT
BRANCH  12  13
HETATM   13  N6  UNL     1      21.434   0.330  51.777  1.00  0.00    -0.343 N 
HETATM   14  H5  UNL     1      21.545  -0.458  51.084  1.00  0.00     0.167 HD
BRANCH  13  15
HETATM   15  C9  UNL     1      20.113   0.906  51.715  1.00  0.00     0.011 A 
HETATM   16  C10 UNL     1      19.052   0.124  51.618  1.00  0.00     0.026 A 
HETATM   17  C11 UNL     1      17.761   0.799  51.561  1.00  0.00     0.022 A 
HETATM   18  C12 UNL     1      17.804   2.117  51.613  1.00  0.00     0.052 A 
HETATM   19  C13 UNL     1      18.931   3.042  51.719  1.00  0.00     0.058 A 
HETATM   20  C14 UNL     1      20.265   2.381  51.781  1.00  0.00     0.062 A 
BRANCH  18  21
HETATM   21  S1  UNL     1      16.224   2.910  51.543  1.00  0.00     0.235 S 
HETATM   22  O1  UNL     1      15.867   3.255  50.140  1.00  0.00    -0.206 OA
HETATM   23  O2  UNL     1      15.146   1.974  52.054  1.00  0.00    -0.206 OA
BRANCH  21  24
HETATM   24  N7  UNL     1      16.222   4.311  52.526  1.00  0.00    -0.225 NA
HETATM   25  H8  UNL     1      17.154   4.769  52.553  1.00  0.00     0.136 HD
HETATM   26  H9  UNL     1      15.480   4.953  52.182  1.00  0.00     0.136 HD
ENDBRANCH  21  24
ENDBRANCH  18  21
ENDBRANCH  13  15
ENDBRANCH  12  13
BRANCH   6  27
HETATM   27  N2  UNL     1      26.813  -0.238  55.044  1.00  0.00    -0.383 N 
HETATM   28  H2  UNL     1      27.153  -1.204  55.018  1.00  0.00     0.157 HD
HETATM   29  H3  UNL     1      26.825   0.027  56.053  1.00  0.00     0.157 HD
ENDBRANCH   6  27
TORSDOF 5
ENDMDL
