MODEL 1
REMARK VINA RESULT:      -8.1      0.000      0.000
REMARK  2 active torsions:
REMARK  status: ('A' for Active; 'I' for Inactive)
REMARK    1  A    between atoms: O1_2  and  C2_3 
REMARK    2  A    between atoms: C10_12  and  C11_13 
ROOT
HETATM    1  C2  UNL     1      20.400  -0.582  53.486  1.00  0.00     0.069 A 
HETATM    2  C3  UNL     1      21.133  -1.383  54.340  1.00  0.00     0.039 A 
HETATM    3  C4  UNL     1      22.506  -1.257  54.349  1.00  0.00     0.040 A 
HETATM    4  C5  UNL     1      23.130  -0.349  53.520  1.00  0.00     0.086 A 
HETATM    5  C6  UNL     1      22.436   0.480  52.641  1.00  0.00    -0.004 A 
HETATM    6  C7  UNL     1      21.043   0.324  52.660  1.00  0.00     0.048 A 
HETATM    7  C8  UNL     1      22.697   1.515  51.654  1.00  0.00     0.161 C 
HETATM    8  N1  UNL     1      24.086   1.672  51.299  1.00  0.00    -0.380 N 
HETATM    9  C9  UNL     1      25.260   1.591  52.103  1.00  0.00     0.109 A 
HETATM   10  C10 UNL     1      26.172   2.482  51.766  1.00  0.00     0.070 A 
HETATM   11  N2  UNL     1      27.343   2.392  52.558  1.00  0.00    -0.369 N 
HETATM   12  C15 UNL     1      27.593   1.533  53.681  1.00  0.00     0.273 A 
HETATM   13  N3  UNL     1      26.512   0.607  53.943  1.00  0.00    -0.245 NA
HETATM   14  C16 UNL     1      25.422   0.631  53.211  1.00  0.00     0.196 A 
HETATM   15  O2  UNL     1      24.526  -0.359  53.663  1.00  0.00    -0.290 OA
HETATM   16  H9  UNL     1      24.459   1.869  50.316  1.00  0.00     0.160 HD
HETATM   17  H13 UNL     1      28.175   3.002  52.355  1.00  0.00     0.161 HD
ENDROOT
BRANCH  10  18
HETATM   18  C11 UNL     1      25.987   3.429  50.712  1.00  0.00    -0.007 A 
HETATM   19  C12 UNL     1      26.710   3.490  49.581  1.00  0.00     0.014 A 
HETATM   20  C13 UNL     1      25.991   4.627  49.048  1.00  0.00     0.002 A 
HETATM   21  C14 UNL     1      25.291   4.569  50.152  1.00  0.00     0.014 A 
ENDBRANCH  10  18
BRANCH   1  22
HETATM   22  O1  UNL     1      19.027  -0.732  53.500  1.00  0.00    -0.356 OA
HETATM   23  C1  UNL     1      18.146  -0.562  52.439  1.00  0.00     0.210 C 
ENDBRANCH   1  22
TORSDOF 2
ENDMDL
MODEL 2
REMARK VINA RESULT:      -8.0      2.720      5.850
REMARK  2 active torsions:
REMARK  status: ('A' for Active; 'I' for Inactive)
REMARK    1  A    between atoms: O1_2  and  C2_3 
REMARK    2  A    between atoms: C10_12  and  C11_13 
ROOT
HETATM    1  C2  UNL     1      24.460   4.666  49.485  1.00  0.00     0.069 A 
HETATM    2  C3  UNL     1      23.173   4.220  49.708  1.00  0.00     0.039 A 
HETATM    3  C4  UNL     1      22.989   3.082  50.465  1.00  0.00     0.040 A 
HETATM    4  C5  UNL     1      24.073   2.407  50.986  1.00  0.00     0.086 A 
HETATM    5  C6  UNL     1      25.390   2.816  50.788  1.00  0.00    -0.004 A 
HETATM    6  C7  UNL     1      25.538   3.975  50.015  1.00  0.00     0.048 A 
HETATM    7  C8  UNL     1      26.741   2.412  51.143  1.00  0.00     0.161 C 
HETATM    8  N1  UNL     1      26.840   1.104  51.743  1.00  0.00    -0.380 N 
HETATM    9  C9  UNL     1      25.978   0.442  52.664  1.00  0.00     0.109 A 
HETATM   10  C10 UNL     1      26.636  -0.262  53.565  1.00  0.00     0.070 A 
HETATM   11  N2  UNL     1      25.776  -0.929  54.472  1.00  0.00    -0.369 N 
HETATM   12  C15 UNL     1      24.346  -0.856  54.559  1.00  0.00     0.273 A 
HETATM   13  N3  UNL     1      23.751  -0.050  53.514  1.00  0.00    -0.245 NA
HETATM   14  C16 UNL     1      24.508   0.558  52.629  1.00  0.00     0.196 A 
HETATM   15  O2  UNL     1      23.698   1.275  51.726  1.00  0.00    -0.290 OA
HETATM   16  H9  UNL     1      27.618   0.392  51.559  1.00  0.00     0.160 HD
HETATM   17  H13 UNL     1      26.168  -1.576  55.203  1.00  0.00     0.161 HD
ENDROOT
BRANCH  10  18
HETATM   18  C11 UNL     1      28.063  -0.337  53.607  1.00  0.00    -0.007 A 
HETATM   19  C12 UNL     1      28.796  -1.427  53.325  1.00  0.00     0.014 A 
HETATM   20  C13 UNL     1      30.064  -0.778  53.577  1.00  0.00     0.002 A 
HETATM   21  C14 UNL     1      29.349   0.281  53.855  1.00  0.00     0.014 A 
ENDBRANCH  10  18
BRANCH   1  22
HETATM   22  O1  UNL     1      24.612   5.808  48.723  1.00  0.00    -0.356 OA
HETATM   23  C1  UNL     1      25.770   6.552  48.533  1.00  0.00     0.210 C 
ENDBRANCH   1  22
TORSDOF 2
ENDMDL
MODEL 3
REMARK VINA RESULT:      -8.0      2.861      4.889
REMARK  2 active torsions:
REMARK  status: ('A' for Active; 'I' for Inactive)
REMARK    1  A    between atoms: O1_2  and  C2_3 
REMARK    2  A    between atoms: C10_12  and  C11_13 
ROOT
HETATM    1  C2  UNL     1      25.874  -0.598  52.989  1.00  0.00     0.069 A 
HETATM    2  C3  UNL     1      24.536  -0.478  53.303  1.00  0.00     0.039 A 
HETATM    3  C4  UNL     1      23.852   0.640  52.875  1.00  0.00     0.040 A 
HETATM    4  C5  UNL     1      24.498   1.617  52.146  1.00  0.00     0.086 A 
HETATM    5  C6  UNL     1      25.847   1.543  51.804  1.00  0.00    -0.004 A 
HETATM    6  C7  UNL     1      26.508   0.393  52.257  1.00  0.00     0.048 A 
HETATM    7  C8  UNL     1      26.852   2.311  51.089  1.00  0.00     0.161 C 
HETATM    8  N1  UNL     1      26.450   3.651  50.738  1.00  0.00    -0.380 N 
HETATM    9  C9  UNL     1      25.189   4.153  50.303  1.00  0.00     0.109 A 
HETATM   10  C10 UNL     1      25.302   5.084  49.374  1.00  0.00     0.070 A 
HETATM   11  N2  UNL     1      24.048   5.589  48.952  1.00  0.00    -0.369 N 
HETATM   12  C15 UNL     1      22.737   5.160  49.347  1.00  0.00     0.273 A 
HETATM   13  N3  UNL     1      22.756   4.133  50.368  1.00  0.00    -0.245 NA
HETATM   14  C16 UNL     1      23.897   3.660  50.816  1.00  0.00     0.196 A 
HETATM   15  O2  UNL     1      23.650   2.678  51.796  1.00  0.00    -0.290 OA
HETATM   16  H9  UNL     1      27.076   4.518  50.771  1.00  0.00     0.160 HD
HETATM   17  H13 UNL     1      23.995   6.380  48.261  1.00  0.00     0.161 HD
ENDROOT
BRANCH  10  18
HETATM   18  C11 UNL     1      26.560   5.526  48.862  1.00  0.00    -0.007 A 
HETATM   19  C12 UNL     1      26.845   6.778  48.466  1.00  0.00     0.014 A 
HETATM   20  C13 UNL     1      28.209   6.471  48.094  1.00  0.00     0.002 A 
HETATM   21  C14 UNL     1      27.929   5.252  48.476  1.00  0.00     0.014 A 
ENDBRANCH  10  18
BRANCH   1  22
HETATM   22  O1  UNL     1      26.531  -1.728  53.433  1.00  0.00    -0.356 OA
HETATM   23  C1  UNL     1      27.534  -2.437  52.782  1.00  0.00     0.210 C 
ENDBRANCH   1  22
TORSDOF 2
ENDMDL
MODEL 4
REMARK VINA RESULT:      -7.7      2.533      6.161
REMARK  2 active torsions:
REMARK  status: ('A' for Active; 'I' for Inactive)
REMARK    1  A    between atoms: O1_2  and  C2_3 
REMARK    2  A    between atoms: C10_12  and  C11_13 
ROOT
HETATM    1  C2  UNL     1      24.718   4.809  49.118  1.00  0.00     0.069 A 
HETATM    2  C3  UNL     1      26.097   4.766  49.142  1.00  0.00     0.039 A 
HETATM    3  C4  UNL     1      26.716   3.865  49.984  1.00  0.00     0.040 A 
HETATM    4  C5  UNL     1      25.966   3.027  50.783  1.00  0.00     0.086 A 
HETATM    5  C6  UNL     1      24.574   3.033  50.795  1.00  0.00    -0.004 A 
HETATM    6  C7  UNL     1      23.980   3.961  49.927  1.00  0.00     0.048 A 
HETATM    7  C8  UNL     1      23.468   2.353  51.449  1.00  0.00     0.161 C 
HETATM    8  N1  UNL     1      23.848   1.516  52.560  1.00  0.00    -0.380 N 
HETATM    9  C9  UNL     1      24.986   0.677  52.738  1.00  0.00     0.109 A 
HETATM   10  C10 UNL     1      24.699  -0.448  53.363  1.00  0.00     0.070 A 
HETATM   11  N2  UNL     1      25.834  -1.275  53.550  1.00  0.00    -0.369 N 
HETATM   12  C15 UNL     1      27.174  -1.065  53.082  1.00  0.00     0.273 A 
HETATM   13  N3  UNL     1      27.351   0.206  52.411  1.00  0.00    -0.245 NA
HETATM   14  C16 UNL     1      26.335   1.021  52.248  1.00  0.00     0.196 A 
HETATM   15  O2  UNL     1      26.761   2.181  51.571  1.00  0.00    -0.290 OA
HETATM   16  H9  UNL     1      23.304   1.411  53.475  1.00  0.00     0.160 HD
HETATM   17  H13 UNL     1      25.758  -2.175  54.090  1.00  0.00     0.161 HD
ENDROOT
BRANCH  10  18
HETATM   18  C11 UNL     1      23.380  -0.783  53.802  1.00  0.00    -0.007 A 
HETATM   19  C12 UNL     1      23.027  -1.065  55.067  1.00  0.00     0.014 A 
HETATM   20  C13 UNL     1      21.635  -1.294  54.747  1.00  0.00     0.002 A 
HETATM   21  C14 UNL     1      21.981  -1.023  53.515  1.00  0.00     0.014 A 
ENDBRANCH  10  18
BRANCH   1  22
HETATM   22  O1  UNL     1      24.128   5.722  48.266  1.00  0.00    -0.356 OA
HETATM   23  C1  UNL     1      24.116   7.107  48.383  1.00  0.00     0.210 C 
ENDBRANCH   1  22
TORSDOF 2
ENDMDL
MODEL 5
REMARK VINA RESULT:      -7.3      2.353      3.856
REMARK  2 active torsions:
REMARK  status: ('A' for Active; 'I' for Inactive)
REMARK    1  A    between atoms: O1_2  and  C2_3 
REMARK    2  A    between atoms: C10_12  and  C11_13 
ROOT
HETATM    1  C2  UNL     1      17.500   0.245  51.834  1.00  0.00     0.069 A 
HETATM    2  C3  UNL     1      17.220  -0.708  52.793  1.00  0.00     0.039 A 
HETATM    3  C4  UNL     1      18.268  -1.289  53.475  1.00  0.00     0.040 A 
HETATM    4  C5  UNL     1      19.569  -0.921  53.200  1.00  0.00     0.086 A 
HETATM    5  C6  UNL     1      19.903   0.034  52.243  1.00  0.00    -0.004 A 
HETATM    6  C7  UNL     1      18.812   0.602  51.571  1.00  0.00     0.048 A 
HETATM    7  C8  UNL     1      21.080   0.674  51.679  1.00  0.00     0.161 C 
HETATM    8  N1  UNL     1      22.334   0.069  52.059  1.00  0.00    -0.380 N 
HETATM    9  C9  UNL     1      22.749  -0.495  53.299  1.00  0.00     0.109 A 
HETATM   10  C10 UNL     1      24.009  -0.229  53.585  1.00  0.00     0.070 A 
HETATM   11  N2  UNL     1      24.423  -0.801  54.814  1.00  0.00    -0.369 N 
HETATM   12  C15 UNL     1      23.635  -1.529  55.766  1.00  0.00     0.273 A 
HETATM   13  N3  UNL     1      22.272  -1.749  55.330  1.00  0.00    -0.245 NA
HETATM   14  C16 UNL     1      21.854  -1.268  54.181  1.00  0.00     0.196 A 
HETATM   15  O2  UNL     1      20.502  -1.613  53.987  1.00  0.00    -0.290 OA
HETATM   16  H9  UNL     1      23.180  -0.065  51.417  1.00  0.00     0.160 HD
HETATM   17  H13 UNL     1      25.422  -0.719  55.132  1.00  0.00     0.161 HD
ENDROOT
BRANCH  10  18
HETATM   18  C11 UNL     1      24.854   0.552  52.737  1.00  0.00    -0.007 A 
HETATM   19  C12 UNL     1      26.080   0.196  52.316  1.00  0.00     0.014 A 
HETATM   20  C13 UNL     1      26.294   1.409  51.557  1.00  0.00     0.002 A 
HETATM   21  C14 UNL     1      25.102   1.755  51.971  1.00  0.00     0.014 A 
ENDBRANCH  10  18
BRANCH   1  22
HETATM   22  O1  UNL     1      16.428   0.808  51.168  1.00  0.00    -0.356 OA
HETATM   23  C1  UNL     1      15.238   0.191  50.804  1.00  0.00     0.210 C 
ENDBRANCH   1  22
TORSDOF 2
ENDMDL
MODEL 6
REMARK VINA RESULT:      -7.2      3.009      5.270
REMARK  2 active torsions:
REMARK  status: ('A' for Active; 'I' for Inactive)
REMARK    1  A    between atoms: O1_2  and  C2_3 
REMARK    2  A    between atoms: C10_12  and  C11_13 
ROOT
HETATM    1  C2  UNL     1      21.956   4.946  50.896  1.00  0.00     0.069 A 
HETATM    2  C3  UNL     1      20.719   4.488  51.302  1.00  0.00     0.039 A 
HETATM    3  C4  UNL     1      20.642   3.266  51.937  1.00  0.00     0.040 A 
HETATM    4  C5  UNL     1      21.781   2.521  52.158  1.00  0.00     0.086 A 
HETATM    5  C6  UNL     1      23.051   2.939  51.767  1.00  0.00    -0.004 A 
HETATM    6  C7  UNL     1      23.090   4.185  51.125  1.00  0.00     0.048 A 
HETATM    7  C8  UNL     1      24.431   2.481  51.809  1.00  0.00     0.161 C 
HETATM    8  N1  UNL     1      24.598   1.108  52.217  1.00  0.00    -0.380 N 
HETATM    9  C9  UNL     1      23.901   0.344  53.197  1.00  0.00     0.109 A 
HETATM   10  C10 UNL     1      24.692  -0.473  53.866  1.00  0.00     0.070 A 
HETATM   11  N2  UNL     1      23.995  -1.240  54.832  1.00  0.00    -0.369 N 
HETATM   12  C15 UNL     1      22.608  -1.164  55.195  1.00  0.00     0.273 A 
HETATM   13  N3  UNL     1      21.856  -0.228  54.387  1.00  0.00    -0.245 NA
HETATM   14  C16 UNL     1      22.454   0.478  53.454  1.00  0.00     0.196 A 
HETATM   15  O2  UNL     1      21.514   1.309  52.814  1.00  0.00    -0.290 OA
HETATM   16  H9  UNL     1      25.303   0.417  51.805  1.00  0.00     0.160 HD
HETATM   17  H13 UNL     1      24.494  -1.976  55.392  1.00  0.00     0.161 HD
ENDROOT
BRANCH  10  18
HETATM   18  C11 UNL     1      26.098  -0.566  53.628  1.00  0.00    -0.007 A 
HETATM   19  C12 UNL     1      26.694  -1.445  52.806  1.00  0.00     0.014 A 
HETATM   20  C13 UNL     1      28.032  -0.965  53.078  1.00  0.00     0.002 A 
HETATM   21  C14 UNL     1      27.450  -0.112  53.881  1.00  0.00     0.014 A 
ENDBRANCH  10  18
BRANCH   1  22
HETATM   22  O1  UNL     1      22.001   6.173  50.263  1.00  0.00    -0.356 OA
HETATM   23  C1  UNL     1      21.542   7.393  50.745  1.00  0.00     0.210 C 
ENDBRANCH   1  22
TORSDOF 2
ENDMDL
MODEL 7
REMARK VINA RESULT:      -7.1      2.546      4.703
REMARK  2 active torsions:
REMARK  status: ('A' for Active; 'I' for Inactive)
REMARK    1  A    between atoms: O1_2  and  C2_3 
REMARK    2  A    between atoms: C10_12  and  C11_13 
ROOT
HETATM    1  C2  UNL     1      21.425   3.107  50.377  1.00  0.00     0.069 A 
HETATM    2  C3  UNL     1      20.357   2.432  50.933  1.00  0.00     0.039 A 
HETATM    3  C4  UNL     1      20.611   1.399  51.810  1.00  0.00     0.040 A 
HETATM    4  C5  UNL     1      21.908   1.051  52.123  1.00  0.00     0.086 A 
HETATM    5  C6  UNL     1      23.019   1.700  51.589  1.00  0.00    -0.004 A 
HETATM    6  C7  UNL     1      22.722   2.744  50.702  1.00  0.00     0.048 A 
HETATM    7  C8  UNL     1      24.470   1.648  51.654  1.00  0.00     0.161 C 
HETATM    8  N1  UNL     1      25.002   0.490  52.329  1.00  0.00    -0.380 N 
HETATM    9  C9  UNL     1      24.532  -0.205  53.481  1.00  0.00     0.109 A 
HETATM   10  C10 UNL     1      25.511  -0.618  54.263  1.00  0.00     0.070 A 
HETATM   11  N2  UNL     1      25.042  -1.319  55.402  1.00  0.00    -0.369 N 
HETATM   12  C15 UNL     1      23.685  -1.541  55.812  1.00  0.00     0.273 A 
HETATM   13  N3  UNL     1      22.712  -1.036  54.867  1.00  0.00    -0.245 NA
HETATM   14  C16 UNL     1      23.102  -0.412  53.779  1.00  0.00     0.196 A 
HETATM   15  O2  UNL     1      21.976  -0.019  53.028  1.00  0.00    -0.290 OA
HETATM   16  H9  UNL     1      25.872  -0.058  52.034  1.00  0.00     0.160 HD
HETATM   17  H13 UNL     1      25.718  -1.758  56.077  1.00  0.00     0.161 HD
ENDROOT
BRANCH  10  18
HETATM   18  C11 UNL     1      26.891  -0.380  53.979  1.00  0.00    -0.007 A 
HETATM   19  C12 UNL     1      27.729   0.348  54.736  1.00  0.00     0.014 A 
HETATM   20  C13 UNL     1      28.867   0.152  53.864  1.00  0.00     0.002 A 
HETATM   21  C14 UNL     1      28.048  -0.553  53.126  1.00  0.00     0.014 A 
ENDBRANCH  10  18
BRANCH   1  22
HETATM   22  O1  UNL     1      21.139   4.136  49.502  1.00  0.00    -0.356 OA
HETATM   23  C1  UNL     1      21.694   5.410  49.480  1.00  0.00     0.210 C 
ENDBRANCH   1  22
TORSDOF 2
ENDMDL
MODEL 8
REMARK VINA RESULT:      -7.0      7.452     10.797
REMARK  2 active torsions:
REMARK  status: ('A' for Active; 'I' for Inactive)
REMARK    1  A    between atoms: O1_2  and  C2_3 
REMARK    2  A    between atoms: C10_12  and  C11_13 
ROOT
HETATM    1  C2  UNL     1      27.423   6.645  48.522  1.00  0.00     0.069 A 
HETATM    2  C3  UNL     1      27.602   7.983  48.811  1.00  0.00     0.039 A 
HETATM    3  C4  UNL     1      28.881   8.498  48.797  1.00  0.00     0.040 A 
HETATM    4  C5  UNL     1      29.957   7.689  48.499  1.00  0.00     0.086 A 
HETATM    5  C6  UNL     1      29.829   6.334  48.201  1.00  0.00    -0.004 A 
HETATM    6  C7  UNL     1      28.515   5.846  48.225  1.00  0.00     0.048 A 
HETATM    7  C8  UNL     1      30.659   5.193  47.852  1.00  0.00     0.161 C 
HETATM    8  N1  UNL     1      32.077   5.412  48.001  1.00  0.00    -0.380 N 
HETATM    9  C9  UNL     1      32.866   6.568  47.736  1.00  0.00     0.109 A 
HETATM   10  C10 UNL     1      34.044   6.275  47.216  1.00  0.00     0.070 A 
HETATM   11  N2  UNL     1      34.831   7.426  46.965  1.00  0.00    -0.369 N 
HETATM   12  C15 UNL     1      34.470   8.805  47.130  1.00  0.00     0.273 A 
HETATM   13  N3  UNL     1      33.153   8.985  47.705  1.00  0.00    -0.245 NA
HETATM   14  C16 UNL     1      32.402   7.945  47.989  1.00  0.00     0.196 A 
HETATM   15  O2  UNL     1      31.177   8.380  48.533  1.00  0.00    -0.290 OA
HETATM   16  H9  UNL     1      32.782   4.697  48.371  1.00  0.00     0.160 HD
HETATM   17  H13 UNL     1      35.817   7.332  46.609  1.00  0.00     0.161 HD
ENDROOT
BRANCH  10  18
HETATM   18  C11 UNL     1      34.466   4.937  46.945  1.00  0.00    -0.007 A 
HETATM   19  C12 UNL     1      34.636   4.405  45.723  1.00  0.00     0.014 A 
HETATM   20  C13 UNL     1      35.038   3.107  46.221  1.00  0.00     0.002 A 
HETATM   21  C14 UNL     1      34.868   3.626  47.409  1.00  0.00     0.014 A 
ENDBRANCH  10  18
BRANCH   1  22
HETATM   22  O1  UNL     1      26.131   6.159  48.544  1.00  0.00    -0.356 OA
HETATM   23  C1  UNL     1      25.572   5.280  49.465  1.00  0.00     0.210 C 
ENDBRANCH   1  22
TORSDOF 2
ENDMDL
MODEL 9
REMARK VINA RESULT:      -6.7      3.963      8.450
REMARK  2 active torsions:
REMARK  status: ('A' for Active; 'I' for Inactive)
REMARK    1  A    between atoms: O1_2  and  C2_3 
REMARK    2  A    between atoms: C10_12  and  C11_13 
ROOT
HETATM    1  C2  UNL     1      28.639   6.186  48.028  1.00  0.00     0.069 A 
HETATM    2  C3  UNL     1      27.890   7.284  47.654  1.00  0.00     0.039 A 
HETATM    3  C4  UNL     1      26.554   7.322  47.996  1.00  0.00     0.040 A 
HETATM    4  C5  UNL     1      25.983   6.280  48.696  1.00  0.00     0.086 A 
HETATM    5  C6  UNL     1      26.695   5.151  49.095  1.00  0.00    -0.004 A 
HETATM    6  C7  UNL     1      28.049   5.149  48.730  1.00  0.00     0.048 A 
HETATM    7  C8  UNL     1      26.484   3.902  49.808  1.00  0.00     0.161 C 
HETATM    8  N1  UNL     1      25.102   3.585  50.071  1.00  0.00    -0.380 N 
HETATM    9  C9  UNL     1      24.012   4.430  50.428  1.00  0.00     0.109 A 
HETATM   10  C10 UNL     1      23.202   3.875  51.309  1.00  0.00     0.070 A 
HETATM   11  N2  UNL     1      22.113   4.712  51.654  1.00  0.00    -0.369 N 
HETATM   12  C15 UNL     1      21.858   6.060  51.230  1.00  0.00     0.273 A 
HETATM   13  N3  UNL     1      22.823   6.547  50.267  1.00  0.00    -0.245 NA
HETATM   14  C16 UNL     1      23.829   5.791  49.890  1.00  0.00     0.196 A 
HETATM   15  O2  UNL     1      24.620   6.488  48.955  1.00  0.00    -0.290 OA
HETATM   16  H9  UNL     1      24.666   2.609  50.016  1.00  0.00     0.160 HD
HETATM   17  H13 UNL     1      21.357   4.368  52.299  1.00  0.00     0.161 HD
ENDROOT
BRANCH  10  18
HETATM   18  C11 UNL     1      23.412   2.567  51.847  1.00  0.00    -0.007 A 
HETATM   19  C12 UNL     1      23.942   2.295  53.051  1.00  0.00     0.014 A 
HETATM   20  C13 UNL     1      23.847   0.860  52.894  1.00  0.00     0.002 A 
HETATM   21  C14 UNL     1      23.334   1.127  51.721  1.00  0.00     0.014 A 
ENDBRANCH  10  18
BRANCH   1  22
HETATM   22  O1  UNL     1      29.973   6.178  47.671  1.00  0.00    -0.356 OA
HETATM   23  C1  UNL     1      30.912   7.182  47.878  1.00  0.00     0.210 C 
ENDBRANCH   1  22
TORSDOF 2
ENDMDL
