MODEL 1
REMARK VINA RESULT:      -7.9      0.000      0.000
REMARK  4 active torsions:
REMARK  status: ('A' for Active; 'I' for Inactive)
REMARK    1  A    between atoms: O1_2  and  C2_3 
REMARK    2  A    between atoms: C10_12  and  O2_13 
REMARK    3  A    between atoms: C13_17  and  N3_18 
REMARK    4  A    between atoms: N5_21  and  C15_22 
ROOT
HETATM    1  C2  UNL     1      18.270   0.133  51.091  1.00  0.00     0.100 C 
HETATM    2  C3  UNL     1      18.789   0.856  50.066  1.00  0.00     0.032 C 
HETATM    3  C4  UNL     1      19.974   1.764  49.997  1.00  0.00     0.155 C 
HETATM    4  N1  UNL     1      20.933   1.628  51.014  1.00  0.00    -0.356 N 
HETATM    5  C5  UNL     1      22.331   1.136  50.900  1.00  0.00     0.181 C 
HETATM    6  C6  UNL     1      22.772   0.893  52.329  1.00  0.00     0.025 C 
HETATM    7  C7  UNL     1      22.350   0.037  53.312  1.00  0.00     0.005 C 
HETATM    8  C8  UNL     1      20.894  -0.260  53.598  1.00  0.00     0.074 C 
HETATM    9  C9  UNL     1      19.981   0.638  52.754  1.00  0.00     0.028 C 
HETATM   10  C10 UNL     1      18.879  -0.051  52.449  1.00  0.00     0.111 C 
HETATM   11  C12 UNL     1      20.440   1.993  52.373  1.00  0.00     0.140 C 
HETATM   12  N2  UNL     1      20.644   3.209  52.727  1.00  0.00    -0.185 NA
HETATM   13  C13 UNL     1      21.332   3.911  51.697  1.00  0.00     0.273 C 
HETATM   14  N4  UNL     1      22.464   3.656  52.121  1.00  0.00    -0.394 NA
HETATM   15  C14 UNL     1      23.440   3.167  52.893  1.00  0.00     0.348 C 
HETATM   16  N5  UNL     1      23.817   1.733  52.879  1.00  0.00    -0.344 N 
ENDROOT
BRANCH  16  17
HETATM   17  C15 UNL     1      24.850   0.815  53.313  1.00  0.00     0.134 A 
HETATM   18  C16 UNL     1      25.500   0.033  52.261  1.00  0.00     0.004 A 
HETATM   19  C17 UNL     1      26.796   0.375  52.162  1.00  0.00     0.017 A 
HETATM   20  C18 UNL     1      27.081   1.423  53.160  1.00  0.00     0.009 A 
HETATM   21 BR1  UNL     1      28.638   2.412  53.646  1.00  0.00    -0.051 Br
HETATM   22  C19 UNL     1      25.959   1.664  53.810  1.00  0.00     0.021 A 
ENDBRANCH  16  17
BRANCH  13  23
HETATM   23  N3  UNL     1      21.392   4.706  50.515  1.00  0.00    -0.358 N 
HETATM   24  H15 UNL     1      22.164   5.397  50.464  1.00  0.00     0.160 HD
HETATM   25  H16 UNL     1      20.540   4.137  50.254  1.00  0.00     0.160 HD
ENDBRANCH  13  23
BRANCH  10  26
HETATM   26  O2  UNL     1      18.547  -0.825  53.540  1.00  0.00    -0.352 OA
HETATM   27  C11 UNL     1      18.064  -2.151  53.445  1.00  0.00     0.210 C 
ENDBRANCH  10  26
BRANCH   1  28
HETATM   28  O1  UNL     1      17.101  -0.565  51.090  1.00  0.00    -0.353 OA
HETATM   29  C1  UNL     1      15.804  -0.137  51.318  1.00  0.00     0.210 C 
ENDBRANCH   1  28
TORSDOF 4
ENDMDL
MODEL 2
REMARK VINA RESULT:      -7.8      7.304      9.926
REMARK  4 active torsions:
REMARK  status: ('A' for Active; 'I' for Inactive)
REMARK    1  A    between atoms: O1_2  and  C2_3 
REMARK    2  A    between atoms: C10_12  and  O2_13 
REMARK    3  A    between atoms: C13_17  and  N3_18 
REMARK    4  A    between atoms: N5_21  and  C15_22 
ROOT
HETATM    1  C2  UNL     1      28.738   9.000  49.315  1.00  0.00     0.100 C 
HETATM    2  C3  UNL     1      27.667   9.543  49.949  1.00  0.00     0.032 C 
HETATM    3  C4  UNL     1      26.224   9.155  49.960  1.00  0.00     0.155 C 
HETATM    4  N1  UNL     1      25.919   7.847  49.550  1.00  0.00    -0.356 N 
HETATM    5  C5  UNL     1      25.382   6.727  50.369  1.00  0.00     0.181 C 
HETATM    6  C6  UNL     1      25.566   5.496  49.505  1.00  0.00     0.025 C 
HETATM    7  C7  UNL     1      26.667   4.852  49.005  1.00  0.00     0.005 C 
HETATM    8  C8  UNL     1      27.866   5.570  48.423  1.00  0.00     0.074 C 
HETATM    9  C9  UNL     1      27.604   7.078  48.331  1.00  0.00     0.028 C 
HETATM   10  C10 UNL     1      28.757   7.718  48.537  1.00  0.00     0.111 C 
HETATM   11  C12 UNL     1      26.223   7.567  48.117  1.00  0.00     0.140 C 
HETATM   12  N2  UNL     1      25.252   7.751  47.299  1.00  0.00    -0.185 NA
HETATM   13  C13 UNL     1      24.089   8.170  48.005  1.00  0.00     0.273 C 
HETATM   14  N4  UNL     1      23.648   7.030  48.186  1.00  0.00    -0.394 NA
HETATM   15  C14 UNL     1      23.550   5.697  48.153  1.00  0.00     0.348 C 
HETATM   16  N5  UNL     1      24.383   4.820  49.010  1.00  0.00    -0.344 N 
ENDROOT
BRANCH  16  17
HETATM   17  C15 UNL     1      24.504   3.455  49.479  1.00  0.00     0.134 A 
HETATM   18  C16 UNL     1      24.284   3.244  50.910  1.00  0.00     0.004 A 
HETATM   19  C17 UNL     1      23.184   2.494  51.104  1.00  0.00     0.017 A 
HETATM   20  C18 UNL     1      22.606   2.163  49.789  1.00  0.00     0.009 A 
HETATM   21 BR1  UNL     1      21.085   1.163  49.216  1.00  0.00    -0.051 Br
HETATM   22  C19 UNL     1      23.371   2.719  48.870  1.00  0.00     0.021 A 
ENDBRANCH  16  17
BRANCH  13  23
HETATM   23  N3  UNL     1      23.223   9.152  48.570  1.00  0.00    -0.358 N 
HETATM   24  H15 UNL     1      22.316   8.808  48.938  1.00  0.00     0.160 HD
HETATM   25  H16 UNL     1      24.015   9.802  48.310  1.00  0.00     0.160 HD
ENDBRANCH  13  23
BRANCH  10  26
HETATM   26  O2  UNL     1      29.761   6.986  47.942  1.00  0.00    -0.352 OA
HETATM   27  C11 UNL     1      30.430   7.384  46.761  1.00  0.00     0.210 C 
ENDBRANCH  10  26
BRANCH   1  28
HETATM   28  O1  UNL     1      29.999   9.508  49.260  1.00  0.00    -0.353 OA
HETATM   29  C1  UNL     1      30.436  10.791  48.974  1.00  0.00     0.210 C 
ENDBRANCH   1  28
TORSDOF 4
ENDMDL
MODEL 3
REMARK VINA RESULT:      -7.8      3.173      4.713
REMARK  4 active torsions:
REMARK  status: ('A' for Active; 'I' for Inactive)
REMARK    1  A    between atoms: O1_2  and  C2_3 
REMARK    2  A    between atoms: C10_12  and  O2_13 
REMARK    3  A    between atoms: C13_17  and  N3_18 
REMARK    4  A    between atoms: N5_21  and  C15_22 
ROOT
HETATM    1  C2  UNL     1      20.941   4.502  49.940  1.00  0.00     0.100 C 
HETATM    2  C3  UNL     1      20.629   4.413  51.259  1.00  0.00     0.032 C 
HETATM    3  C4  UNL     1      21.160   3.534  52.343  1.00  0.00     0.155 C 
HETATM    4  N1  UNL     1      22.404   2.925  52.109  1.00  0.00    -0.356 N 
HETATM    5  C5  UNL     1      23.696   3.175  52.801  1.00  0.00     0.181 C 
HETATM    6  C6  UNL     1      24.736   2.499  51.931  1.00  0.00     0.025 C 
HETATM    7  C7  UNL     1      25.168   2.704  50.647  1.00  0.00     0.005 C 
HETATM    8  C8  UNL     1      24.241   3.007  49.490  1.00  0.00     0.074 C 
HETATM    9  C9  UNL     1      22.775   2.893  49.924  1.00  0.00     0.028 C 
HETATM   10  C10 UNL     1      22.062   3.793  49.241  1.00  0.00     0.111 C 
HETATM   11  C12 UNL     1      22.402   1.937  50.991  1.00  0.00     0.140 C 
HETATM   12  N2  UNL     1      22.182   0.719  51.329  1.00  0.00    -0.185 NA
HETATM   13  C13 UNL     1      22.013   0.625  52.740  1.00  0.00     0.273 C 
HETATM   14  N4  UNL     1      23.206   0.420  52.985  1.00  0.00    -0.394 NA
HETATM   15  C14 UNL     1      24.517   0.233  52.798  1.00  0.00     0.348 C 
HETATM   16  N5  UNL     1      25.436   1.347  52.464  1.00  0.00    -0.344 N 
ENDROOT
BRANCH  16  17
HETATM   17  C15 UNL     1      26.841   1.690  52.385  1.00  0.00     0.134 A 
HETATM   18  C16 UNL     1      27.412   2.343  53.564  1.00  0.00     0.004 A 
HETATM   19  C17 UNL     1      28.337   1.548  54.132  1.00  0.00     0.017 A 
HETATM   20  C18 UNL     1      28.429   0.303  53.348  1.00  0.00     0.009 A 
HETATM   21 BR1  UNL     1      29.474  -1.287  53.490  1.00  0.00    -0.051 Br
HETATM   22  C19 UNL     1      27.569   0.399  52.353  1.00  0.00     0.021 A 
ENDBRANCH  16  17
BRANCH  13  23
HETATM   23  N3  UNL     1      21.237   0.637  53.936  1.00  0.00    -0.358 N 
HETATM   24  H15 UNL     1      21.502   1.342  54.649  1.00  0.00     0.160 HD
HETATM   25  H16 UNL     1      20.728  -0.152  53.451  1.00  0.00     0.160 HD
ENDBRANCH  13  23
BRANCH  10  26
HETATM   26  O2  UNL     1      22.574   3.857  47.963  1.00  0.00    -0.352 OA
HETATM   27  C11 UNL     1      21.926   3.315  46.829  1.00  0.00     0.210 C 
ENDBRANCH  10  26
BRANCH   1  28
HETATM   28  O1  UNL     1      20.303   5.247  48.997  1.00  0.00    -0.353 OA
HETATM   29  C1  UNL     1      20.207   6.622  48.858  1.00  0.00     0.210 C 
ENDBRANCH   1  28
TORSDOF 4
ENDMDL
MODEL 4
REMARK VINA RESULT:      -7.5      3.991      5.602
REMARK  4 active torsions:
REMARK  status: ('A' for Active; 'I' for Inactive)
REMARK    1  A    between atoms: O1_2  and  C2_3 
REMARK    2  A    between atoms: C10_12  and  O2_13 
REMARK    3  A    between atoms: C13_17  and  N3_18 
REMARK    4  A    between atoms: N5_21  and  C15_22 
ROOT
HETATM    1  C2  UNL     1      22.289   5.730  46.996  1.00  0.00     0.100 C 
HETATM    2  C3  UNL     1      23.413   6.312  47.488  1.00  0.00     0.032 C 
HETATM    3  C4  UNL     1      24.108   6.165  48.802  1.00  0.00     0.155 C 
HETATM    4  N1  UNL     1      23.800   5.019  49.554  1.00  0.00    -0.356 N 
HETATM    5  C5  UNL     1      24.684   3.870  49.884  1.00  0.00     0.181 C 
HETATM    6  C6  UNL     1      23.748   2.804  50.415  1.00  0.00     0.025 C 
HETATM    7  C7  UNL     1      22.716   2.094  49.858  1.00  0.00     0.005 C 
HETATM    8  C8  UNL     1      21.676   2.705  48.945  1.00  0.00     0.074 C 
HETATM    9  C9  UNL     1      21.848   4.226  48.865  1.00  0.00     0.028 C 
HETATM   10  C10 UNL     1      21.504   4.626  47.638  1.00  0.00     0.111 C 
HETATM   11  C12 UNL     1      22.389   4.961  50.032  1.00  0.00     0.140 C 
HETATM   12  N2  UNL     1      22.180   5.445  51.201  1.00  0.00    -0.185 NA
HETATM   13  C13 UNL     1      23.402   5.908  51.766  1.00  0.00     0.273 C 
HETATM   14  N4  UNL     1      23.686   4.840  52.318  1.00  0.00    -0.394 NA
HETATM   15  C14 UNL     1      23.598   3.568  52.723  1.00  0.00     0.348 C 
HETATM   16  N5  UNL     1      23.853   2.428  51.811  1.00  0.00    -0.344 N 
ENDROOT
BRANCH  16  17
HETATM   17  C15 UNL     1      24.088   0.999  51.800  1.00  0.00     0.134 A 
HETATM   18  C16 UNL     1      25.313   0.542  52.456  1.00  0.00     0.004 A 
HETATM   19  C17 UNL     1      25.012  -0.202  53.535  1.00  0.00     0.017 A 
HETATM   20  C18 UNL     1      23.545  -0.280  53.655  1.00  0.00     0.009 A 
HETATM   21 BR1  UNL     1      22.351  -1.123  54.881  1.00  0.00    -0.051 Br
HETATM   22  C19 UNL     1      23.031   0.411  52.656  1.00  0.00     0.021 A 
ENDBRANCH  16  17
BRANCH  13  23
HETATM   23  N3  UNL     1      24.400   6.896  52.014  1.00  0.00    -0.358 N 
HETATM   24  H15 UNL     1      24.970   6.769  52.872  1.00  0.00     0.160 HD
HETATM   25  H16 UNL     1      24.027   7.302  51.112  1.00  0.00     0.160 HD
ENDBRANCH  13  23
BRANCH  10  26
HETATM   26  O2  UNL     1      20.431   3.864  47.230  1.00  0.00    -0.352 OA
HETATM   27  C11 UNL     1      19.098   4.334  47.203  1.00  0.00     0.210 C 
ENDBRANCH  10  26
BRANCH   1  28
HETATM   28  O1  UNL     1      21.656   6.031  45.830  1.00  0.00    -0.353 OA
HETATM   29  C1  UNL     1      22.171   6.254  44.564  1.00  0.00     0.210 C 
ENDBRANCH   1  28
TORSDOF 4
ENDMDL
MODEL 5
REMARK VINA RESULT:      -7.5      8.228      9.914
REMARK  4 active torsions:
REMARK  status: ('A' for Active; 'I' for Inactive)
REMARK    1  A    between atoms: O1_2  and  C2_3 
REMARK    2  A    between atoms: C10_12  and  O2_13 
REMARK    3  A    between atoms: C13_17  and  N3_18 
REMARK    4  A    between atoms: N5_21  and  C15_22 
ROOT
HETATM    1  C2  UNL     1      24.658   7.378  47.644  1.00  0.00     0.100 C 
HETATM    2  C3  UNL     1      25.180   8.439  46.977  1.00  0.00     0.032 C 
HETATM    3  C4  UNL     1      26.548   9.039  46.989  1.00  0.00     0.155 C 
HETATM    4  N1  UNL     1      27.587   8.230  47.480  1.00  0.00    -0.356 N 
HETATM    5  C5  UNL     1      28.736   7.654  46.732  1.00  0.00     0.181 C 
HETATM    6  C6  UNL     1      29.328   6.622  47.672  1.00  0.00     0.025 C 
HETATM    7  C7  UNL     1      28.851   5.457  48.212  1.00  0.00     0.005 C 
HETATM    8  C8  UNL     1      27.445   5.295  48.749  1.00  0.00     0.074 C 
HETATM    9  C9  UNL     1      26.705   6.638  48.745  1.00  0.00     0.028 C 
HETATM   10  C10 UNL     1      25.413   6.406  48.501  1.00  0.00     0.111 C 
HETATM   11  C12 UNL     1      27.469   7.893  48.928  1.00  0.00     0.140 C 
HETATM   12  N2  UNL     1      28.080   8.684  49.732  1.00  0.00    -0.185 NA
HETATM   13  C13 UNL     1      28.754   9.703  49.000  1.00  0.00     0.273 C 
HETATM   14  N4  UNL     1      29.816   9.082  48.890  1.00  0.00    -0.394 NA
HETATM   15  C14 UNL     1      30.724   8.107  49.007  1.00  0.00     0.348 C 
HETATM   16  N5  UNL     1      30.653   6.860  48.207  1.00  0.00    -0.344 N 
ENDROOT
BRANCH  16  17
HETATM   17  C15 UNL     1      31.429   5.698  47.825  1.00  0.00     0.134 A 
HETATM   18  C16 UNL     1      32.071   5.756  46.512  1.00  0.00     0.004 A 
HETATM   19  C17 UNL     1      33.409   5.759  46.649  1.00  0.00     0.017 A 
HETATM   20  C18 UNL     1      33.731   5.703  48.087  1.00  0.00     0.009 A 
HETATM   21 BR1  UNL     1      35.355   5.673  49.088  1.00  0.00    -0.051 Br
HETATM   22  C19 UNL     1      32.590   5.669  48.746  1.00  0.00     0.021 A 
ENDBRANCH  16  17
BRANCH  13  23
HETATM   23  N3  UNL     1      28.838  10.981  48.374  1.00  0.00    -0.358 N 
HETATM   24  H15 UNL     1      29.674  11.552  48.603  1.00  0.00     0.160 HD
HETATM   25  H16 UNL     1      27.921  10.679  47.944  1.00  0.00     0.160 HD
ENDBRANCH  13  23
BRANCH  10  26
HETATM   26  O2  UNL     1      25.063   5.237  49.142  1.00  0.00    -0.352 OA
HETATM   27  C11 UNL     1      24.351   5.193  50.363  1.00  0.00     0.210 C 
ENDBRANCH  10  26
BRANCH   1  28
HETATM   28  O1  UNL     1      23.354   6.987  47.668  1.00  0.00    -0.353 OA
HETATM   29  C1  UNL     1      22.620   6.266  46.742  1.00  0.00     0.210 C 
ENDBRANCH   1  28
TORSDOF 4
ENDMDL
MODEL 6
REMARK VINA RESULT:      -7.4      8.231     11.237
REMARK  4 active torsions:
REMARK  status: ('A' for Active; 'I' for Inactive)
REMARK    1  A    between atoms: O1_2  and  C2_3 
REMARK    2  A    between atoms: C10_12  and  O2_13 
REMARK    3  A    between atoms: C13_17  and  N3_18 
REMARK    4  A    between atoms: N5_21  and  C15_22 
ROOT
HETATM    1  C2  UNL     1      31.008   7.528  48.993  1.00  0.00     0.100 C 
HETATM    2  C3  UNL     1      30.463   8.744  49.254  1.00  0.00     0.032 C 
HETATM    3  C4  UNL     1      29.107   9.302  48.967  1.00  0.00     0.155 C 
HETATM    4  N1  UNL     1      28.088   8.374  48.696  1.00  0.00    -0.356 N 
HETATM    5  C5  UNL     1      26.887   8.061  49.516  1.00  0.00     0.181 C 
HETATM    6  C6  UNL     1      26.337   6.782  48.919  1.00  0.00     0.025 C 
HETATM    7  C7  UNL     1      26.827   5.507  48.809  1.00  0.00     0.005 C 
HETATM    8  C8  UNL     1      28.260   5.189  48.440  1.00  0.00     0.074 C 
HETATM    9  C9  UNL     1      29.020   6.466  48.061  1.00  0.00     0.028 C 
HETATM   10  C10 UNL     1      30.291   6.330  48.446  1.00  0.00     0.111 C 
HETATM   11  C12 UNL     1      28.287   7.594  47.441  1.00  0.00     0.140 C 
HETATM   12  N2  UNL     1      27.737   8.085  46.391  1.00  0.00    -0.185 NA
HETATM   13  C13 UNL     1      27.037   9.280  46.717  1.00  0.00     0.273 C 
HETATM   14  N4  UNL     1      25.961   8.722  46.953  1.00  0.00    -0.394 NA
HETATM   15  C14 UNL     1      25.047   7.756  47.097  1.00  0.00     0.348 C 
HETATM   16  N5  UNL     1      25.050   6.830  48.255  1.00  0.00    -0.344 N 
ENDROOT
BRANCH  16  17
HETATM   17  C15 UNL     1      24.235   5.848  48.939  1.00  0.00     0.134 A 
HETATM   18  C16 UNL     1      23.507   6.321  50.116  1.00  0.00     0.004 A 
HETATM   19  C17 UNL     1      22.181   6.268  49.895  1.00  0.00     0.017 A 
HETATM   20  C18 UNL     1      21.955   5.747  48.534  1.00  0.00     0.009 A 
HETATM   21 BR1  UNL     1      20.402   5.380  47.489  1.00  0.00    -0.051 Br
HETATM   22  C19 UNL     1      23.138   5.512  48.001  1.00  0.00     0.021 A 
ENDBRANCH  16  17
BRANCH  13  23
HETATM   23  N3  UNL     1      26.935  10.691  46.897  1.00  0.00    -0.358 N 
HETATM   24  H15 UNL     1      27.673  11.267  46.448  1.00  0.00     0.160 HD
HETATM   25  H16 UNL     1      26.075  10.421  47.447  1.00  0.00     0.160 HD
ENDBRANCH  13  23
BRANCH  10  26
HETATM   26  O2  UNL     1      30.660   5.019  48.233  1.00  0.00    -0.352 OA
HETATM   27  C11 UNL     1      31.610   4.617  47.266  1.00  0.00     0.210 C 
ENDBRANCH  10  26
BRANCH   1  28
HETATM   28  O1  UNL     1      32.304   7.156  49.175  1.00  0.00    -0.353 OA
HETATM   29  C1  UNL     1      33.466   7.652  48.608  1.00  0.00     0.210 C 
ENDBRANCH   1  28
TORSDOF 4
ENDMDL
MODEL 7
REMARK VINA RESULT:      -7.3      4.205      6.825
REMARK  4 active torsions:
REMARK  status: ('A' for Active; 'I' for Inactive)
REMARK    1  A    between atoms: O1_2  and  C2_3 
REMARK    2  A    between atoms: C10_12  and  O2_13 
REMARK    3  A    between atoms: C13_17  and  N3_18 
REMARK    4  A    between atoms: N5_21  and  C15_22 
ROOT
HETATM    1  C2  UNL     1      25.242   0.414  52.693  1.00  0.00     0.100 C 
HETATM    2  C3  UNL     1      23.919   0.120  52.616  1.00  0.00     0.032 C 
HETATM    3  C4  UNL     1      22.750   0.932  52.159  1.00  0.00     0.155 C 
HETATM    4  N1  UNL     1      23.034   2.051  51.360  1.00  0.00    -0.356 N 
HETATM    5  C5  UNL     1      22.702   2.267  49.927  1.00  0.00     0.181 C 
HETATM    6  C6  UNL     1      23.525   3.472  49.518  1.00  0.00     0.025 C 
HETATM    7  C7  UNL     1      24.872   3.708  49.437  1.00  0.00     0.005 C 
HETATM    8  C8  UNL     1      25.869   3.247  50.478  1.00  0.00     0.074 C 
HETATM    9  C9  UNL     1      25.149   2.633  51.685  1.00  0.00     0.028 C 
HETATM   10  C10 UNL     1      25.910   1.652  52.175  1.00  0.00     0.111 C 
HETATM   11  C12 UNL     1      23.802   3.123  52.057  1.00  0.00     0.140 C 
HETATM   12  N2  UNL     1      23.095   4.042  52.607  1.00  0.00    -0.185 NA
HETATM   13  C13 UNL     1      21.711   3.799  52.379  1.00  0.00     0.273 C 
HETATM   14  N4  UNL     1      21.650   4.453  51.333  1.00  0.00    -0.394 NA
HETATM   15  C14 UNL     1      22.023   5.221  50.303  1.00  0.00     0.348 C 
HETATM   16  N5  UNL     1      22.830   4.696  49.175  1.00  0.00    -0.344 N 
ENDROOT
BRANCH  16  17
HETATM   17  C15 UNL     1      23.270   5.017  47.833  1.00  0.00     0.134 A 
HETATM   18  C16 UNL     1      22.293   4.802  46.766  1.00  0.00     0.004 A 
HETATM   19  C17 UNL     1      21.953   5.975  46.204  1.00  0.00     0.017 A 
HETATM   20  C18 UNL     1      22.699   7.052  46.882  1.00  0.00     0.009 A 
HETATM   21 BR1  UNL     1      22.777   8.948  46.682  1.00  0.00    -0.051 Br
HETATM   22  C19 UNL     1      23.447   6.489  47.810  1.00  0.00     0.021 A 
ENDBRANCH  16  17
BRANCH  13  23
HETATM   23  N3  UNL     1      20.443   3.236  52.708  1.00  0.00    -0.358 N 
HETATM   24  H15 UNL     1      19.825   3.813  53.309  1.00  0.00     0.160 HD
HETATM   25  H16 UNL     1      20.798   2.436  52.115  1.00  0.00     0.160 HD
ENDBRANCH  13  23
BRANCH  10  26
HETATM   26  O2  UNL     1      27.227   2.047  52.074  1.00  0.00    -0.352 OA
HETATM   27  C11 UNL     1      28.048   2.337  53.188  1.00  0.00     0.210 C 
ENDBRANCH  10  26
BRANCH   1  28
HETATM   28  O1  UNL     1      26.219  -0.351  53.252  1.00  0.00    -0.353 OA
HETATM   29  C1  UNL     1      26.917  -1.429  52.734  1.00  0.00     0.210 C 
ENDBRANCH   1  28
TORSDOF 4
ENDMDL
MODEL 8
REMARK VINA RESULT:      -7.1      3.587      6.803
REMARK  4 active torsions:
REMARK  status: ('A' for Active; 'I' for Inactive)
REMARK    1  A    between atoms: O1_2  and  C2_3 
REMARK    2  A    between atoms: C10_12  and  O2_13 
REMARK    3  A    between atoms: C13_17  and  N3_18 
REMARK    4  A    between atoms: N5_21  and  C15_22 
ROOT
HETATM    1  C2  UNL     1      24.899   2.382  53.396  1.00  0.00     0.100 C 
HETATM    2  C3  UNL     1      24.435   3.616  53.070  1.00  0.00     0.032 C 
HETATM    3  C4  UNL     1      23.327   4.048  52.165  1.00  0.00     0.155 C 
HETATM    4  N1  UNL     1      22.364   3.079  51.840  1.00  0.00    -0.356 N 
HETATM    5  C5  UNL     1      20.930   3.039  52.231  1.00  0.00     0.181 C 
HETATM    6  C6  UNL     1      20.477   1.634  51.891  1.00  0.00     0.025 C 
HETATM    7  C7  UNL     1      20.832   0.392  52.349  1.00  0.00     0.005 C 
HETATM    8  C8  UNL     1      22.261  -0.022  52.628  1.00  0.00     0.074 C 
HETATM    9  C9  UNL     1      23.240   1.071  52.181  1.00  0.00     0.028 C 
HETATM   10  C10 UNL     1      24.282   1.069  53.015  1.00  0.00     0.111 C 
HETATM   11  C12 UNL     1      22.889   1.939  51.033  1.00  0.00     0.140 C 
HETATM   12  N2  UNL     1      22.785   2.067  49.761  1.00  0.00    -0.185 NA
HETATM   13  C13 UNL     1      22.152   3.302  49.443  1.00  0.00     0.273 C 
HETATM   14  N4  UNL     1      21.005   2.844  49.435  1.00  0.00    -0.394 NA
HETATM   15  C14 UNL     1      19.996   1.971  49.527  1.00  0.00     0.348 C 
HETATM   16  N5  UNL     1      19.504   1.463  50.830  1.00  0.00    -0.344 N 
ENDROOT
BRANCH  16  17
HETATM   17  C15 UNL     1      18.403   0.746  51.439  1.00  0.00     0.134 A 
HETATM   18  C16 UNL     1      17.230   1.547  51.791  1.00  0.00     0.004 A 
HETATM   19  C17 UNL     1      16.173   1.172  51.050  1.00  0.00     0.017 A 
HETATM   20  C18 UNL     1      16.596   0.084  50.149  1.00  0.00     0.009 A 
HETATM   21 BR1  UNL     1      15.714  -0.964  48.820  1.00  0.00    -0.051 Br
HETATM   22  C19 UNL     1      17.872  -0.148  50.383  1.00  0.00     0.021 A 
ENDBRANCH  16  17
BRANCH  13  23
HETATM   23  N3  UNL     1      22.151   4.696  49.143  1.00  0.00    -0.358 N 
HETATM   24  H15 UNL     1      23.047   5.094  48.804  1.00  0.00     0.160 HD
HETATM   25  H16 UNL     1      21.141   4.620  49.442  1.00  0.00     0.160 HD
ENDBRANCH  13  23
BRANCH  10  26
HETATM   26  O2  UNL     1      24.554  -0.239  53.351  1.00  0.00    -0.352 OA
HETATM   27  C11 UNL     1      25.716  -0.931  52.937  1.00  0.00     0.210 C 
ENDBRANCH  10  26
BRANCH   1  28
HETATM   28  O1  UNL     1      26.007   2.093  54.131  1.00  0.00    -0.353 OA
HETATM   29  C1  UNL     1      27.347   2.146  53.787  1.00  0.00     0.210 C 
ENDBRANCH   1  28
TORSDOF 4
ENDMDL
MODEL 9
REMARK VINA RESULT:      -6.9      5.321      8.327
REMARK  4 active torsions:
REMARK  status: ('A' for Active; 'I' for Inactive)
REMARK    1  A    between atoms: O1_2  and  C2_3 
REMARK    2  A    between atoms: C10_12  and  O2_13 
REMARK    3  A    between atoms: C13_17  and  N3_18 
REMARK    4  A    between atoms: N5_21  and  C15_22 
ROOT
HETATM    1  C2  UNL     1      26.797   5.168  48.839  1.00  0.00     0.100 C 
HETATM    2  C3  UNL     1      26.846   3.971  49.478  1.00  0.00     0.032 C 
HETATM    3  C4  UNL     1      25.836   3.254  50.313  1.00  0.00     0.155 C 
HETATM    4  N1  UNL     1      24.499   3.663  50.176  1.00  0.00    -0.356 N 
HETATM    5  C5  UNL     1      23.358   2.903  49.601  1.00  0.00     0.181 C 
HETATM    6  C6  UNL     1      22.265   3.935  49.408  1.00  0.00     0.025 C 
HETATM    7  C7  UNL     1      22.156   5.056  48.628  1.00  0.00     0.005 C 
HETATM    8  C8  UNL     1      23.279   6.051  48.428  1.00  0.00     0.074 C 
HETATM    9  C9  UNL     1      24.471   5.713  49.331  1.00  0.00     0.028 C 
HETATM   10  C10 UNL     1      25.593   6.049  48.690  1.00  0.00     0.111 C 
HETATM   11  C12 UNL     1      24.234   5.057  50.638  1.00  0.00     0.140 C 
HETATM   12  N2  UNL     1      23.853   5.173  51.857  1.00  0.00    -0.185 NA
HETATM   13  C13 UNL     1      23.759   3.889  52.465  1.00  0.00     0.273 C 
HETATM   14  N4  UNL     1      22.573   3.708  52.169  1.00  0.00    -0.394 NA
HETATM   15  C14 UNL     1      21.353   3.924  51.666  1.00  0.00     0.348 C 
HETATM   16  N5  UNL     1      21.066   3.827  50.215  1.00  0.00    -0.344 N 
ENDROOT
BRANCH  16  17
HETATM   17  C15 UNL     1      19.977   3.753  49.263  1.00  0.00     0.134 A 
HETATM   18  C16 UNL     1      19.517   2.408  48.914  1.00  0.00     0.004 A 
HETATM   19  C17 UNL     1      18.256   2.223  49.342  1.00  0.00     0.017 A 
HETATM   20  C18 UNL     1      17.803   3.457  50.011  1.00  0.00     0.009 A 
HETATM   21 BR1  UNL     1      16.184   3.991  50.867  1.00  0.00    -0.051 Br
HETATM   22  C19 UNL     1      18.798   4.321  49.958  1.00  0.00     0.021 A 
ENDBRANCH  16  17
BRANCH  13  23
HETATM   23  N3  UNL     1      24.282   2.780  53.193  1.00  0.00    -0.358 N 
HETATM   24  H15 UNL     1      25.267   2.861  53.510  1.00  0.00     0.160 HD
HETATM   25  H16 UNL     1      23.311   2.394  53.036  1.00  0.00     0.160 HD
ENDBRANCH  13  23
BRANCH  10  26
HETATM   26  O2  UNL     1      25.351   7.213  47.993  1.00  0.00    -0.352 OA
HETATM   27  C11 UNL     1      25.816   8.485  48.400  1.00  0.00     0.210 C 
ENDBRANCH  10  26
BRANCH   1  28
HETATM   28  O1  UNL     1      27.824   5.801  48.208  1.00  0.00    -0.353 OA
HETATM   29  C1  UNL     1      29.185   5.550  48.243  1.00  0.00     0.210 C 
ENDBRANCH   1  28
TORSDOF 4
ENDMDL
