MODEL 1
REMARK VINA RESULT:      -6.9      0.000      0.000
REMARK  8 active torsions:
REMARK  status: ('A' for Active; 'I' for Inactive)
REMARK    1  A    between atoms: C2_2  and  C3_3 
REMARK    2  A    between atoms: C3_3  and  N1_4 
REMARK    3  A    between atoms: C5_6  and  C6_7 
REMARK    4  A    between atoms: C8_11  and  N4_12 
REMARK    5  A    between atoms: N4_12  and  C9_13 
REMARK    6  A    between atoms: C9_13  and  C10_14 
REMARK    7  A    between atoms: C12_17  and  N5_18 
REMARK    8  A    between atoms: N5_18  and  C13_19 
ROOT
HETATM    1  C6  UNL     1      22.287   0.625  52.391  1.00  0.00     0.100 A 
HETATM    2  N2  UNL     1      21.830   0.840  51.151  1.00  0.00    -0.239 NA
HETATM    3  C7  UNL     1      20.599   0.599  50.740  1.00  0.00     0.236 A 
HETATM    4  N3  UNL     1      19.692   0.099  51.588  1.00  0.00    -0.222 NA
HETATM    5  C8  UNL     1      20.043  -0.161  52.884  1.00  0.00     0.154 A 
HETATM    6  C12 UNL     1      21.344   0.115  53.239  1.00  0.00     0.110 A 
ENDROOT
BRANCH   1   7
HETATM    7  C5  UNL     1      23.648   0.916  52.755  1.00  0.00     0.010 A 
HETATM    8  C4  UNL     1      24.694   0.148  52.907  1.00  0.00     0.100 A 
HETATM    9  N1  UNL     1      26.012   0.492  53.270  1.00  0.00    -0.382 N 
HETATM   10  C16 UNL     1      26.351   1.863  53.541  1.00  0.00     0.149 A 
HETATM   11  C15 UNL     1      25.150   2.699  53.361  1.00  0.00    -0.006 A 
HETATM   12  C14 UNL     1      23.940   2.319  53.015  1.00  0.00     0.013 A 
BRANCH   9  13
HETATM   13  C3  UNL     1      27.058  -0.477  53.386  1.00  0.00     0.149 C 
BRANCH  13  14
HETATM   14  C2  UNL     1      28.295   0.073  53.951  1.00  0.00    -0.018 C 
HETATM   15  C1  UNL     1      29.539  -0.220  53.589  1.00  0.00     0.008 C 
ENDBRANCH  13  14
ENDBRANCH   9  13
ENDBRANCH   1   7
BRANCH   6  16
HETATM   16  N5  UNL     1      21.548  -0.187  54.590  1.00  0.00    -0.329 N 
HETATM   17  H13 UNL     1      21.458   0.162  55.591  1.00  0.00     0.168 HD
BRANCH  16  18
HETATM   18  C13 UNL     1      22.124  -1.513  54.626  1.00  0.00     0.353 C 
HETATM   19  O1  UNL     1      22.587  -2.045  55.668  1.00  0.00    -0.283 OA
ENDBRANCH  16  18
ENDBRANCH   6  16
BRANCH   5  20
HETATM   20  N4  UNL     1      19.046  -0.685  53.716  1.00  0.00    -0.369 N 
HETATM   21  H8  UNL     1      19.151  -0.576  54.747  1.00  0.00     0.161 HD
BRANCH  20  22
HETATM   22  C9  UNL     1      17.878  -1.368  53.207  1.00  0.00     0.149 C 
BRANCH  22  23
HETATM   23  C10 UNL     1      17.888  -2.786  53.672  1.00  0.00    -0.000 C 
HETATM   24  C11 UNL     1      16.872  -3.580  53.386  1.00  0.00     0.053 C 
HETATM   25 BR1  UNL     1      15.372  -2.952  52.377  1.00  0.00    -0.064 Br
ENDBRANCH  22  23
ENDBRANCH  20  22
ENDBRANCH   5  20
TORSDOF 8
ENDMDL
MODEL 2
REMARK VINA RESULT:      -6.9      3.203      7.328
REMARK  8 active torsions:
REMARK  status: ('A' for Active; 'I' for Inactive)
REMARK    1  A    between atoms: C2_2  and  C3_3 
REMARK    2  A    between atoms: C3_3  and  N1_4 
REMARK    3  A    between atoms: C5_6  and  C6_7 
REMARK    4  A    between atoms: C8_11  and  N4_12 
REMARK    5  A    between atoms: N4_12  and  C9_13 
REMARK    6  A    between atoms: C9_13  and  C10_14 
REMARK    7  A    between atoms: C12_17  and  N5_18 
REMARK    8  A    between atoms: N5_18  and  C13_19 
ROOT
HETATM    1  C6  UNL     1      21.952   1.013  52.299  1.00  0.00     0.100 A 
HETATM    2  N2  UNL     1      22.484   2.229  52.120  1.00  0.00    -0.239 NA
HETATM    3  C7  UNL     1      23.690   2.598  52.510  1.00  0.00     0.236 A 
HETATM    4  N3  UNL     1      24.490   1.728  53.139  1.00  0.00    -0.222 NA
HETATM    5  C8  UNL     1      24.055   0.454  53.378  1.00  0.00     0.154 A 
HETATM    6  C12 UNL     1      22.787   0.143  52.943  1.00  0.00     0.110 A 
ENDROOT
BRANCH   1   7
HETATM    7  C5  UNL     1      20.626   0.695  51.843  1.00  0.00     0.010 A 
HETATM    8  C4  UNL     1      19.646   0.034  52.401  1.00  0.00     0.100 A 
HETATM    9  N1  UNL     1      18.359  -0.250  51.901  1.00  0.00    -0.382 N 
HETATM   10  C16 UNL     1      17.978   0.204  50.590  1.00  0.00     0.149 A 
HETATM   11  C15 UNL     1      19.104   0.943  49.992  1.00  0.00    -0.006 A 
HETATM   12  C14 UNL     1      20.288   1.180  50.512  1.00  0.00     0.013 A 
BRANCH   9  13
HETATM   13  C3  UNL     1      17.387  -0.987  52.648  1.00  0.00     0.149 C 
BRANCH  13  14
HETATM   14  C2  UNL     1      17.976  -2.040  53.482  1.00  0.00    -0.018 C 
HETATM   15  C1  UNL     1      17.537  -3.286  53.625  1.00  0.00     0.008 C 
ENDBRANCH  13  14
ENDBRANCH   9  13
ENDBRANCH   1   7
BRANCH   6  16
HETATM   16  N5  UNL     1      22.490  -1.191  53.243  1.00  0.00    -0.329 N 
HETATM   17  H13 UNL     1      22.457  -2.189  52.873  1.00  0.00     0.168 HD
BRANCH  16  18
HETATM   18  C13 UNL     1      22.034  -1.206  54.617  1.00  0.00     0.353 C 
HETATM   19  O1  UNL     1      22.560  -1.907  55.519  1.00  0.00    -0.283 OA
ENDBRANCH  16  18
ENDBRANCH   6  16
BRANCH   5  20
HETATM   20  N4  UNL     1      24.941  -0.402  54.042  1.00  0.00    -0.369 N 
HETATM   21  H8  UNL     1      24.571  -1.006  54.806  1.00  0.00     0.161 HD
BRANCH  20  22
HETATM   22  C9  UNL     1      26.346  -0.486  53.712  1.00  0.00     0.149 C 
BRANCH  22  23
HETATM   23  C10 UNL     1      27.141   0.271  54.724  1.00  0.00    -0.000 C 
HETATM   24  C11 UNL     1      28.455   0.140  54.762  1.00  0.00     0.053 C 
HETATM   25 BR1  UNL     1      29.376  -1.009  53.538  1.00  0.00    -0.064 Br
ENDBRANCH  22  23
ENDBRANCH  20  22
ENDBRANCH   5  20
TORSDOF 8
ENDMDL
MODEL 3
REMARK VINA RESULT:      -6.9      2.421      3.694
REMARK  8 active torsions:
REMARK  status: ('A' for Active; 'I' for Inactive)
REMARK    1  A    between atoms: C2_2  and  C3_3 
REMARK    2  A    between atoms: C3_3  and  N1_4 
REMARK    3  A    between atoms: C5_6  and  C6_7 
REMARK    4  A    between atoms: C8_11  and  N4_12 
REMARK    5  A    between atoms: N4_12  and  C9_13 
REMARK    6  A    between atoms: C9_13  and  C10_14 
REMARK    7  A    between atoms: C12_17  and  N5_18 
REMARK    8  A    between atoms: N5_18  and  C13_19 
ROOT
HETATM    1  C6  UNL     1      24.040  -0.312  53.838  1.00  0.00     0.100 A 
HETATM    2  N2  UNL     1      23.307  -1.037  54.693  1.00  0.00    -0.239 NA
HETATM    3  C7  UNL     1      22.001  -0.929  54.857  1.00  0.00     0.236 A 
HETATM    4  N3  UNL     1      21.302  -0.043  54.138  1.00  0.00    -0.222 NA
HETATM    5  C8  UNL     1      21.944   0.754  53.230  1.00  0.00     0.154 A 
HETATM    6  C12 UNL     1      23.305   0.586  53.115  1.00  0.00     0.110 A 
ENDROOT
BRANCH   1   7
HETATM    7  C5  UNL     1      25.462  -0.492  53.722  1.00  0.00     0.010 A 
HETATM    8  C4  UNL     1      26.465   0.050  54.361  1.00  0.00     0.100 A 
HETATM    9  N1  UNL     1      27.849  -0.166  54.202  1.00  0.00    -0.382 N 
HETATM   10  C16 UNL     1      28.325  -1.094  53.211  1.00  0.00     0.149 A 
HETATM   11  C15 UNL     1      27.170  -1.684  52.512  1.00  0.00    -0.006 A 
HETATM   12  C14 UNL     1      25.892  -1.444  52.708  1.00  0.00     0.013 A 
BRANCH   9  13
HETATM   13  C3  UNL     1      28.831   0.508  54.995  1.00  0.00     0.149 C 
BRANCH  13  14
HETATM   14  C2  UNL     1      29.306   1.756  54.388  1.00  0.00    -0.018 C 
HETATM   15  C1  UNL     1      28.647   2.531  53.533  1.00  0.00     0.008 C 
ENDBRANCH  13  14
ENDBRANCH   9  13
ENDBRANCH   1   7
BRANCH   6  16
HETATM   16  N5  UNL     1      23.815   1.454  52.144  1.00  0.00    -0.329 N 
HETATM   17  H13 UNL     1      24.040   1.583  51.111  1.00  0.00     0.168 HD
BRANCH  16  18
HETATM   18  C13 UNL     1      24.199   2.663  52.841  1.00  0.00     0.353 C 
HETATM   19  O1  UNL     1      23.635   3.775  52.672  1.00  0.00    -0.283 OA
ENDBRANCH  16  18
ENDBRANCH   6  16
BRANCH   5  20
HETATM   20  N4  UNL     1      21.153   1.660  52.514  1.00  0.00    -0.369 N 
HETATM   21  H8  UNL     1      21.626   2.412  51.971  1.00  0.00     0.161 HD
BRANCH  20  22
HETATM   22  C9  UNL     1      19.709   1.597  52.495  1.00  0.00     0.149 C 
BRANCH  22  23
HETATM   23  C10 UNL     1      19.252   1.036  51.189  1.00  0.00    -0.000 C 
HETATM   24  C11 UNL     1      18.499  -0.050  51.166  1.00  0.00     0.053 C 
HETATM   25 BR1  UNL     1      17.973  -0.930  52.782  1.00  0.00    -0.064 Br
ENDBRANCH  22  23
ENDBRANCH  20  22
ENDBRANCH   5  20
TORSDOF 8
ENDMDL
MODEL 4
REMARK VINA RESULT:      -6.7      4.725      7.614
REMARK  8 active torsions:
REMARK  status: ('A' for Active; 'I' for Inactive)
REMARK    1  A    between atoms: C2_2  and  C3_3 
REMARK    2  A    between atoms: C3_3  and  N1_4 
REMARK    3  A    between atoms: C5_6  and  C6_7 
REMARK    4  A    between atoms: C8_11  and  N4_12 
REMARK    5  A    between atoms: N4_12  and  C9_13 
REMARK    6  A    between atoms: C9_13  and  C10_14 
REMARK    7  A    between atoms: C12_17  and  N5_18 
REMARK    8  A    between atoms: N5_18  and  C13_19 
ROOT
HETATM    1  C6  UNL     1      24.335   1.245  53.042  1.00  0.00     0.100 A 
HETATM    2  N2  UNL     1      23.863   0.072  53.485  1.00  0.00    -0.239 NA
HETATM    3  C7  UNL     1      24.504  -0.749  54.295  1.00  0.00     0.236 A 
HETATM    4  N3  UNL     1      25.726  -0.437  54.742  1.00  0.00    -0.222 NA
HETATM    5  C8  UNL     1      26.312   0.738  54.358  1.00  0.00     0.154 A 
HETATM    6  C12 UNL     1      25.584   1.543  53.512  1.00  0.00     0.110 A 
ENDROOT
BRANCH   1   7
HETATM    7  C5  UNL     1      23.569   2.082  52.157  1.00  0.00     0.010 A 
HETATM    8  C4  UNL     1      23.297   3.359  52.182  1.00  0.00     0.100 A 
HETATM    9  N1  UNL     1      22.533   4.130  51.282  1.00  0.00    -0.382 N 
HETATM   10  C16 UNL     1      21.917   3.505  50.142  1.00  0.00     0.149 A 
HETATM   11  C15 UNL     1      22.244   2.069  50.146  1.00  0.00    -0.006 A 
HETATM   12  C14 UNL     1      22.969   1.403  51.017  1.00  0.00     0.013 A 
BRANCH   9  13
HETATM   13  C3  UNL     1      22.334   5.537  51.447  1.00  0.00     0.149 C 
BRANCH  13  14
HETATM   14  C2  UNL     1      23.578   6.310  51.358  1.00  0.00    -0.018 C 
HETATM   15  C1  UNL     1      23.737   7.509  50.808  1.00  0.00     0.008 C 
ENDBRANCH  13  14
ENDBRANCH   9  13
ENDBRANCH   1   7
BRANCH   6  16
HETATM   16  N5  UNL     1      26.302   2.708  53.221  1.00  0.00    -0.329 N 
HETATM   17  H13 UNL     1      26.477   3.723  53.491  1.00  0.00     0.168 HD
BRANCH  16  18
HETATM   18  C13 UNL     1      27.138   2.395  52.082  1.00  0.00     0.353 C 
HETATM   19  O1  UNL     1      26.933   2.839  50.923  1.00  0.00    -0.283 OA
ENDBRANCH  16  18
ENDBRANCH   6  16
BRANCH   5  20
HETATM   20  N4  UNL     1      27.591   1.000  54.862  1.00  0.00    -0.369 N 
HETATM   21  H8  UNL     1      27.827   1.977  55.136  1.00  0.00     0.161 HD
BRANCH  20  22
HETATM   22  C9  UNL     1      28.598  -0.025  55.018  1.00  0.00     0.149 C 
BRANCH  22  23
HETATM   23  C10 UNL     1      29.627   0.120  53.947  1.00  0.00    -0.000 C 
HETATM   24  C11 UNL     1      29.829  -0.866  53.090  1.00  0.00     0.053 C 
HETATM   25 BR1  UNL     1      28.822  -2.491  53.188  1.00  0.00    -0.064 Br
ENDBRANCH  22  23
ENDBRANCH  20  22
ENDBRANCH   5  20
TORSDOF 8
ENDMDL
MODEL 5
REMARK VINA RESULT:      -6.7      4.544      8.264
REMARK  8 active torsions:
REMARK  status: ('A' for Active; 'I' for Inactive)
REMARK    1  A    between atoms: C2_2  and  C3_3 
REMARK    2  A    between atoms: C3_3  and  N1_4 
REMARK    3  A    between atoms: C5_6  and  C6_7 
REMARK    4  A    between atoms: C8_11  and  N4_12 
REMARK    5  A    between atoms: N4_12  and  C9_13 
REMARK    6  A    between atoms: C9_13  and  C10_14 
REMARK    7  A    between atoms: C12_17  and  N5_18 
REMARK    8  A    between atoms: N5_18  and  C13_19 
ROOT
HETATM    1  C6  UNL     1      24.593   0.870  52.411  1.00  0.00     0.100 A 
HETATM    2  N2  UNL     1      25.708   0.177  52.672  1.00  0.00    -0.239 NA
HETATM    3  C7  UNL     1      26.935   0.573  52.389  1.00  0.00     0.236 A 
HETATM    4  N3  UNL     1      27.141   1.754  51.793  1.00  0.00    -0.222 NA
HETATM    5  C8  UNL     1      26.076   2.552  51.478  1.00  0.00     0.154 A 
HETATM    6  C12 UNL     1      24.828   2.072  51.803  1.00  0.00     0.110 A 
ENDROOT
BRANCH   1   7
HETATM    7  C5  UNL     1      23.291   0.363  52.753  1.00  0.00     0.010 A 
HETATM    8  C4  UNL     1      22.123   0.502  52.184  1.00  0.00     0.100 A 
HETATM    9  N1  UNL     1      20.872  -0.022  52.569  1.00  0.00    -0.382 N 
HETATM   10  C16 UNL     1      20.762  -0.832  53.751  1.00  0.00     0.149 A 
HETATM   11  C15 UNL     1      22.095  -0.968  54.366  1.00  0.00    -0.006 A 
HETATM   12  C14 UNL     1      23.234  -0.456  53.956  1.00  0.00     0.013 A 
BRANCH   9  13
HETATM   13  C3  UNL     1      19.673   0.219  51.825  1.00  0.00     0.149 C 
BRANCH  13  14
HETATM   14  C2  UNL     1      18.512  -0.506  52.352  1.00  0.00    -0.018 C 
HETATM   15  C1  UNL     1      17.294  -0.559  51.822  1.00  0.00     0.008 C 
ENDBRANCH  13  14
ENDBRANCH   9  13
ENDBRANCH   1   7
BRANCH   6  16
HETATM   16  N5  UNL     1      23.846   2.999  51.435  1.00  0.00    -0.329 N 
HETATM   17  H13 UNL     1      23.169   3.306  50.673  1.00  0.00     0.168 HD
BRANCH  16  18
HETATM   18  C13 UNL     1      23.711   3.911  52.550  1.00  0.00     0.353 C 
HETATM   19  O1  UNL     1      23.788   5.162  52.442  1.00  0.00    -0.283 OA
ENDBRANCH  16  18
ENDBRANCH   6  16
BRANCH   5  20
HETATM   20  N4  UNL     1      26.363   3.772  50.855  1.00  0.00    -0.369 N 
HETATM   21  H8  UNL     1      26.493   4.616  51.452  1.00  0.00     0.161 HD
BRANCH  20  22
HETATM   22  C9  UNL     1      26.486   3.911  49.422  1.00  0.00     0.149 C 
BRANCH  22  23
HETATM   23  C10 UNL     1      26.072   5.287  49.017  1.00  0.00    -0.000 C 
HETATM   24  C11 UNL     1      26.964   6.122  48.514  1.00  0.00     0.053 C 
HETATM   25 BR1  UNL     1      28.794   5.606  48.287  1.00  0.00    -0.064 Br
ENDBRANCH  22  23
ENDBRANCH  20  22
ENDBRANCH   5  20
TORSDOF 8
ENDMDL
MODEL 6
REMARK VINA RESULT:      -6.6      5.142      8.484
REMARK  8 active torsions:
REMARK  status: ('A' for Active; 'I' for Inactive)
REMARK    1  A    between atoms: C2_2  and  C3_3 
REMARK    2  A    between atoms: C3_3  and  N1_4 
REMARK    3  A    between atoms: C5_6  and  C6_7 
REMARK    4  A    between atoms: C8_11  and  N4_12 
REMARK    5  A    between atoms: N4_12  and  C9_13 
REMARK    6  A    between atoms: C9_13  and  C10_14 
REMARK    7  A    between atoms: C12_17  and  N5_18 
REMARK    8  A    between atoms: N5_18  and  C13_19 
ROOT
HETATM    1  C6  UNL     1      24.413   1.927  51.390  1.00  0.00     0.100 A 
HETATM    2  N2  UNL     1      25.487   1.226  51.774  1.00  0.00    -0.239 NA
HETATM    3  C7  UNL     1      26.741   1.611  51.624  1.00  0.00     0.236 A 
HETATM    4  N3  UNL     1      27.020   2.787  51.050  1.00  0.00    -0.222 NA
HETATM    5  C8  UNL     1      26.002   3.592  50.617  1.00  0.00     0.154 A 
HETATM    6  C12 UNL     1      24.722   3.124  50.807  1.00  0.00     0.110 A 
ENDROOT
BRANCH   1   7
HETATM    7  C5  UNL     1      23.077   1.431  51.590  1.00  0.00     0.010 A 
HETATM    8  C4  UNL     1      22.422   1.099  52.671  1.00  0.00     0.100 A 
HETATM    9  N1  UNL     1      21.105   0.614  52.806  1.00  0.00    -0.382 N 
HETATM   10  C16 UNL     1      20.287   0.414  51.640  1.00  0.00     0.149 A 
HETATM   11  C15 UNL     1      21.056   0.797  50.443  1.00  0.00    -0.006 A 
HETATM   12  C14 UNL     1      22.288   1.250  50.379  1.00  0.00     0.013 A 
BRANCH   9  13
HETATM   13  C3  UNL     1      20.526   0.302  54.076  1.00  0.00     0.149 C 
BRANCH  13  14
HETATM   14  C2  UNL     1      21.374  -0.566  54.900  1.00  0.00    -0.018 C 
HETATM   15  C1  UNL     1      21.767  -1.803  54.617  1.00  0.00     0.008 C 
ENDBRANCH  13  14
ENDBRANCH   9  13
ENDBRANCH   1   7
BRANCH   6  16
HETATM   16  N5  UNL     1      23.794   4.056  50.331  1.00  0.00    -0.329 N 
HETATM   17  H13 UNL     1      23.300   4.443  49.471  1.00  0.00     0.168 HD
BRANCH  16  18
HETATM   18  C13 UNL     1      23.331   4.795  51.486  1.00  0.00     0.353 C 
HETATM   19  O1  UNL     1      22.126   5.092  51.688  1.00  0.00    -0.283 OA
ENDBRANCH  16  18
ENDBRANCH   6  16
BRANCH   5  20
HETATM   20  N4  UNL     1      26.365   4.807  50.024  1.00  0.00    -0.369 N 
HETATM   21  H8  UNL     1      26.017   5.692  50.451  1.00  0.00     0.161 HD
BRANCH  20  22
HETATM   22  C9  UNL     1      27.201   4.887  48.848  1.00  0.00     0.149 C 
BRANCH  22  23
HETATM   23  C10 UNL     1      27.262   6.302  48.375  1.00  0.00    -0.000 C 
HETATM   24  C11 UNL     1      28.415   6.817  47.987  1.00  0.00     0.053 C 
HETATM   25 BR1  UNL     1      30.027   5.784  48.014  1.00  0.00    -0.064 Br
ENDBRANCH  22  23
ENDBRANCH  20  22
ENDBRANCH   5  20
TORSDOF 8
ENDMDL
MODEL 7
REMARK VINA RESULT:      -6.5      3.636      7.504
REMARK  8 active torsions:
REMARK  status: ('A' for Active; 'I' for Inactive)
REMARK    1  A    between atoms: C2_2  and  C3_3 
REMARK    2  A    between atoms: C3_3  and  N1_4 
REMARK    3  A    between atoms: C5_6  and  C6_7 
REMARK    4  A    between atoms: C8_11  and  N4_12 
REMARK    5  A    between atoms: N4_12  and  C9_13 
REMARK    6  A    between atoms: C9_13  and  C10_14 
REMARK    7  A    between atoms: C12_17  and  N5_18 
REMARK    8  A    between atoms: N5_18  and  C13_19 
ROOT
HETATM    1  C6  UNL     1      22.661  -0.668  53.942  1.00  0.00     0.100 A 
HETATM    2  N2  UNL     1      22.645  -1.324  55.110  1.00  0.00    -0.239 NA
HETATM    3  C7  UNL     1      23.707  -1.592  55.847  1.00  0.00     0.236 A 
HETATM    4  N3  UNL     1      24.922  -1.201  55.446  1.00  0.00    -0.222 NA
HETATM    5  C8  UNL     1      25.063  -0.520  54.268  1.00  0.00     0.154 A 
HETATM    6  C12 UNL     1      23.913  -0.277  53.553  1.00  0.00     0.110 A 
ENDROOT
BRANCH   1   7
HETATM    7  C5  UNL     1      21.455  -0.418  53.200  1.00  0.00     0.010 A 
HETATM    8  C4  UNL     1      21.243   0.162  52.048  1.00  0.00     0.100 A 
HETATM    9  N1  UNL     1      20.028   0.381  51.366  1.00  0.00    -0.382 N 
HETATM   10  C16 UNL     1      18.787  -0.054  51.947  1.00  0.00     0.149 A 
HETATM   11  C15 UNL     1      19.063  -0.702  53.242  1.00  0.00    -0.006 A 
HETATM   12  C14 UNL     1      20.226  -0.882  53.828  1.00  0.00     0.013 A 
BRANCH   9  13
HETATM   13  C3  UNL     1      19.965   1.032  50.094  1.00  0.00     0.149 C 
BRANCH  13  14
HETATM   14  C2  UNL     1      21.279   1.451  49.594  1.00  0.00    -0.018 C 
HETATM   15  C1  UNL     1      21.718   1.383  48.342  1.00  0.00     0.008 C 
ENDBRANCH  13  14
ENDBRANCH   9  13
ENDBRANCH   1   7
BRANCH   6  16
HETATM   16  N5  UNL     1      24.212   0.436  52.387  1.00  0.00    -0.329 N 
HETATM   17  H13 UNL     1      24.393   0.371  51.340  1.00  0.00     0.168 HD
BRANCH  16  18
HETATM   18  C13 UNL     1      24.331   1.823  52.779  1.00  0.00     0.353 C 
HETATM   19  O1  UNL     1      23.510   2.716  52.445  1.00  0.00    -0.283 OA
ENDBRANCH  16  18
ENDBRANCH   6  16
BRANCH   5  20
HETATM   20  N4  UNL     1      26.363  -0.142  53.908  1.00  0.00    -0.369 N 
HETATM   21  H8  UNL     1      26.609  -0.112  52.896  1.00  0.00     0.161 HD
BRANCH  20  22
HETATM   22  C9  UNL     1      27.375   0.208  54.878  1.00  0.00     0.149 C 
BRANCH  22  23
HETATM   23  C10 UNL     1      28.327   1.186  54.274  1.00  0.00    -0.000 C 
HETATM   24  C11 UNL     1      29.429   0.754  53.684  1.00  0.00     0.053 C 
HETATM   25 BR1  UNL     1      29.837  -1.114  53.585  1.00  0.00    -0.064 Br
ENDBRANCH  22  23
ENDBRANCH  20  22
ENDBRANCH   5  20
TORSDOF 8
ENDMDL
MODEL 8
REMARK VINA RESULT:      -6.4      5.122      7.652
REMARK  8 active torsions:
REMARK  status: ('A' for Active; 'I' for Inactive)
REMARK    1  A    between atoms: C2_2  and  C3_3 
REMARK    2  A    between atoms: C3_3  and  N1_4 
REMARK    3  A    between atoms: C5_6  and  C6_7 
REMARK    4  A    between atoms: C8_11  and  N4_12 
REMARK    5  A    between atoms: N4_12  and  C9_13 
REMARK    6  A    between atoms: C9_13  and  C10_14 
REMARK    7  A    between atoms: C12_17  and  N5_18 
REMARK    8  A    between atoms: N5_18  and  C13_19 
ROOT
HETATM    1  C6  UNL     1      23.734   2.199  50.982  1.00  0.00     0.100 A 
HETATM    2  N2  UNL     1      22.951   2.311  49.901  1.00  0.00    -0.239 NA
HETATM    3  C7  UNL     1      23.077   3.230  48.962  1.00  0.00     0.236 A 
HETATM    4  N3  UNL     1      24.047   4.149  49.044  1.00  0.00    -0.222 NA
HETATM    5  C8  UNL     1      24.910   4.134  50.104  1.00  0.00     0.154 A 
HETATM    6  C12 UNL     1      24.717   3.147  51.044  1.00  0.00     0.110 A 
ENDROOT
BRANCH   1   7
HETATM    7  C5  UNL     1      23.527   1.166  51.961  1.00  0.00     0.010 A 
HETATM    8  C4  UNL     1      24.326   0.625  52.843  1.00  0.00     0.100 A 
HETATM    9  N1  UNL     1      24.065  -0.393  53.782  1.00  0.00    -0.382 N 
HETATM   10  C16 UNL     1      22.760  -0.994  53.850  1.00  0.00     0.149 A 
HETATM   11  C15 UNL     1      21.887  -0.362  52.844  1.00  0.00    -0.006 A 
HETATM   12  C14 UNL     1      22.188   0.593  51.993  1.00  0.00     0.013 A 
BRANCH   9  13
HETATM   13  C3  UNL     1      25.057  -0.874  54.694  1.00  0.00     0.149 C 
BRANCH  13  14
HETATM   14  C2  UNL     1      26.122   0.101  54.953  1.00  0.00    -0.018 C 
HETATM   15  C1  UNL     1      27.405  -0.012  54.628  1.00  0.00     0.008 C 
ENDBRANCH  13  14
ENDBRANCH   9  13
ENDBRANCH   1   7
BRANCH   6  16
HETATM   16  N5  UNL     1      25.679   3.251  52.054  1.00  0.00    -0.329 N 
HETATM   17  H13 UNL     1      25.913   3.667  53.006  1.00  0.00     0.168 HD
BRANCH  16  18
HETATM   18  C13 UNL     1      26.821   2.483  51.608  1.00  0.00     0.353 C 
HETATM   19  O1  UNL     1      27.931   2.473  52.200  1.00  0.00    -0.283 OA
ENDBRANCH  16  18
ENDBRANCH   6  16
BRANCH   5  20
HETATM   20  N4  UNL     1      25.899   5.125  50.128  1.00  0.00    -0.369 N 
HETATM   21  H8  UNL     1      26.696   5.016  50.790  1.00  0.00     0.161 HD
BRANCH  20  22
HETATM   22  C9  UNL     1      25.863   6.290  49.273  1.00  0.00     0.149 C 
BRANCH  22  23
HETATM   23  C10 UNL     1      27.140   6.385  48.506  1.00  0.00    -0.000 C 
HETATM   24  C11 UNL     1      27.882   7.474  48.595  1.00  0.00     0.053 C 
HETATM   25 BR1  UNL     1      27.356   8.950  49.696  1.00  0.00    -0.064 Br
ENDBRANCH  22  23
ENDBRANCH  20  22
ENDBRANCH   5  20
TORSDOF 8
ENDMDL
MODEL 9
REMARK VINA RESULT:      -6.4      3.654      7.876
REMARK  8 active torsions:
REMARK  status: ('A' for Active; 'I' for Inactive)
REMARK    1  A    between atoms: C2_2  and  C3_3 
REMARK    2  A    between atoms: C3_3  and  N1_4 
REMARK    3  A    between atoms: C5_6  and  C6_7 
REMARK    4  A    between atoms: C8_11  and  N4_12 
REMARK    5  A    between atoms: N4_12  and  C9_13 
REMARK    6  A    between atoms: C9_13  and  C10_14 
REMARK    7  A    between atoms: C12_17  and  N5_18 
REMARK    8  A    between atoms: N5_18  and  C13_19 
ROOT
HETATM    1  C6  UNL     1      23.068   0.721  52.374  1.00  0.00     0.100 A 
HETATM    2  N2  UNL     1      23.316  -0.352  53.136  1.00  0.00    -0.239 NA
HETATM    3  C7  UNL     1      24.406  -0.539  53.855  1.00  0.00     0.236 A 
HETATM    4  N3  UNL     1      25.375   0.384  53.863  1.00  0.00    -0.222 NA
HETATM    5  C8  UNL     1      25.233   1.525  53.122  1.00  0.00     0.154 A 
HETATM    6  C12 UNL     1      24.070   1.650  52.397  1.00  0.00     0.110 A 
ENDROOT
BRANCH   1   7
HETATM    7  C5  UNL     1      21.850   0.845  51.618  1.00  0.00     0.010 A 
HETATM    8  C4  UNL     1      20.594   0.770  51.968  1.00  0.00     0.100 A 
HETATM    9  N1  UNL     1      19.434   0.899  51.177  1.00  0.00    -0.382 N 
HETATM   10  C16 UNL     1      19.549   1.141  49.764  1.00  0.00     0.149 A 
HETATM   11  C15 UNL     1      20.976   1.219  49.404  1.00  0.00    -0.006 A 
HETATM   12  C14 UNL     1      22.021   1.093  50.193  1.00  0.00     0.013 A 
BRANCH   9  13
HETATM   13  C3  UNL     1      18.115   0.798  51.720  1.00  0.00     0.149 C 
BRANCH  13  14
HETATM   14  C2  UNL     1      17.690  -0.587  51.953  1.00  0.00    -0.018 C 
HETATM   15  C1  UNL     1      17.715  -1.248  53.105  1.00  0.00     0.008 C 
ENDBRANCH  13  14
ENDBRANCH   9  13
ENDBRANCH   1   7
BRANCH   6  16
HETATM   16  N5  UNL     1      24.063   2.867  51.707  1.00  0.00    -0.329 N 
HETATM   17  H13 UNL     1      24.369   3.379  50.825  1.00  0.00     0.168 HD
BRANCH  16  18
HETATM   18  C13 UNL     1      23.354   3.807  52.549  1.00  0.00     0.353 C 
HETATM   19  O1  UNL     1      22.241   4.311  52.250  1.00  0.00    -0.283 OA
ENDBRANCH  16  18
ENDBRANCH   6  16
BRANCH   5  20
HETATM   20  N4  UNL     1      26.285   2.447  53.174  1.00  0.00    -0.369 N 
HETATM   21  H8  UNL     1      26.111   3.375  53.616  1.00  0.00     0.161 HD
BRANCH  20  22
HETATM   22  C9  UNL     1      27.601   2.168  52.644  1.00  0.00     0.149 C 
BRANCH  22  23
HETATM   23  C10 UNL     1      28.624   2.391  53.708  1.00  0.00    -0.000 C 
HETATM   24  C11 UNL     1      29.273   1.362  54.224  1.00  0.00     0.053 C 
HETATM   25 BR1  UNL     1      28.930  -0.427  53.635  1.00  0.00    -0.064 Br
ENDBRANCH  22  23
ENDBRANCH  20  22
ENDBRANCH   5  20
TORSDOF 8
ENDMDL
