MODEL 1
REMARK VINA RESULT:      -8.0      0.000      0.000
REMARK  3 active torsions:
REMARK  status: ('A' for Active; 'I' for Inactive)
REMARK    1  A    between atoms: C5_5  and  S1_6 
REMARK    2  A    between atoms: S1_6  and  N1_9 
REMARK       I    between atoms: N1_9  and  C6_10 
REMARK    3  A    between atoms: C6_10  and  C7_12 
ROOT
HETATM    1  N1  UNL     1      23.336   0.597  52.322  1.00  0.00    -0.246 N 
HETATM    2  C6  UNL     1      22.096   1.269  52.303  1.00  0.00     0.268 C 
HETATM    3  O3  UNL     1      22.096   2.537  52.343  1.00  0.00    -0.267 OA
HETATM    4  H6  UNL     1      23.324  -0.433  52.288  1.00  0.00     0.182 HD
ENDROOT
BRANCH   1   5
HETATM    5  S1  UNL     1      24.703   1.632  52.398  1.00  0.00     0.265 S 
HETATM    6  O1  UNL     1      24.536   2.696  53.456  1.00  0.00    -0.200 OA
HETATM    7  O2  UNL     1      24.789   2.362  51.094  1.00  0.00    -0.200 OA
BRANCH   5   8
HETATM    8  C5  UNL     1      26.184   0.797  52.755  1.00  0.00     0.080 A 
HETATM    9  C4  UNL     1      27.285   1.515  53.183  1.00  0.00     0.026 A 
HETATM   10  C3  UNL     1      28.495   0.959  53.489  1.00  0.00     0.008 A 
HETATM   11  C2  UNL     1      28.647  -0.404  53.367  1.00  0.00    -0.062 A 
HETATM   12  C1  UNL     1      29.945  -1.052  53.689  1.00  0.00     0.048 C 
HETATM   13  C14 UNL     1      27.575  -1.139  52.947  1.00  0.00     0.008 A 
HETATM   14  C13 UNL     1      26.343  -0.567  52.636  1.00  0.00     0.026 A 
ENDBRANCH   5   8
ENDBRANCH   1   5
BRANCH   2  15
HETATM   15  C7  UNL     1      20.785   0.652  52.241  1.00  0.00     0.073 A 
HETATM   16  C8  UNL     1      19.885   0.678  51.203  1.00  0.00     0.022 A 
HETATM   17  C9  UNL     1      18.695   0.008  51.387  1.00  0.00     0.028 A 
HETATM   18  C10 UNL     1      18.357  -0.676  52.529  1.00  0.00     0.032 A 
HETATM   19  C11 UNL     1      17.055  -1.374  52.650  1.00  0.00     0.070 C 
HETATM   20  N2  UNL     1      19.250  -0.695  53.543  1.00  0.00    -0.241 NA
HETATM   21  C12 UNL     1      20.423  -0.050  53.397  1.00  0.00     0.142 A 
HETATM   22 CL1  UNL     1      21.494  -0.156  54.798  1.00  0.00    -0.061 Cl
ENDBRANCH   2  15
TORSDOF 3
ENDMDL
MODEL 2
REMARK VINA RESULT:      -7.9      5.006      7.490
REMARK  3 active torsions:
REMARK  status: ('A' for Active; 'I' for Inactive)
REMARK    1  A    between atoms: C5_5  and  S1_6 
REMARK    2  A    between atoms: S1_6  and  N1_9 
REMARK       I    between atoms: N1_9  and  C6_10 
REMARK    3  A    between atoms: C6_10  and  C7_12 
ROOT
HETATM    1  N1  UNL     1      25.655   4.229  51.052  1.00  0.00    -0.246 N 
HETATM    2  C6  UNL     1      26.299   4.072  49.807  1.00  0.00     0.268 C 
HETATM    3  O3  UNL     1      26.388   2.906  49.316  1.00  0.00    -0.267 OA
HETATM    4  H6  UNL     1      25.588   5.181  51.441  1.00  0.00     0.182 HD
ENDROOT
BRANCH   1   5
HETATM    5  S1  UNL     1      25.069   2.768  51.737  1.00  0.00     0.265 S 
HETATM    6  O1  UNL     1      24.236   1.987  50.750  1.00  0.00    -0.200 OA
HETATM    7  O2  UNL     1      24.141   3.135  52.854  1.00  0.00    -0.200 OA
BRANCH   5   8
HETATM    8  C5  UNL     1      26.329   1.705  52.284  1.00  0.00     0.080 A 
HETATM    9  C4  UNL     1      26.186   0.340  52.125  1.00  0.00     0.026 A 
HETATM   10  C3  UNL     1      27.113  -0.582  52.520  1.00  0.00     0.008 A 
HETATM   11  C2  UNL     1      28.272  -0.142  53.117  1.00  0.00    -0.062 A 
HETATM   12  C1  UNL     1      29.309  -1.109  53.563  1.00  0.00     0.048 C 
HETATM   13  C14 UNL     1      28.442   1.203  53.287  1.00  0.00     0.008 A 
HETATM   14  C13 UNL     1      27.492   2.140  52.883  1.00  0.00     0.026 A 
ENDBRANCH   5   8
ENDBRANCH   1   5
BRANCH   2  15
HETATM   15  C7  UNL     1      26.887   5.127  49.005  1.00  0.00     0.073 A 
HETATM   16  C8  UNL     1      28.198   5.266  48.618  1.00  0.00     0.022 A 
HETATM   17  C9  UNL     1      28.513   6.365  47.848  1.00  0.00     0.028 A 
HETATM   18  C10 UNL     1      27.609   7.319  47.449  1.00  0.00     0.032 A 
HETATM   19  C11 UNL     1      28.025   8.474  46.620  1.00  0.00     0.070 C 
HETATM   20  N2  UNL     1      26.322   7.172  47.836  1.00  0.00    -0.241 NA
HETATM   21  C12 UNL     1      25.980   6.109  48.588  1.00  0.00     0.142 A 
HETATM   22 CL1  UNL     1      24.268   6.042  49.022  1.00  0.00    -0.061 Cl
ENDBRANCH   2  15
TORSDOF 3
ENDMDL
MODEL 3
REMARK VINA RESULT:      -7.8      4.163      5.077
REMARK  3 active torsions:
REMARK  status: ('A' for Active; 'I' for Inactive)
REMARK    1  A    between atoms: C5_5  and  S1_6 
REMARK    2  A    between atoms: S1_6  and  N1_9 
REMARK       I    between atoms: N1_9  and  C6_10 
REMARK    3  A    between atoms: C6_10  and  C7_12 
ROOT
HETATM    1  N1  UNL     1      22.886   3.224  50.248  1.00  0.00    -0.246 N 
HETATM    2  C6  UNL     1      23.221   2.978  51.596  1.00  0.00     0.268 C 
HETATM    3  O3  UNL     1      23.771   3.908  52.261  1.00  0.00    -0.267 OA
HETATM    4  H6  UNL     1      22.439   2.461  49.718  1.00  0.00     0.182 HD
ENDROOT
BRANCH   1   5
HETATM    5  S1  UNL     1      23.285   4.798  49.693  1.00  0.00     0.265 S 
HETATM    6  O1  UNL     1      22.969   5.849  50.728  1.00  0.00    -0.200 OA
HETATM    7  O2  UNL     1      22.403   5.100  48.521  1.00  0.00    -0.200 OA
BRANCH   5   8
HETATM    8  C5  UNL     1      24.964   4.983  49.284  1.00  0.00     0.080 A 
HETATM    9  C4  UNL     1      25.415   6.192  48.789  1.00  0.00     0.026 A 
HETATM   10  C3  UNL     1      26.711   6.443  48.436  1.00  0.00     0.008 A 
HETATM   11  C2  UNL     1      27.642   5.438  48.576  1.00  0.00    -0.062 A 
HETATM   12  C1  UNL     1      29.063   5.667  48.205  1.00  0.00     0.048 C 
HETATM   13  C14 UNL     1      27.224   4.233  49.064  1.00  0.00     0.008 A 
HETATM   14  C13 UNL     1      25.901   3.982  49.422  1.00  0.00     0.026 A 
ENDBRANCH   5   8
ENDBRANCH   1   5
BRANCH   2  15
HETATM   15  C7  UNL     1      23.000   1.744  52.325  1.00  0.00     0.073 A 
HETATM   16  C8  UNL     1      23.902   0.739  52.580  1.00  0.00     0.022 A 
HETATM   17  C9  UNL     1      23.448  -0.343  53.303  1.00  0.00     0.028 A 
HETATM   18  C10 UNL     1      22.166  -0.478  53.778  1.00  0.00     0.032 A 
HETATM   19  C11 UNL     1      21.753  -1.673  54.550  1.00  0.00     0.070 C 
HETATM   20  N2  UNL     1      21.288   0.518  53.521  1.00  0.00    -0.241 NA
HETATM   21  C12 UNL     1      21.699   1.590  52.817  1.00  0.00     0.142 A 
HETATM   22 CL1  UNL     1      20.451   2.812  52.554  1.00  0.00    -0.061 Cl
ENDBRANCH   2  15
TORSDOF 3
ENDMDL
MODEL 4
REMARK VINA RESULT:      -7.7      2.286      7.224
REMARK  3 active torsions:
REMARK  status: ('A' for Active; 'I' for Inactive)
REMARK    1  A    between atoms: C5_5  and  S1_6 
REMARK    2  A    between atoms: S1_6  and  N1_9 
REMARK       I    between atoms: N1_9  and  C6_10 
REMARK    3  A    between atoms: C6_10  and  C7_12 
ROOT
HETATM    1  N1  UNL     1      25.160   2.684  51.545  1.00  0.00    -0.246 N 
HETATM    2  C6  UNL     1      25.590   2.238  52.812  1.00  0.00     0.268 C 
HETATM    3  O3  UNL     1      24.866   2.496  53.821  1.00  0.00    -0.267 OA
HETATM    4  H6  UNL     1      25.755   2.468  50.732  1.00  0.00     0.182 HD
ENDROOT
BRANCH   1   5
HETATM    5  S1  UNL     1      23.671   3.539  51.561  1.00  0.00     0.265 S 
HETATM    6  O1  UNL     1      23.460   4.310  50.281  1.00  0.00    -0.200 OA
HETATM    7  O2  UNL     1      23.753   4.566  52.648  1.00  0.00    -0.200 OA
BRANCH   5   8
HETATM    8  C5  UNL     1      22.285   2.511  51.765  1.00  0.00     0.080 A 
HETATM    9  C4  UNL     1      22.370   1.175  51.419  1.00  0.00     0.026 A 
HETATM   10  C3  UNL     1      21.343   0.283  51.538  1.00  0.00     0.008 A 
HETATM   11  C2  UNL     1      20.136   0.725  52.030  1.00  0.00    -0.062 A 
HETATM   12  C1  UNL     1      18.991  -0.211  52.177  1.00  0.00     0.048 C 
HETATM   13  C14 UNL     1      20.023   2.041  52.381  1.00  0.00     0.008 A 
HETATM   14  C13 UNL     1      21.074   2.947  52.258  1.00  0.00     0.026 A 
ENDBRANCH   5   8
ENDBRANCH   1   5
BRANCH   2  15
HETATM   15  C7  UNL     1      26.803   1.495  53.095  1.00  0.00     0.073 A 
HETATM   16  C8  UNL     1      28.080   1.981  53.235  1.00  0.00     0.022 A 
HETATM   17  C9  UNL     1      29.074   1.066  53.506  1.00  0.00     0.028 A 
HETATM   18  C10 UNL     1      28.870  -0.286  53.645  1.00  0.00     0.032 A 
HETATM   19  C11 UNL     1      29.992  -1.207  53.938  1.00  0.00     0.070 C 
HETATM   20  N2  UNL     1      27.609  -0.752  53.505  1.00  0.00    -0.241 NA
HETATM   21  C12 UNL     1      26.614   0.115  53.239  1.00  0.00     0.142 A 
HETATM   22 CL1  UNL     1      25.019  -0.629  53.082  1.00  0.00    -0.061 Cl
ENDBRANCH   2  15
TORSDOF 3
ENDMDL
MODEL 5
REMARK VINA RESULT:      -7.5      4.081      7.202
REMARK  3 active torsions:
REMARK  status: ('A' for Active; 'I' for Inactive)
REMARK    1  A    between atoms: C5_5  and  S1_6 
REMARK    2  A    between atoms: S1_6  and  N1_9 
REMARK       I    between atoms: N1_9  and  C6_10 
REMARK    3  A    between atoms: C6_10  and  C7_12 
ROOT
HETATM    1  N1  UNL     1      22.623   3.336  49.815  1.00  0.00    -0.246 N 
HETATM    2  C6  UNL     1      23.630   4.113  50.423  1.00  0.00     0.268 C 
HETATM    3  O3  UNL     1      23.475   4.464  51.632  1.00  0.00    -0.267 OA
HETATM    4  H6  UNL     1      22.760   3.057  48.832  1.00  0.00     0.182 HD
ENDROOT
BRANCH   1   5
HETATM    5  S1  UNL     1      21.294   2.970  50.837  1.00  0.00     0.265 S 
HETATM    6  O1  UNL     1      20.093   2.512  50.045  1.00  0.00    -0.200 OA
HETATM    7  O2  UNL     1      20.878   4.243  51.509  1.00  0.00    -0.200 OA
BRANCH   5   8
HETATM    8  C5  UNL     1      21.636   1.724  51.998  1.00  0.00     0.080 A 
HETATM    9  C4  UNL     1      20.728   1.465  53.007  1.00  0.00     0.026 A 
HETATM   10  C3  UNL     1      20.898   0.511  53.970  1.00  0.00     0.008 A 
HETATM   11  C2  UNL     1      22.044  -0.251  53.950  1.00  0.00    -0.062 A 
HETATM   12  C1  UNL     1      22.273  -1.301  54.978  1.00  0.00     0.048 C 
HETATM   13  C14 UNL     1      22.961  -0.017  52.964  1.00  0.00     0.008 A 
HETATM   14  C13 UNL     1      22.781   0.958  51.985  1.00  0.00     0.026 A 
ENDBRANCH   5   8
ENDBRANCH   1   5
BRANCH   2  15
HETATM   15  C7  UNL     1      24.858   4.568  49.800  1.00  0.00     0.073 A 
HETATM   16  C8  UNL     1      25.057   5.699  49.045  1.00  0.00     0.022 A 
HETATM   17  C9  UNL     1      26.328   5.914  48.559  1.00  0.00     0.028 A 
HETATM   18  C10 UNL     1      27.397   5.080  48.781  1.00  0.00     0.032 A 
HETATM   19  C11 UNL     1      28.736   5.382  48.225  1.00  0.00     0.070 C 
HETATM   20  N2  UNL     1      27.190   3.971  49.526  1.00  0.00    -0.241 NA
HETATM   21  C12 UNL     1      25.959   3.730  50.015  1.00  0.00     0.142 A 
HETATM   22 CL1  UNL     1      25.830   2.247  50.969  1.00  0.00    -0.061 Cl
ENDBRANCH   2  15
TORSDOF 3
ENDMDL
MODEL 6
REMARK VINA RESULT:      -7.5      2.001      7.100
REMARK  3 active torsions:
REMARK  status: ('A' for Active; 'I' for Inactive)
REMARK    1  A    between atoms: C5_5  and  S1_6 
REMARK    2  A    between atoms: S1_6  and  N1_9 
REMARK       I    between atoms: N1_9  and  C6_10 
REMARK    3  A    between atoms: C6_10  and  C7_12 
ROOT
HETATM    1  N1  UNL     1      23.104   2.677  52.728  1.00  0.00    -0.246 N 
HETATM    2  C6  UNL     1      23.975   1.705  52.193  1.00  0.00     0.268 C 
HETATM    3  O3  UNL     1      23.578   1.015  51.206  1.00  0.00    -0.267 OA
HETATM    4  H6  UNL     1      23.438   3.232  53.529  1.00  0.00     0.182 HD
ENDROOT
BRANCH   1   5
HETATM    5  S1  UNL     1      21.586   2.782  51.935  1.00  0.00     0.265 S 
HETATM    6  O1  UNL     1      21.744   2.820  50.435  1.00  0.00    -0.200 OA
HETATM    7  O2  UNL     1      20.969   4.093  52.313  1.00  0.00    -0.200 OA
BRANCH   5   8
HETATM    8  C5  UNL     1      20.523   1.456  52.296  1.00  0.00     0.080 A 
HETATM    9  C4  UNL     1      20.752   0.686  53.421  1.00  0.00     0.026 A 
HETATM   10  C3  UNL     1      19.980  -0.377  53.795  1.00  0.00     0.008 A 
HETATM   11  C2  UNL     1      18.901  -0.720  53.013  1.00  0.00    -0.062 A 
HETATM   12  C1  UNL     1      18.034  -1.869  53.381  1.00  0.00     0.048 C 
HETATM   13  C14 UNL     1      18.650   0.024  51.894  1.00  0.00     0.008 A 
HETATM   14  C13 UNL     1      19.441   1.108  51.517  1.00  0.00     0.026 A 
ENDBRANCH   5   8
ENDBRANCH   1   5
BRANCH   2  15
HETATM   15  C7  UNL     1      25.314   1.401  52.661  1.00  0.00     0.073 A 
HETATM   16  C8  UNL     1      26.488   2.042  52.346  1.00  0.00     0.022 A 
HETATM   17  C9  UNL     1      27.642   1.560  52.926  1.00  0.00     0.028 A 
HETATM   18  C10 UNL     1      27.691   0.493  53.789  1.00  0.00     0.032 A 
HETATM   19  C11 UNL     1      28.973   0.035  54.373  1.00  0.00     0.070 C 
HETATM   20  N2  UNL     1      26.530  -0.130  54.091  1.00  0.00    -0.241 NA
HETATM   21  C12 UNL     1      25.384   0.315  53.542  1.00  0.00     0.142 A 
HETATM   22 CL1  UNL     1      23.944  -0.590  54.023  1.00  0.00    -0.061 Cl
ENDBRANCH   2  15
TORSDOF 3
ENDMDL
MODEL 7
REMARK VINA RESULT:      -7.3      3.667      4.665
REMARK  3 active torsions:
REMARK  status: ('A' for Active; 'I' for Inactive)
REMARK    1  A    between atoms: C5_5  and  S1_6 
REMARK    2  A    between atoms: S1_6  and  N1_9 
REMARK       I    between atoms: N1_9  and  C6_10 
REMARK    3  A    between atoms: C6_10  and  C7_12 
ROOT
HETATM    1  N1  UNL     1      24.532   2.390  50.863  1.00  0.00    -0.246 N 
HETATM    2  C6  UNL     1      23.292   2.982  50.547  1.00  0.00     0.268 C 
HETATM    3  O3  UNL     1      22.430   3.108  51.470  1.00  0.00    -0.267 OA
HETATM    4  H6  UNL     1      25.224   2.293  50.107  1.00  0.00     0.182 HD
ENDROOT
BRANCH   1   5
HETATM    5  S1  UNL     1      24.693   1.913  52.504  1.00  0.00     0.265 S 
HETATM    6  O1  UNL     1      23.619   0.932  52.906  1.00  0.00    -0.200 OA
HETATM    7  O2  UNL     1      24.473   3.129  53.351  1.00  0.00    -0.200 OA
BRANCH   5   8
HETATM    8  C5  UNL     1      26.219   1.162  52.861  1.00  0.00     0.080 A 
HETATM    9  C4  UNL     1      26.366  -0.200  52.681  1.00  0.00     0.026 A 
HETATM   10  C3  UNL     1      27.519  -0.889  52.931  1.00  0.00     0.008 A 
HETATM   11  C2  UNL     1      28.616  -0.198  53.394  1.00  0.00    -0.062 A 
HETATM   12  C1  UNL     1      29.891  -0.906  53.679  1.00  0.00     0.048 C 
HETATM   13  C14 UNL     1      28.499   1.150  53.581  1.00  0.00     0.008 A 
HETATM   14  C13 UNL     1      27.321   1.848  53.324  1.00  0.00     0.026 A 
ENDBRANCH   5   8
ENDBRANCH   1   5
BRANCH   2  15
HETATM   15  C7  UNL     1      22.882   3.476  49.247  1.00  0.00     0.073 A 
HETATM   16  C8  UNL     1      23.152   4.701  48.683  1.00  0.00     0.022 A 
HETATM   17  C9  UNL     1      22.648   4.936  47.422  1.00  0.00     0.028 A 
HETATM   18  C10 UNL     1      21.903   4.034  46.702  1.00  0.00     0.032 A 
HETATM   19  C11 UNL     1      21.396   4.361  45.349  1.00  0.00     0.070 C 
HETATM   20  N2  UNL     1      21.644   2.833  47.267  1.00  0.00    -0.241 NA
HETATM   21  C12 UNL     1      22.122   2.570  48.498  1.00  0.00     0.142 A 
HETATM   22 CL1  UNL     1      21.709   0.966  49.115  1.00  0.00    -0.061 Cl
ENDBRANCH   2  15
TORSDOF 3
ENDMDL
MODEL 8
REMARK VINA RESULT:      -7.3      4.926      7.930
REMARK  3 active torsions:
REMARK  status: ('A' for Active; 'I' for Inactive)
REMARK    1  A    between atoms: C5_5  and  S1_6 
REMARK    2  A    between atoms: S1_6  and  N1_9 
REMARK       I    between atoms: N1_9  and  C6_10 
REMARK    3  A    between atoms: C6_10  and  C7_12 
ROOT
HETATM    1  N1  UNL     1      24.261   5.193  50.884  1.00  0.00    -0.246 N 
HETATM    2  C6  UNL     1      24.722   5.078  49.557  1.00  0.00     0.268 C 
HETATM    3  O3  UNL     1      23.960   4.538  48.698  1.00  0.00    -0.267 OA
HETATM    4  H6  UNL     1      24.888   5.634  51.573  1.00  0.00     0.182 HD
ENDROOT
BRANCH   1   5
HETATM    5  S1  UNL     1      22.686   4.565  51.147  1.00  0.00     0.265 S 
HETATM    6  O1  UNL     1      21.898   4.486  49.862  1.00  0.00    -0.200 OA
HETATM    7  O2  UNL     1      21.951   5.537  52.017  1.00  0.00    -0.200 OA
BRANCH   5   8
HETATM    8  C5  UNL     1      22.682   2.970  51.837  1.00  0.00     0.080 A 
HETATM    9  C4  UNL     1      23.840   2.469  52.401  1.00  0.00     0.026 A 
HETATM   10  C3  UNL     1      23.947   1.232  52.968  1.00  0.00     0.008 A 
HETATM   11  C2  UNL     1      22.839   0.415  52.989  1.00  0.00    -0.062 A 
HETATM   12  C1  UNL     1      22.908  -0.940  53.596  1.00  0.00     0.048 C 
HETATM   13  C14 UNL     1      21.679   0.884  52.439  1.00  0.00     0.008 A 
HETATM   14  C13 UNL     1      21.576   2.148  51.861  1.00  0.00     0.026 A 
ENDBRANCH   5   8
ENDBRANCH   1   5
BRANCH   2  15
HETATM   15  C7  UNL     1      26.007   5.521  49.051  1.00  0.00     0.073 A 
HETATM   16  C8  UNL     1      26.349   6.768  48.586  1.00  0.00     0.022 A 
HETATM   17  C9  UNL     1      27.647   6.943  48.157  1.00  0.00     0.028 A 
HETATM   18  C10 UNL     1      28.608   5.961  48.165  1.00  0.00     0.032 A 
HETATM   19  C11 UNL     1      29.984   6.228  47.687  1.00  0.00     0.070 C 
HETATM   20  N2  UNL     1      28.259   4.738  48.625  1.00  0.00    -0.241 NA
HETATM   21  C12 UNL     1      26.999   4.533  49.052  1.00  0.00     0.142 A 
HETATM   22 CL1  UNL     1      26.681   2.892  49.625  1.00  0.00    -0.061 Cl
ENDBRANCH   2  15
TORSDOF 3
ENDMDL
MODEL 9
REMARK VINA RESULT:      -7.2      3.786      7.626
REMARK  3 active torsions:
REMARK  status: ('A' for Active; 'I' for Inactive)
REMARK    1  A    between atoms: C5_5  and  S1_6 
REMARK    2  A    between atoms: S1_6  and  N1_9 
REMARK       I    between atoms: N1_9  and  C6_10 
REMARK    3  A    between atoms: C6_10  and  C7_12 
ROOT
HETATM    1  N1  UNL     1      25.098   2.349  51.263  1.00  0.00    -0.246 N 
HETATM    2  C6  UNL     1      25.614   2.188  52.565  1.00  0.00     0.268 C 
HETATM    3  O3  UNL     1      24.995   2.730  53.531  1.00  0.00    -0.267 OA
HETATM    4  H6  UNL     1      25.609   1.904  50.486  1.00  0.00     0.182 HD
ENDROOT
BRANCH   1   5
HETATM    5  S1  UNL     1      23.663   3.286  51.178  1.00  0.00     0.265 S 
HETATM    6  O1  UNL     1      23.860   4.659  51.773  1.00  0.00    -0.200 OA
HETATM    7  O2  UNL     1      22.635   2.615  52.034  1.00  0.00    -0.200 OA
BRANCH   5   8
HETATM    8  C5  UNL     1      23.082   3.519  49.557  1.00  0.00     0.080 A 
HETATM    9  C4  UNL     1      22.701   2.423  48.806  1.00  0.00     0.026 A 
HETATM   10  C3  UNL     1      22.233   2.494  47.525  1.00  0.00     0.008 A 
HETATM   11  C2  UNL     1      22.127   3.728  46.926  1.00  0.00    -0.062 A 
HETATM   12  C1  UNL     1      21.623   3.853  45.533  1.00  0.00     0.048 C 
HETATM   13  C14 UNL     1      22.497   4.830  47.644  1.00  0.00     0.008 A 
HETATM   14  C13 UNL     1      22.974   4.752  48.951  1.00  0.00     0.026 A 
ENDBRANCH   5   8
ENDBRANCH   1   5
BRANCH   2  15
HETATM   15  C7  UNL     1      26.807   1.449  52.932  1.00  0.00     0.073 A 
HETATM   16  C8  UNL     1      28.091   1.923  53.057  1.00  0.00     0.022 A 
HETATM   17  C9  UNL     1      29.062   1.016  53.422  1.00  0.00     0.028 A 
HETATM   18  C10 UNL     1      28.829  -0.316  53.666  1.00  0.00     0.032 A 
HETATM   19  C11 UNL     1      29.928  -1.229  54.056  1.00  0.00     0.070 C 
HETATM   20  N2  UNL     1      27.562  -0.770  53.540  1.00  0.00    -0.241 NA
HETATM   21  C12 UNL     1      26.589   0.090  53.185  1.00  0.00     0.142 A 
HETATM   22 CL1  UNL     1      24.984  -0.637  53.057  1.00  0.00    -0.061 Cl
ENDBRANCH   2  15
TORSDOF 3
ENDMDL
