MODEL 1
REMARK VINA RESULT:      -7.6      0.000      0.000
REMARK  5 active torsions:
REMARK  status: ('A' for Active; 'I' for Inactive)
REMARK    1  A    between atoms: C7_7  and  N1_8 
REMARK    2  A    between atoms: N1_8  and  C9_10 
REMARK    3  A    between atoms: N2_11  and  P1_12 
REMARK    4  A    between atoms: C11_14  and  N3_16 
REMARK    5  A    between atoms: N3_16  and  C12_17 
ROOT
HETATM    1  P1  UNL     1      22.455   0.443  53.423  1.00  0.00     0.187 P 
HETATM    2  C10 UNL     1      21.317  -0.656  52.921  1.00  0.00     0.116 A 
HETATM    3  C11 UNL     1      20.165  -0.565  53.812  1.00  0.00     0.153 A 
HETATM    4  O1  UNL     1      20.909   0.327  54.342  1.00  0.00    -0.280 OA
ENDROOT
BRANCH   1   5
HETATM    5  N2  UNL     1      24.007   0.609  52.558  1.00  0.00    -0.223 NA
HETATM    6  C9  UNL     1      25.158   0.650  53.162  1.00  0.00     0.211 C 
BRANCH   6   7
HETATM    7  N1  UNL     1      26.467   0.781  52.575  1.00  0.00    -0.345 N 
HETATM    8  C8  UNL     1      26.621   1.763  51.494  1.00  0.00     0.157 C 
BRANCH   7   9
HETATM    9  C7  UNL     1      27.626   0.048  52.946  1.00  0.00     0.040 A 
HETATM   10  C2  UNL     1      27.850  -1.311  52.871  1.00  0.00    -0.035 A 
HETATM   11  C1  UNL     1      26.733  -2.090  52.333  1.00  0.00     0.050 C 
HETATM   12  C3  UNL     1      29.031  -1.864  53.274  1.00  0.00     0.009 A 
HETATM   13  C4  UNL     1      30.027  -1.021  53.770  1.00  0.00     0.001 A 
HETATM   14  C5  UNL     1      29.838   0.355  53.861  1.00  0.00     0.002 A 
HETATM   15  C6  UNL     1      28.621   0.896  53.444  1.00  0.00     0.030 A 
ENDBRANCH   7   9
ENDBRANCH   6   7
ENDBRANCH   1   5
BRANCH   3  16
HETATM   16  N3  UNL     1      18.941  -1.258  53.840  1.00  0.00    -0.337 N 
HETATM   17  H13 UNL     1      18.933  -1.853  54.690  1.00  0.00     0.168 HD
BRANCH  16  18
HETATM   18  C12 UNL     1      17.993  -1.062  52.811  1.00  0.00     0.034 A 
HETATM   19  C13 UNL     1      18.046  -0.211  51.721  1.00  0.00     0.029 A 
HETATM   20  C14 UNL     1      17.008  -0.169  50.824  1.00  0.00     0.002 A 
HETATM   21  C15 UNL     1      15.889  -0.965  50.978  1.00  0.00     0.000 A 
HETATM   22  C16 UNL     1      15.813  -1.829  52.067  1.00  0.00     0.002 A 
HETATM   23  C17 UNL     1      16.870  -1.854  52.957  1.00  0.00     0.029 A 
ENDBRANCH  16  18
ENDBRANCH   3  16
TORSDOF 5
ENDMDL
MODEL 2
REMARK VINA RESULT:      -7.6      1.073      2.175
REMARK  5 active torsions:
REMARK  status: ('A' for Active; 'I' for Inactive)
REMARK    1  A    between atoms: C7_7  and  N1_8 
REMARK    2  A    between atoms: N1_8  and  C9_10 
REMARK    3  A    between atoms: N2_11  and  P1_12 
REMARK    4  A    between atoms: C11_14  and  N3_16 
REMARK    5  A    between atoms: N3_16  and  C12_17 
ROOT
HETATM    1  P1  UNL     1      22.091  -0.140  53.230  1.00  0.00     0.187 P 
HETATM    2  C10 UNL     1      20.632   0.089  52.473  1.00  0.00     0.116 A 
HETATM    3  C11 UNL     1      19.579  -0.433  53.337  1.00  0.00     0.153 A 
HETATM    4  O1  UNL     1      20.593  -0.691  54.067  1.00  0.00    -0.280 OA
ENDROOT
BRANCH   1   5
HETATM    5  N2  UNL     1      23.612   0.383  52.456  1.00  0.00    -0.223 NA
HETATM    6  C9  UNL     1      24.775   0.271  53.026  1.00  0.00     0.211 C 
BRANCH   6   7
HETATM    7  N1  UNL     1      26.063   0.655  52.505  1.00  0.00    -0.345 N 
HETATM    8  C8  UNL     1      26.081   1.682  51.456  1.00  0.00     0.157 C 
BRANCH   7   9
HETATM    9  C7  UNL     1      27.319   0.131  52.913  1.00  0.00     0.040 A 
HETATM   10  C2  UNL     1      28.412   0.803  53.423  1.00  0.00    -0.035 A 
HETATM   11  C1  UNL     1      28.236   2.251  53.555  1.00  0.00     0.050 C 
HETATM   12  C3  UNL     1      29.556   0.145  53.769  1.00  0.00     0.009 A 
HETATM   13  C4  UNL     1      29.607  -1.239  53.599  1.00  0.00     0.001 A 
HETATM   14  C5  UNL     1      28.526  -1.951  53.087  1.00  0.00     0.002 A 
HETATM   15  C6  UNL     1      27.367  -1.256  52.740  1.00  0.00     0.030 A 
ENDBRANCH   7   9
ENDBRANCH   6   7
ENDBRANCH   1   5
BRANCH   3  16
HETATM   16  N3  UNL     1      18.181  -0.493  53.185  1.00  0.00    -0.337 N 
HETATM   17  H13 UNL     1      17.833   0.477  53.075  1.00  0.00     0.168 HD
BRANCH  16  18
HETATM   18  C12 UNL     1      17.520  -1.741  53.201  1.00  0.00     0.034 A 
HETATM   19  C13 UNL     1      17.899  -2.926  53.808  1.00  0.00     0.029 A 
HETATM   20  C14 UNL     1      17.107  -4.042  53.704  1.00  0.00     0.002 A 
HETATM   21  C15 UNL     1      15.920  -4.021  52.998  1.00  0.00     0.000 A 
HETATM   22  C16 UNL     1      15.517  -2.841  52.379  1.00  0.00     0.002 A 
HETATM   23  C17 UNL     1      16.331  -1.730  52.497  1.00  0.00     0.029 A 
ENDBRANCH  16  18
ENDBRANCH   3  16
TORSDOF 5
ENDMDL
MODEL 3
REMARK VINA RESULT:      -7.4      5.067      8.240
REMARK  5 active torsions:
REMARK  status: ('A' for Active; 'I' for Inactive)
REMARK    1  A    between atoms: C7_7  and  N1_8 
REMARK    2  A    between atoms: N1_8  and  C9_10 
REMARK    3  A    between atoms: N2_11  and  P1_12 
REMARK    4  A    between atoms: C11_14  and  N3_16 
REMARK    5  A    between atoms: N3_16  and  C12_17 
ROOT
HETATM    1  P1  UNL     1      23.954   2.731  50.738  1.00  0.00     0.187 P 
HETATM    2  C10 UNL     1      25.112   3.874  50.408  1.00  0.00     0.116 A 
HETATM    3  C11 UNL     1      24.551   4.839  49.470  1.00  0.00     0.153 A 
HETATM    4  O1  UNL     1      23.544   4.065  49.598  1.00  0.00    -0.280 OA
ENDROOT
BRANCH   1   5
HETATM    5  N2  UNL     1      24.294   1.384  51.857  1.00  0.00    -0.223 NA
HETATM    6  C9  UNL     1      25.491   1.088  52.272  1.00  0.00     0.211 C 
BRANCH   6   7
HETATM    7  N1  UNL     1      25.886   0.031  53.169  1.00  0.00    -0.345 N 
HETATM    8  C8  UNL     1      24.871  -0.469  54.104  1.00  0.00     0.157 C 
BRANCH   7   9
HETATM    9  C7  UNL     1      27.170  -0.574  53.232  1.00  0.00     0.040 A 
HETATM   10  C2  UNL     1      28.371  -0.016  53.620  1.00  0.00    -0.035 A 
HETATM   11  C1  UNL     1      28.295   1.392  54.018  1.00  0.00     0.050 C 
HETATM   12  C3  UNL     1      29.527  -0.740  53.624  1.00  0.00     0.009 A 
HETATM   13  C4  UNL     1      29.478  -2.076  53.223  1.00  0.00     0.001 A 
HETATM   14  C5  UNL     1      28.286  -2.674  52.825  1.00  0.00     0.002 A 
HETATM   15  C6  UNL     1      27.116  -1.912  52.829  1.00  0.00     0.030 A 
ENDBRANCH   7   9
ENDBRANCH   6   7
ENDBRANCH   1   5
BRANCH   3  16
HETATM   16  N3  UNL     1      25.093   5.991  48.869  1.00  0.00    -0.337 N 
HETATM   17  H13 UNL     1      24.328   6.683  48.764  1.00  0.00     0.168 HD
BRANCH  16  18
HETATM   18  C12 UNL     1      26.464   6.035  48.532  1.00  0.00     0.034 A 
HETATM   19  C13 UNL     1      27.445   5.078  48.723  1.00  0.00     0.029 A 
HETATM   20  C14 UNL     1      28.735   5.317  48.319  1.00  0.00     0.002 A 
HETATM   21  C15 UNL     1      29.093   6.507  47.716  1.00  0.00     0.000 A 
HETATM   22  C16 UNL     1      28.124   7.486  47.513  1.00  0.00     0.002 A 
HETATM   23  C17 UNL     1      26.831   7.222  47.928  1.00  0.00     0.029 A 
ENDBRANCH  16  18
ENDBRANCH   3  16
TORSDOF 5
ENDMDL
MODEL 4
REMARK VINA RESULT:      -7.3      4.708      8.577
REMARK  5 active torsions:
REMARK  status: ('A' for Active; 'I' for Inactive)
REMARK    1  A    between atoms: C7_7  and  N1_8 
REMARK    2  A    between atoms: N1_8  and  C9_10 
REMARK    3  A    between atoms: N2_11  and  P1_12 
REMARK    4  A    between atoms: C11_14  and  N3_16 
REMARK    5  A    between atoms: N3_16  and  C12_17 
ROOT
HETATM    1  P1  UNL     1      23.446   2.330  52.098  1.00  0.00     0.187 P 
HETATM    2  C10 UNL     1      24.770   1.329  52.104  1.00  0.00     0.116 A 
HETATM    3  C11 UNL     1      24.554   0.288  53.103  1.00  0.00     0.153 A 
HETATM    4  O1  UNL     1      23.465   0.938  53.242  1.00  0.00    -0.280 OA
ENDROOT
BRANCH   1   5
HETATM    5  N2  UNL     1      23.364   3.726  50.990  1.00  0.00    -0.223 NA
HETATM    6  C9  UNL     1      24.394   4.178  50.337  1.00  0.00     0.211 C 
BRANCH   6   7
HETATM    7  N1  UNL     1      24.450   5.290  49.421  1.00  0.00    -0.345 N 
HETATM    8  C8  UNL     1      23.405   5.364  48.393  1.00  0.00     0.157 C 
BRANCH   7   9
HETATM    9  C7  UNL     1      25.424   6.325  49.422  1.00  0.00     0.040 A 
HETATM   10  C2  UNL     1      25.401   7.533  50.088  1.00  0.00    -0.035 A 
HETATM   11  C1  UNL     1      24.204   7.766  50.898  1.00  0.00     0.050 C 
HETATM   12  C3  UNL     1      26.428   8.426  49.982  1.00  0.00     0.009 A 
HETATM   13  C4  UNL     1      27.519   8.094  49.179  1.00  0.00     0.001 A 
HETATM   14  C5  UNL     1      27.579   6.885  48.492  1.00  0.00     0.002 A 
HETATM   15  C6  UNL     1      26.516   5.988  48.616  1.00  0.00     0.030 A 
ENDBRANCH   7   9
ENDBRANCH   6   7
ENDBRANCH   1   5
BRANCH   3  16
HETATM   16  N3  UNL     1      25.346  -0.801  53.513  1.00  0.00    -0.337 N 
HETATM   17  H13 UNL     1      24.736  -1.638  53.557  1.00  0.00     0.168 HD
BRANCH  16  18
HETATM   18  C12 UNL     1      26.721  -0.615  53.779  1.00  0.00     0.034 A 
HETATM   19  C13 UNL     1      27.334   0.265  54.653  1.00  0.00     0.029 A 
HETATM   20  C14 UNL     1      28.702   0.290  54.766  1.00  0.00     0.002 A 
HETATM   21  C15 UNL     1      29.502  -0.553  54.020  1.00  0.00     0.000 A 
HETATM   22  C16 UNL     1      28.909  -1.447  53.134  1.00  0.00     0.002 A 
HETATM   23  C17 UNL     1      27.530  -1.454  53.037  1.00  0.00     0.029 A 
ENDBRANCH  16  18
ENDBRANCH   3  16
TORSDOF 5
ENDMDL
MODEL 5
REMARK VINA RESULT:      -7.2      5.088      6.717
REMARK  5 active torsions:
REMARK  status: ('A' for Active; 'I' for Inactive)
REMARK    1  A    between atoms: C7_7  and  N1_8 
REMARK    2  A    between atoms: N1_8  and  C9_10 
REMARK    3  A    between atoms: N2_11  and  P1_12 
REMARK    4  A    between atoms: C11_14  and  N3_16 
REMARK    5  A    between atoms: N3_16  and  C12_17 
ROOT
HETATM    1  P1  UNL     1      23.964   3.257  52.065  1.00  0.00     0.187 P 
HETATM    2  C10 UNL     1      23.375   4.690  52.660  1.00  0.00     0.116 A 
HETATM    3  C11 UNL     1      22.631   5.358  51.597  1.00  0.00     0.153 A 
HETATM    4  O1  UNL     1      22.995   4.309  50.968  1.00  0.00    -0.280 OA
ENDROOT
BRANCH   1   5
HETATM    5  N2  UNL     1      24.930   2.169  53.097  1.00  0.00    -0.223 NA
HETATM    6  C9  UNL     1      24.820   0.873  53.065  1.00  0.00     0.211 C 
BRANCH   6   7
HETATM    7  N1  UNL     1      25.541  -0.101  53.846  1.00  0.00    -0.345 N 
HETATM    8  C8  UNL     1      24.763  -0.906  54.795  1.00  0.00     0.157 C 
BRANCH   7   9
HETATM    9  C7  UNL     1      26.937  -0.355  53.781  1.00  0.00     0.040 A 
HETATM   10  C2  UNL     1      27.608  -1.314  53.050  1.00  0.00    -0.035 A 
HETATM   11  C1  UNL     1      26.751  -2.179  52.236  1.00  0.00     0.050 C 
HETATM   12  C3  UNL     1      28.967  -1.428  53.099  1.00  0.00     0.009 A 
HETATM   13  C4  UNL     1      29.681  -0.546  53.911  1.00  0.00     0.001 A 
HETATM   14  C5  UNL     1      29.040   0.434  54.663  1.00  0.00     0.002 A 
HETATM   15  C6  UNL     1      27.649   0.530  54.597  1.00  0.00     0.030 A 
ENDBRANCH   7   9
ENDBRANCH   6   7
ENDBRANCH   1   5
BRANCH   3  16
HETATM   16  N3  UNL     1      21.938   6.582  51.561  1.00  0.00    -0.337 N 
HETATM   17  H13 UNL     1      21.270   6.591  52.355  1.00  0.00     0.168 HD
BRANCH  16  18
HETATM   18  C12 UNL     1      22.223   7.528  50.551  1.00  0.00     0.034 A 
HETATM   19  C13 UNL     1      23.447   7.938  50.055  1.00  0.00     0.029 A 
HETATM   20  C14 UNL     1      23.511   8.881  49.059  1.00  0.00     0.002 A 
HETATM   21  C15 UNL     1      22.368   9.445  48.526  1.00  0.00     0.000 A 
HETATM   22  C16 UNL     1      21.125   9.049  49.009  1.00  0.00     0.002 A 
HETATM   23  C17 UNL     1      21.085   8.098  50.012  1.00  0.00     0.029 A 
ENDBRANCH  16  18
ENDBRANCH   3  16
TORSDOF 5
ENDMDL
MODEL 6
REMARK VINA RESULT:      -7.1      5.623      9.086
REMARK  5 active torsions:
REMARK  status: ('A' for Active; 'I' for Inactive)
REMARK    1  A    between atoms: C7_7  and  N1_8 
REMARK    2  A    between atoms: N1_8  and  C9_10 
REMARK    3  A    between atoms: N2_11  and  P1_12 
REMARK    4  A    between atoms: C11_14  and  N3_16 
REMARK    5  A    between atoms: N3_16  and  C12_17 
ROOT
HETATM    1  P1  UNL     1      25.486   3.195  50.504  1.00  0.00     0.187 P 
HETATM    2  C10 UNL     1      26.479   2.527  51.655  1.00  0.00     0.116 A 
HETATM    3  C11 UNL     1      25.700   1.572  52.436  1.00  0.00     0.153 A 
HETATM    4  O1  UNL     1      24.795   1.968  51.628  1.00  0.00    -0.280 OA
ENDROOT
BRANCH   1   5
HETATM    5  N2  UNL     1      26.108   4.415  49.360  1.00  0.00    -0.223 NA
HETATM    6  C9  UNL     1      25.916   5.693  49.509  1.00  0.00     0.211 C 
BRANCH   6   7
HETATM    7  N1  UNL     1      26.365   6.765  48.657  1.00  0.00    -0.345 N 
HETATM    8  C8  UNL     1      25.381   7.345  47.735  1.00  0.00     0.157 C 
BRANCH   7   9
HETATM    9  C7  UNL     1      27.674   7.316  48.628  1.00  0.00     0.040 A 
HETATM   10  C2  UNL     1      28.158   8.432  49.278  1.00  0.00    -0.035 A 
HETATM   11  C1  UNL     1      27.176   9.134  50.108  1.00  0.00     0.050 C 
HETATM   12  C3  UNL     1      29.456   8.831  49.143  1.00  0.00     0.009 A 
HETATM   13  C4  UNL     1      30.302   8.081  48.325  1.00  0.00     0.001 A 
HETATM   14  C5  UNL     1      29.851   6.949  47.652  1.00  0.00     0.002 A 
HETATM   15  C6  UNL     1      28.519   6.562  47.806  1.00  0.00     0.030 A 
ENDBRANCH   7   9
ENDBRANCH   6   7
ENDBRANCH   1   5
BRANCH   3  16
HETATM   16  N3  UNL     1      26.044   0.740  53.518  1.00  0.00    -0.337 N 
HETATM   17  H13 UNL     1      25.399   0.956  54.300  1.00  0.00     0.168 HD
BRANCH  16  18
HETATM   18  C12 UNL     1      27.110  -0.178  53.393  1.00  0.00     0.034 A 
HETATM   19  C13 UNL     1      28.444  -0.022  53.723  1.00  0.00     0.029 A 
HETATM   20  C14 UNL     1      29.333  -1.049  53.523  1.00  0.00     0.002 A 
HETATM   21  C15 UNL     1      28.929  -2.258  52.991  1.00  0.00     0.000 A 
HETATM   22  C16 UNL     1      27.592  -2.440  52.651  1.00  0.00     0.002 A 
HETATM   23  C17 UNL     1      26.715  -1.391  52.862  1.00  0.00     0.029 A 
ENDBRANCH  16  18
ENDBRANCH   3  16
TORSDOF 5
ENDMDL
MODEL 7
REMARK VINA RESULT:      -6.6      4.930      8.974
REMARK  5 active torsions:
REMARK  status: ('A' for Active; 'I' for Inactive)
REMARK    1  A    between atoms: C7_7  and  N1_8 
REMARK    2  A    between atoms: N1_8  and  C9_10 
REMARK    3  A    between atoms: N2_11  and  P1_12 
REMARK    4  A    between atoms: C11_14  and  N3_16 
REMARK    5  A    between atoms: N3_16  and  C12_17 
ROOT
HETATM    1  P1  UNL     1      23.510   2.732  51.744  1.00  0.00     0.187 P 
HETATM    2  C10 UNL     1      24.576   2.081  52.837  1.00  0.00     0.116 A 
HETATM    3  C11 UNL     1      24.295   0.654  52.960  1.00  0.00     0.153 A 
HETATM    4  O1  UNL     1      23.403   0.969  52.103  1.00  0.00    -0.280 OA
ENDROOT
BRANCH   1   5
HETATM    5  N2  UNL     1      23.562   4.470  51.344  1.00  0.00    -0.223 NA
HETATM    6  C9  UNL     1      22.644   5.067  50.642  1.00  0.00     0.211 C 
BRANCH   6   7
HETATM    7  N1  UNL     1      22.579   6.454  50.257  1.00  0.00    -0.345 N 
HETATM    8  C8  UNL     1      21.383   7.204  50.658  1.00  0.00     0.157 C 
BRANCH   7   9
HETATM    9  C7  UNL     1      23.567   7.165  49.524  1.00  0.00     0.040 A 
HETATM   10  C2  UNL     1      23.845   7.114  48.173  1.00  0.00    -0.035 A 
HETATM   11  C1  UNL     1      22.998   6.200  47.405  1.00  0.00     0.050 C 
HETATM   12  C3  UNL     1      24.839   7.869  47.620  1.00  0.00     0.009 A 
HETATM   13  C4  UNL     1      25.582   8.706  48.453  1.00  0.00     0.001 A 
HETATM   14  C5  UNL     1      25.331   8.784  49.820  1.00  0.00     0.002 A 
HETATM   15  C6  UNL     1      24.310   8.002  50.362  1.00  0.00     0.030 A 
ENDBRANCH   7   9
ENDBRANCH   6   7
ENDBRANCH   1   5
BRANCH   3  16
HETATM   16  N3  UNL     1      24.890  -0.358  53.735  1.00  0.00    -0.337 N 
HETATM   17  H13 UNL     1      24.134  -0.976  54.083  1.00  0.00     0.168 HD
BRANCH  16  18
HETATM   18  C12 UNL     1      26.291  -0.384  53.910  1.00  0.00     0.034 A 
HETATM   19  C13 UNL     1      27.071   0.273  54.845  1.00  0.00     0.029 A 
HETATM   20  C14 UNL     1      28.434   0.113  54.848  1.00  0.00     0.002 A 
HETATM   21  C15 UNL     1      29.066  -0.701  53.927  1.00  0.00     0.000 A 
HETATM   22  C16 UNL     1      28.304  -1.373  52.976  1.00  0.00     0.002 A 
HETATM   23  C17 UNL     1      26.932  -1.196  52.993  1.00  0.00     0.029 A 
ENDBRANCH  16  18
ENDBRANCH   3  16
TORSDOF 5
ENDMDL
MODEL 8
REMARK VINA RESULT:      -6.6      5.103      9.565
REMARK  5 active torsions:
REMARK  status: ('A' for Active; 'I' for Inactive)
REMARK    1  A    between atoms: C7_7  and  N1_8 
REMARK    2  A    between atoms: N1_8  and  C9_10 
REMARK    3  A    between atoms: N2_11  and  P1_12 
REMARK    4  A    between atoms: C11_14  and  N3_16 
REMARK    5  A    between atoms: N3_16  and  C12_17 
ROOT
HETATM    1  P1  UNL     1      22.799   5.282  50.808  1.00  0.00     0.187 P 
HETATM    2  C10 UNL     1      24.454   5.409  50.798  1.00  0.00     0.116 A 
HETATM    3  C11 UNL     1      24.806   6.825  50.797  1.00  0.00     0.153 A 
HETATM    4  O1  UNL     1      23.534   6.927  50.805  1.00  0.00    -0.280 OA
ENDROOT
BRANCH   1   5
HETATM    5  N2  UNL     1      22.006   3.684  50.812  1.00  0.00    -0.223 NA
HETATM    6  C9  UNL     1      22.587   2.602  51.241  1.00  0.00     0.211 C 
BRANCH   6   7
HETATM    7  N1  UNL     1      22.052   1.264  51.292  1.00  0.00    -0.345 N 
HETATM    8  C8  UNL     1      21.502   0.716  50.047  1.00  0.00     0.157 C 
BRANCH   7   9
HETATM    9  C7  UNL     1      22.009   0.426  52.438  1.00  0.00     0.040 A 
HETATM   10  C2  UNL     1      23.056  -0.051  53.200  1.00  0.00    -0.035 A 
HETATM   11  C1  UNL     1      24.385   0.373  52.754  1.00  0.00     0.050 C 
HETATM   12  C3  UNL     1      22.843  -0.856  54.282  1.00  0.00     0.009 A 
HETATM   13  C4  UNL     1      21.530  -1.195  54.612  1.00  0.00     0.001 A 
HETATM   14  C5  UNL     1      20.448  -0.733  53.867  1.00  0.00     0.002 A 
HETATM   15  C6  UNL     1      20.692   0.088  52.766  1.00  0.00     0.030 A 
ENDBRANCH   7   9
ENDBRANCH   6   7
ENDBRANCH   1   5
BRANCH   3  16
HETATM   16  N3  UNL     1      26.049   7.484  50.790  1.00  0.00    -0.337 N 
HETATM   17  H13 UNL     1      26.392   7.524  51.768  1.00  0.00     0.168 HD
BRANCH  16  18
HETATM   18  C12 UNL     1      26.598   7.947  49.574  1.00  0.00     0.034 A 
HETATM   19  C13 UNL     1      26.674   9.239  49.082  1.00  0.00     0.029 A 
HETATM   20  C14 UNL     1      27.254   9.483  47.862  1.00  0.00     0.002 A 
HETATM   21  C15 UNL     1      27.773   8.460  47.093  1.00  0.00     0.000 A 
HETATM   22  C16 UNL     1      27.708   7.153  47.566  1.00  0.00     0.002 A 
HETATM   23  C17 UNL     1      27.121   6.931  48.797  1.00  0.00     0.029 A 
ENDBRANCH  16  18
ENDBRANCH   3  16
TORSDOF 5
ENDMDL
MODEL 9
REMARK VINA RESULT:      -6.6      2.651      3.172
REMARK  5 active torsions:
REMARK  status: ('A' for Active; 'I' for Inactive)
REMARK    1  A    between atoms: C7_7  and  N1_8 
REMARK    2  A    between atoms: N1_8  and  C9_10 
REMARK    3  A    between atoms: N2_11  and  P1_12 
REMARK    4  A    between atoms: C11_14  and  N3_16 
REMARK    5  A    between atoms: N3_16  and  C12_17 
ROOT
HETATM    1  P1  UNL     1      23.738   2.145  51.055  1.00  0.00     0.187 P 
HETATM    2  C10 UNL     1      22.291   1.402  50.724  1.00  0.00     0.116 A 
HETATM    3  C11 UNL     1      21.549   2.236  49.785  1.00  0.00     0.153 A 
HETATM    4  O1  UNL     1      22.599   2.950  49.913  1.00  0.00    -0.280 OA
ENDROOT
BRANCH   1   5
HETATM    5  N2  UNL     1      24.910   1.402  52.176  1.00  0.00    -0.223 NA
HETATM    6  C9  UNL     1      24.623   0.386  52.935  1.00  0.00     0.211 C 
BRANCH   6   7
HETATM    7  N1  UNL     1      25.480  -0.295  53.874  1.00  0.00    -0.345 N 
HETATM    8  C8  UNL     1      24.834  -0.945  55.020  1.00  0.00     0.157 C 
BRANCH   7   9
HETATM    9  C7  UNL     1      26.894  -0.395  53.791  1.00  0.00     0.040 A 
HETATM   10  C2  UNL     1      27.658  -1.304  53.088  1.00  0.00    -0.035 A 
HETATM   11  C1  UNL     1      26.890  -2.293  52.328  1.00  0.00     0.050 C 
HETATM   12  C3  UNL     1      29.021  -1.264  53.115  1.00  0.00     0.009 A 
HETATM   13  C4  UNL     1      29.644  -0.274  53.875  1.00  0.00     0.001 A 
HETATM   14  C5  UNL     1      28.909   0.661  54.598  1.00  0.00     0.002 A 
HETATM   15  C6  UNL     1      27.515   0.599  54.555  1.00  0.00     0.030 A 
ENDBRANCH   7   9
ENDBRANCH   6   7
ENDBRANCH   1   5
BRANCH   3  16
HETATM   16  N3  UNL     1      20.287   2.081  49.183  1.00  0.00    -0.337 N 
HETATM   17  H13 UNL     1      20.430   2.017  48.158  1.00  0.00     0.168 HD
BRANCH  16  18
HETATM   18  C12 UNL     1      19.123   2.038  49.983  1.00  0.00     0.034 A 
HETATM   19  C13 UNL     1      18.526   3.046  50.718  1.00  0.00     0.029 A 
HETATM   20  C14 UNL     1      17.384   2.798  51.437  1.00  0.00     0.002 A 
HETATM   21  C15 UNL     1      16.798   1.546  51.451  1.00  0.00     0.000 A 
HETATM   22  C16 UNL     1      17.379   0.515  50.719  1.00  0.00     0.002 A 
HETATM   23  C17 UNL     1      18.530   0.789  50.002  1.00  0.00     0.029 A 
ENDBRANCH  16  18
ENDBRANCH   3  16
TORSDOF 5
ENDMDL
