MODEL 1
REMARK VINA RESULT:      -8.0      0.000      0.000
REMARK  5 active torsions:
REMARK  status: ('A' for Active; 'I' for Inactive)
REMARK    1  A    between atoms: C6_6  and  C7_7 
REMARK    2  A    between atoms: C7_7  and  S1_8 
REMARK    3  A    between atoms: S1_8  and  C8_9 
REMARK    4  A    between atoms: C9_12  and  C10_13 
REMARK    5  A    between atoms: C16_19  and  O1_20 
ROOT
HETATM    1  C8  UNL     1      24.159   3.322  52.075  1.00  0.00     0.231 A 
HETATM    2  N1  UNL     1      23.478   2.429  52.802  1.00  0.00    -0.114 NA
HETATM    3  N2  UNL     1      24.351   1.514  53.135  1.00  0.00    -0.120 NA
HETATM    4  C9  UNL     1      25.585   1.810  52.629  1.00  0.00     0.206 A 
HETATM    5  O2  UNL     1      25.401   2.937  51.986  1.00  0.00    -0.263 OA
ENDROOT
BRANCH   4   6
HETATM    6  C10 UNL     1      26.688   0.893  52.903  1.00  0.00     0.052 A 
HETATM    7  C11 UNL     1      26.758  -0.441  52.549  1.00  0.00     0.019 A 
HETATM    8  C12 UNL     1      27.908  -1.115  52.916  1.00  0.00     0.008 A 
HETATM    9  C13 UNL     1      28.944  -0.512  53.599  1.00  0.00    -0.059 A 
HETATM   10  C14 UNL     1      30.087  -1.434  53.890  1.00  0.00     0.048 C 
HETATM   11  C15 UNL     1      28.860   0.823  53.947  1.00  0.00     0.044 A 
HETATM   12  C16 UNL     1      27.709   1.521  53.587  1.00  0.00     0.080 A 
BRANCH  12  13
HETATM   13  O1  UNL     1      27.727   2.851  53.983  1.00  0.00    -0.360 OA
HETATM   14  H14 UNL     1      27.066   3.157  54.678  1.00  0.00     0.217 HD
ENDBRANCH  12  13
ENDBRANCH   4   6
BRANCH   1  15
HETATM   15  S1  UNL     1      23.607   4.845  51.284  1.00  0.00    -0.078 SA
BRANCH  15  16
HETATM   16  C7  UNL     1      23.820   4.705  49.487  1.00  0.00     0.122 C 
BRANCH  16  17
HETATM   17  C6  UNL     1      25.054   5.417  49.042  1.00  0.00    -0.039 A 
HETATM   18  C2  UNL     1      26.417   4.915  49.014  1.00  0.00    -0.038 A 
HETATM   19  C1  UNL     1      26.807   3.706  49.389  1.00  0.00     0.024 C 
HETATM   20  C3  UNL     1      27.166   6.057  48.488  1.00  0.00     0.011 A 
HETATM   21  C4  UNL     1      26.357   7.057  48.252  1.00  0.00     0.001 A 
HETATM   22  C5  UNL     1      24.987   6.655  48.607  1.00  0.00     0.009 A 
ENDBRANCH  16  17
ENDBRANCH  15  16
ENDBRANCH   1  15
TORSDOF 5
ENDMDL
MODEL 2
REMARK VINA RESULT:      -8.0      0.408      1.297
REMARK  5 active torsions:
REMARK  status: ('A' for Active; 'I' for Inactive)
REMARK    1  A    between atoms: C6_6  and  C7_7 
REMARK    2  A    between atoms: C7_7  and  S1_8 
REMARK    3  A    between atoms: S1_8  and  C8_9 
REMARK    4  A    between atoms: C9_12  and  C10_13 
REMARK    5  A    between atoms: C16_19  and  O1_20 
ROOT
HETATM    1  C8  UNL     1      24.156   3.188  52.086  1.00  0.00     0.231 A 
HETATM    2  N1  UNL     1      23.495   2.324  52.864  1.00  0.00    -0.114 NA
HETATM    3  N2  UNL     1      24.373   1.415  53.199  1.00  0.00    -0.120 NA
HETATM    4  C9  UNL     1      25.591   1.686  52.643  1.00  0.00     0.206 A 
HETATM    5  O2  UNL     1      25.393   2.792  51.970  1.00  0.00    -0.263 OA
ENDROOT
BRANCH   4   6
HETATM    6  C10 UNL     1      26.697   0.771  52.912  1.00  0.00     0.052 A 
HETATM    7  C11 UNL     1      26.737  -0.580  52.624  1.00  0.00     0.019 A 
HETATM    8  C12 UNL     1      27.897  -1.248  52.970  1.00  0.00     0.008 A 
HETATM    9  C13 UNL     1      28.970  -0.623  53.571  1.00  0.00    -0.059 A 
HETATM   10  C14 UNL     1      30.118  -1.542  53.855  1.00  0.00     0.048 C 
HETATM   11  C15 UNL     1      28.916   0.729  53.854  1.00  0.00     0.044 A 
HETATM   12  C16 UNL     1      27.756   1.421  53.513  1.00  0.00     0.080 A 
BRANCH  12  13
HETATM   13  O1  UNL     1      27.805   2.769  53.839  1.00  0.00    -0.360 OA
HETATM   14  H14 UNL     1      27.240   3.103  54.603  1.00  0.00     0.217 HD
ENDBRANCH  12  13
ENDBRANCH   4   6
BRANCH   1  15
HETATM   15  S1  UNL     1      23.587   4.688  51.264  1.00  0.00    -0.078 SA
BRANCH  15  16
HETATM   16  C7  UNL     1      23.879   4.547  49.478  1.00  0.00     0.122 C 
BRANCH  16  17
HETATM   17  C6  UNL     1      25.268   4.972  49.132  1.00  0.00    -0.039 A 
HETATM   18  C2  UNL     1      25.728   6.290  48.729  1.00  0.00    -0.038 A 
HETATM   19  C1  UNL     1      24.971   7.369  48.597  1.00  0.00     0.024 C 
HETATM   20  C3  UNL     1      27.162   6.079  48.531  1.00  0.00     0.011 A 
HETATM   21  C4  UNL     1      27.474   4.834  48.782  1.00  0.00     0.001 A 
HETATM   22  C5  UNL     1      26.256   4.108  49.172  1.00  0.00     0.009 A 
ENDBRANCH  16  17
ENDBRANCH  15  16
ENDBRANCH   1  15
TORSDOF 5
ENDMDL
MODEL 3
REMARK VINA RESULT:      -7.8      3.727      7.125
REMARK  5 active torsions:
REMARK  status: ('A' for Active; 'I' for Inactive)
REMARK    1  A    between atoms: C6_6  and  C7_7 
REMARK    2  A    between atoms: C7_7  and  S1_8 
REMARK    3  A    between atoms: S1_8  and  C8_9 
REMARK    4  A    between atoms: C9_12  and  C10_13 
REMARK    5  A    between atoms: C16_19  and  O1_20 
ROOT
HETATM    1  C8  UNL     1      24.975   1.817  51.691  1.00  0.00     0.231 A 
HETATM    2  N1  UNL     1      24.283   2.497  50.769  1.00  0.00    -0.114 NA
HETATM    3  N2  UNL     1      23.047   2.088  50.892  1.00  0.00    -0.120 NA
HETATM    4  C9  UNL     1      22.938   1.154  51.883  1.00  0.00     0.206 A 
HETATM    5  O2  UNL     1      24.161   1.031  52.337  1.00  0.00    -0.263 OA
ENDROOT
BRANCH   4   6
HETATM    6  C10 UNL     1      21.622   0.585  52.161  1.00  0.00     0.052 A 
HETATM    7  C11 UNL     1      20.478   0.746  51.403  1.00  0.00     0.019 A 
HETATM    8  C12 UNL     1      19.342   0.108  51.863  1.00  0.00     0.008 A 
HETATM    9  C13 UNL     1      19.324  -0.653  53.014  1.00  0.00    -0.059 A 
HETATM   10  C14 UNL     1      17.984  -1.249  53.318  1.00  0.00     0.048 C 
HETATM   11  C15 UNL     1      20.475  -0.805  53.762  1.00  0.00     0.044 A 
HETATM   12  C16 UNL     1      21.633  -0.171  53.316  1.00  0.00     0.080 A 
BRANCH  12  13
HETATM   13  O1  UNL     1      22.729  -0.387  54.138  1.00  0.00    -0.360 OA
HETATM   14  H14 UNL     1      23.195   0.409  54.543  1.00  0.00     0.217 HD
ENDBRANCH  12  13
ENDBRANCH   4   6
BRANCH   1  15
HETATM   15  S1  UNL     1      26.731   1.864  52.099  1.00  0.00    -0.078 SA
BRANCH  15  16
HETATM   16  C7  UNL     1      27.004   1.038  53.692  1.00  0.00     0.122 C 
BRANCH  16  17
HETATM   17  C6  UNL     1      28.075   0.004  53.578  1.00  0.00    -0.039 A 
HETATM   18  C2  UNL     1      27.957  -1.356  53.082  1.00  0.00    -0.038 A 
HETATM   19  C1  UNL     1      26.849  -1.926  52.634  1.00  0.00     0.024 C 
HETATM   20  C3  UNL     1      29.324  -1.862  53.217  1.00  0.00     0.011 A 
HETATM   21  C4  UNL     1      30.101  -0.935  53.713  1.00  0.00     0.001 A 
HETATM   22  C5  UNL     1      29.304   0.277  53.951  1.00  0.00     0.009 A 
ENDBRANCH  16  17
ENDBRANCH  15  16
ENDBRANCH   1  15
TORSDOF 5
ENDMDL
MODEL 4
REMARK VINA RESULT:      -7.8      4.669      7.534
REMARK  5 active torsions:
REMARK  status: ('A' for Active; 'I' for Inactive)
REMARK    1  A    between atoms: C6_6  and  C7_7 
REMARK    2  A    between atoms: C7_7  and  S1_8 
REMARK    3  A    between atoms: S1_8  and  C8_9 
REMARK    4  A    between atoms: C9_12  and  C10_13 
REMARK    5  A    between atoms: C16_19  and  O1_20 
ROOT
HETATM    1  C8  UNL     1      23.771   0.857  53.099  1.00  0.00     0.231 A 
HETATM    2  N1  UNL     1      23.841  -0.471  53.251  1.00  0.00    -0.114 NA
HETATM    3  N2  UNL     1      22.621  -0.906  53.071  1.00  0.00    -0.120 NA
HETATM    4  C9  UNL     1      21.769   0.128  52.807  1.00  0.00     0.206 A 
HETATM    5  O2  UNL     1      22.538   1.188  52.837  1.00  0.00    -0.263 OA
ENDROOT
BRANCH   4   6
HETATM    6  C10 UNL     1      20.358  -0.174  52.578  1.00  0.00     0.052 A 
HETATM    7  C11 UNL     1      19.596   0.220  51.495  1.00  0.00     0.019 A 
HETATM    8  C12 UNL     1      18.276  -0.189  51.492  1.00  0.00     0.008 A 
HETATM    9  C13 UNL     1      17.724  -0.948  52.504  1.00  0.00    -0.059 A 
HETATM   10  C14 UNL     1      16.277  -1.272  52.290  1.00  0.00     0.048 C 
HETATM   11  C15 UNL     1      18.498  -1.334  53.581  1.00  0.00     0.044 A 
HETATM   12  C16 UNL     1      19.832  -0.934  53.604  1.00  0.00     0.080 A 
BRANCH  12  13
HETATM   13  O1  UNL     1      20.519  -1.373  54.727  1.00  0.00    -0.360 OA
HETATM   14  H14 UNL     1      20.747  -2.351  54.802  1.00  0.00     0.217 HD
ENDBRANCH  12  13
ENDBRANCH   4   6
BRANCH   1  15
HETATM   15  S1  UNL     1      25.061   2.112  53.207  1.00  0.00    -0.078 SA
BRANCH  15  16
HETATM   16  C7  UNL     1      26.393   1.711  52.041  1.00  0.00     0.122 C 
BRANCH  16  17
HETATM   17  C6  UNL     1      27.407   0.820  52.680  1.00  0.00    -0.039 A 
HETATM   18  C2  UNL     1      28.554   1.200  53.485  1.00  0.00    -0.038 A 
HETATM   19  C1  UNL     1      28.905   2.438  53.800  1.00  0.00     0.024 C 
HETATM   20  C3  UNL     1      29.153  -0.093  53.816  1.00  0.00     0.011 A 
HETATM   21  C4  UNL     1      28.456  -1.063  53.282  1.00  0.00     0.001 A 
HETATM   22  C5  UNL     1      27.324  -0.484  52.543  1.00  0.00     0.009 A 
ENDBRANCH  16  17
ENDBRANCH  15  16
ENDBRANCH   1  15
TORSDOF 5
ENDMDL
MODEL 5
REMARK VINA RESULT:      -7.3      2.951      6.864
REMARK  5 active torsions:
REMARK  status: ('A' for Active; 'I' for Inactive)
REMARK    1  A    between atoms: C6_6  and  C7_7 
REMARK    2  A    between atoms: C7_7  and  S1_8 
REMARK    3  A    between atoms: S1_8  and  C8_9 
REMARK    4  A    between atoms: C9_12  and  C10_13 
REMARK    5  A    between atoms: C16_19  and  O1_20 
ROOT
HETATM    1  C8  UNL     1      22.761   3.999  51.414  1.00  0.00     0.231 A 
HETATM    2  N1  UNL     1      22.853   5.192  52.013  1.00  0.00    -0.114 NA
HETATM    3  N2  UNL     1      23.879   5.782  51.457  1.00  0.00    -0.120 NA
HETATM    4  C9  UNL     1      24.447   4.981  50.507  1.00  0.00     0.206 A 
HETATM    5  O2  UNL     1      23.712   3.897  50.528  1.00  0.00    -0.263 OA
ENDROOT
BRANCH   4   6
HETATM    6  C10 UNL     1      25.610   5.481  49.780  1.00  0.00     0.052 A 
HETATM    7  C11 UNL     1      25.903   6.803  49.503  1.00  0.00     0.019 A 
HETATM    8  C12 UNL     1      27.067   7.039  48.797  1.00  0.00     0.008 A 
HETATM    9  C13 UNL     1      27.909   6.028  48.380  1.00  0.00    -0.059 A 
HETATM   10  C14 UNL     1      29.111   6.518  47.632  1.00  0.00     0.048 C 
HETATM   11  C15 UNL     1      27.603   4.711  48.663  1.00  0.00     0.044 A 
HETATM   12  C16 UNL     1      26.434   4.450  49.375  1.00  0.00     0.080 A 
BRANCH  12  13
HETATM   13  O1  UNL     1      26.221   3.099  49.606  1.00  0.00    -0.360 OA
HETATM   14  H14 UNL     1      26.987   2.459  49.471  1.00  0.00     0.217 HD
ENDBRANCH  12  13
ENDBRANCH   4   6
BRANCH   1  15
HETATM   15  S1  UNL     1      21.588   2.654  51.670  1.00  0.00    -0.078 SA
BRANCH  15  16
HETATM   16  C7  UNL     1      22.442   1.064  51.484  1.00  0.00     0.122 C 
BRANCH  16  17
HETATM   17  C6  UNL     1      22.268   0.222  52.705  1.00  0.00    -0.039 A 
HETATM   18  C2  UNL     1      23.296  -0.280  53.600  1.00  0.00    -0.038 A 
HETATM   19  C1  UNL     1      24.598  -0.071  53.482  1.00  0.00     0.024 C 
HETATM   20  C3  UNL     1      22.518  -1.026  54.590  1.00  0.00     0.011 A 
HETATM   21  C4  UNL     1      21.243  -0.960  54.304  1.00  0.00     0.001 A 
HETATM   22  C5  UNL     1      21.069  -0.156  53.086  1.00  0.00     0.009 A 
ENDBRANCH  16  17
ENDBRANCH  15  16
ENDBRANCH   1  15
TORSDOF 5
ENDMDL
MODEL 6
REMARK VINA RESULT:      -7.2      2.458      7.123
REMARK  5 active torsions:
REMARK  status: ('A' for Active; 'I' for Inactive)
REMARK    1  A    between atoms: C6_6  and  C7_7 
REMARK    2  A    between atoms: C7_7  and  S1_8 
REMARK    3  A    between atoms: S1_8  and  C8_9 
REMARK    4  A    between atoms: C9_12  and  C10_13 
REMARK    5  A    between atoms: C16_19  and  O1_20 
ROOT
HETATM    1  C8  UNL     1      24.341   4.282  50.487  1.00  0.00     0.231 A 
HETATM    2  N1  UNL     1      24.206   5.476  51.075  1.00  0.00    -0.114 NA
HETATM    3  N2  UNL     1      24.975   6.287  50.397  1.00  0.00    -0.120 NA
HETATM    4  C9  UNL     1      25.603   5.626  49.379  1.00  0.00     0.206 A 
HETATM    5  O2  UNL     1      25.170   4.395  49.487  1.00  0.00    -0.263 OA
ENDROOT
BRANCH   4   6
HETATM    6  C10 UNL     1      26.505   6.380  48.513  1.00  0.00     0.052 A 
HETATM    7  C11 UNL     1      26.177   7.471  47.731  1.00  0.00     0.019 A 
HETATM    8  C12 UNL     1      27.203   8.027  46.990  1.00  0.00     0.008 A 
HETATM    9  C13 UNL     1      28.493   7.538  47.012  1.00  0.00    -0.059 A 
HETATM   10  C14 UNL     1      29.438   8.297  46.132  1.00  0.00     0.048 C 
HETATM   11  C15 UNL     1      28.807   6.446  47.798  1.00  0.00     0.044 A 
HETATM   12  C16 UNL     1      27.787   5.870  48.554  1.00  0.00     0.080 A 
BRANCH  12  13
HETATM   13  O1  UNL     1      28.208   4.782  49.305  1.00  0.00    -0.360 OA
HETATM   14  H14 UNL     1      29.071   4.327  49.056  1.00  0.00     0.217 HD
ENDBRANCH  12  13
ENDBRANCH   4   6
BRANCH   1  15
HETATM   15  S1  UNL     1      23.582   2.695  50.882  1.00  0.00    -0.078 SA
BRANCH  15  16
HETATM   16  C7  UNL     1      24.023   2.219  52.577  1.00  0.00     0.122 C 
BRANCH  16  17
HETATM   17  C6  UNL     1      24.961   1.058  52.575  1.00  0.00    -0.039 A 
HETATM   18  C2  UNL     1      24.799  -0.226  53.235  1.00  0.00    -0.038 A 
HETATM   19  C1  UNL     1      23.761  -0.595  53.971  1.00  0.00     0.024 C 
HETATM   20  C3  UNL     1      26.029  -0.929  52.869  1.00  0.00     0.011 A 
HETATM   21  C4  UNL     1      26.778  -0.166  52.116  1.00  0.00     0.001 A 
HETATM   22  C5  UNL     1      26.098   1.123  51.920  1.00  0.00     0.009 A 
ENDBRANCH  16  17
ENDBRANCH  15  16
ENDBRANCH   1  15
TORSDOF 5
ENDMDL
MODEL 7
REMARK VINA RESULT:      -7.2      2.959      4.317
REMARK  5 active torsions:
REMARK  status: ('A' for Active; 'I' for Inactive)
REMARK    1  A    between atoms: C6_6  and  C7_7 
REMARK    2  A    between atoms: C7_7  and  S1_8 
REMARK    3  A    between atoms: S1_8  and  C8_9 
REMARK    4  A    between atoms: C9_12  and  C10_13 
REMARK    5  A    between atoms: C16_19  and  O1_20 
ROOT
HETATM    1  C8  UNL     1      25.992   3.330  50.555  1.00  0.00     0.231 A 
HETATM    2  N1  UNL     1      26.954   2.681  51.220  1.00  0.00    -0.114 NA
HETATM    3  N2  UNL     1      26.334   1.780  51.938  1.00  0.00    -0.120 NA
HETATM    4  C9  UNL     1      24.983   1.845  51.740  1.00  0.00     0.206 A 
HETATM    5  O2  UNL     1      24.836   2.819  50.877  1.00  0.00    -0.263 OA
ENDROOT
BRANCH   4   6
HETATM    6  C10 UNL     1      24.129   0.908  52.465  1.00  0.00     0.052 A 
HETATM    7  C11 UNL     1      24.505   0.095  53.517  1.00  0.00     0.019 A 
HETATM    8  C12 UNL     1      23.518  -0.713  54.050  1.00  0.00     0.008 A 
HETATM    9  C13 UNL     1      22.223  -0.727  53.576  1.00  0.00    -0.059 A 
HETATM   10  C14 UNL     1      21.327  -1.680  54.306  1.00  0.00     0.048 C 
HETATM   11  C15 UNL     1      21.862   0.091  52.523  1.00  0.00     0.044 A 
HETATM   12  C16 UNL     1      22.840   0.915  51.970  1.00  0.00     0.080 A 
BRANCH  12  13
HETATM   13  O1  UNL     1      22.374   1.694  50.921  1.00  0.00    -0.360 OA
HETATM   14  H14 UNL     1      22.531   2.688  50.949  1.00  0.00     0.217 HD
ENDBRANCH  12  13
ENDBRANCH   4   6
BRANCH   1  15
HETATM   15  S1  UNL     1      26.103   4.694  49.381  1.00  0.00    -0.078 SA
BRANCH  15  16
HETATM   16  C7  UNL     1      27.762   4.724  48.645  1.00  0.00     0.122 C 
BRANCH  16  17
HETATM   17  C6  UNL     1      28.099   6.092  48.151  1.00  0.00    -0.039 A 
HETATM   18  C2  UNL     1      29.399   6.607  47.756  1.00  0.00    -0.038 A 
HETATM   19  C1  UNL     1      30.538   5.931  47.768  1.00  0.00     0.024 C 
HETATM   20  C3  UNL     1      29.091   7.985  47.373  1.00  0.00     0.011 A 
HETATM   21  C4  UNL     1      27.814   8.221  47.525  1.00  0.00     0.001 A 
HETATM   22  C5  UNL     1      27.162   7.003  48.028  1.00  0.00     0.009 A 
ENDBRANCH  16  17
ENDBRANCH  15  16
ENDBRANCH   1  15
TORSDOF 5
ENDMDL
MODEL 8
REMARK VINA RESULT:      -7.2      3.415      5.367
REMARK  5 active torsions:
REMARK  status: ('A' for Active; 'I' for Inactive)
REMARK    1  A    between atoms: C6_6  and  C7_7 
REMARK    2  A    between atoms: C7_7  and  S1_8 
REMARK    3  A    between atoms: S1_8  and  C8_9 
REMARK    4  A    between atoms: C9_12  and  C10_13 
REMARK    5  A    between atoms: C16_19  and  O1_20 
ROOT
HETATM    1  C8  UNL     1      23.225   2.416  51.960  1.00  0.00     0.231 A 
HETATM    2  N1  UNL     1      23.732   3.257  52.867  1.00  0.00    -0.114 NA
HETATM    3  N2  UNL     1      24.853   2.709  53.261  1.00  0.00    -0.120 NA
HETATM    4  C9  UNL     1      25.069   1.525  52.615  1.00  0.00     0.206 A 
HETATM    5  O2  UNL     1      24.031   1.400  51.826  1.00  0.00    -0.263 OA
ENDROOT
BRANCH   4   6
HETATM    6  C10 UNL     1      26.279   0.771  52.931  1.00  0.00     0.052 A 
HETATM    7  C11 UNL     1      26.343  -0.528  53.398  1.00  0.00     0.019 A 
HETATM    8  C12 UNL     1      27.607  -1.037  53.627  1.00  0.00     0.008 A 
HETATM    9  C13 UNL     1      28.759  -0.309  53.412  1.00  0.00    -0.059 A 
HETATM   10  C14 UNL     1      30.014  -1.062  53.728  1.00  0.00     0.048 C 
HETATM   11  C15 UNL     1      28.680   0.990  52.946  1.00  0.00     0.044 A 
HETATM   12  C16 UNL     1      27.415   1.523  52.707  1.00  0.00     0.080 A 
BRANCH  12  13
HETATM   13  O1  UNL     1      27.449   2.830  52.242  1.00  0.00    -0.360 OA
HETATM   14  H14 UNL     1      28.032   3.047  51.451  1.00  0.00     0.217 HD
ENDBRANCH  12  13
ENDBRANCH   4   6
BRANCH   1  15
HETATM   15  S1  UNL     1      21.703   2.519  50.997  1.00  0.00    -0.078 SA
BRANCH  15  16
HETATM   16  C7  UNL     1      20.283   2.626  52.122  1.00  0.00     0.122 C 
BRANCH  16  17
HETATM   17  C6  UNL     1      19.663   1.284  52.324  1.00  0.00    -0.039 A 
HETATM   18  C2  UNL     1      20.035   0.261  53.286  1.00  0.00    -0.038 A 
HETATM   19  C1  UNL     1      21.015   0.349  54.173  1.00  0.00     0.024 C 
HETATM   20  C3  UNL     1      19.076  -0.807  53.001  1.00  0.00     0.011 A 
HETATM   21  C4  UNL     1      18.280  -0.450  52.027  1.00  0.00     0.001 A 
HETATM   22  C5  UNL     1      18.650   0.901  51.580  1.00  0.00     0.009 A 
ENDBRANCH  16  17
ENDBRANCH  15  16
ENDBRANCH   1  15
TORSDOF 5
ENDMDL
MODEL 9
REMARK VINA RESULT:      -7.2      1.610      2.146
REMARK  5 active torsions:
REMARK  status: ('A' for Active; 'I' for Inactive)
REMARK    1  A    between atoms: C6_6  and  C7_7 
REMARK    2  A    between atoms: C7_7  and  S1_8 
REMARK    3  A    between atoms: S1_8  and  C8_9 
REMARK    4  A    between atoms: C9_12  and  C10_13 
REMARK    5  A    between atoms: C16_19  and  O1_20 
ROOT
HETATM    1  C8  UNL     1      23.961   5.121  51.320  1.00  0.00     0.231 A 
HETATM    2  N1  UNL     1      22.986   4.682  52.124  1.00  0.00    -0.114 NA
HETATM    3  N2  UNL     1      23.346   3.477  52.481  1.00  0.00    -0.120 NA
HETATM    4  C9  UNL     1      24.542   3.137  51.914  1.00  0.00     0.206 A 
HETATM    5  O2  UNL     1      24.869   4.193  51.210  1.00  0.00    -0.263 OA
ENDROOT
BRANCH   4   6
HETATM    6  C10 UNL     1      25.100   1.819  52.204  1.00  0.00     0.052 A 
HETATM    7  C11 UNL     1      24.399   0.699  52.609  1.00  0.00     0.019 A 
HETATM    8  C12 UNL     1      25.144  -0.446  52.825  1.00  0.00     0.008 A 
HETATM    9  C13 UNL     1      26.512  -0.494  52.653  1.00  0.00    -0.059 A 
HETATM   10  C14 UNL     1      27.106  -1.837  52.943  1.00  0.00     0.048 C 
HETATM   11  C15 UNL     1      27.199   0.635  52.248  1.00  0.00     0.044 A 
HETATM   12  C16 UNL     1      26.468   1.800  52.024  1.00  0.00     0.080 A 
BRANCH  12  13
HETATM   13  O1  UNL     1      27.253   2.871  51.622  1.00  0.00    -0.360 OA
HETATM   14  H14 UNL     1      26.891   3.500  50.923  1.00  0.00     0.217 HD
ENDBRANCH  12  13
ENDBRANCH   4   6
BRANCH   1  15
HETATM   15  S1  UNL     1      24.140   6.694  50.457  1.00  0.00    -0.078 SA
BRANCH  15  16
HETATM   16  C7  UNL     1      24.403   6.388  48.688  1.00  0.00     0.122 C 
BRANCH  16  17
HETATM   17  C6  UNL     1      25.747   6.876  48.258  1.00  0.00    -0.039 A 
HETATM   18  C2  UNL     1      27.020   6.181  48.339  1.00  0.00    -0.038 A 
HETATM   19  C1  UNL     1      27.211   4.962  48.821  1.00  0.00     0.024 C 
HETATM   20  C3  UNL     1      27.951   7.158  47.772  1.00  0.00     0.011 A 
HETATM   21  C4  UNL     1      27.309   8.242  47.422  1.00  0.00     0.001 A 
HETATM   22  C5  UNL     1      25.882   8.072  47.732  1.00  0.00     0.009 A 
ENDBRANCH  16  17
ENDBRANCH  15  16
ENDBRANCH   1  15
TORSDOF 5
ENDMDL
