MODEL 1
REMARK VINA RESULT:      -9.5      0.000      0.000
REMARK  4 active torsions:
REMARK  status: ('A' for Active; 'I' for Inactive)
REMARK    1  A    between atoms: C11_14  and  C13_16 
REMARK    2  A    between atoms: C13_16  and  C14_17 
REMARK    3  A    between atoms: C14_17  and  C17_20 
REMARK    4  A    between atoms: C22_25  and  N3_26 
ROOT
HETATM    1  C1  UNL     1      20.738   4.522  48.690  1.00  0.00     0.021 C 
HETATM    2  C2  UNL     1      20.964   3.260  49.019  1.00  0.00    -0.037 C 
HETATM    3  C3  UNL     1      19.802   2.450  49.372  1.00  0.00     0.027 C 
HETATM    4  C4  UNL     1      19.630   1.326  50.051  1.00  0.00     0.011 C 
HETATM    5 BR1  UNL     1      17.862   0.641  50.246  1.00  0.00    -0.051 Br
HETATM    6  C5  UNL     1      20.723   0.559  50.675  1.00  0.00     0.020 C 
HETATM    7  C6  UNL     1      22.038   0.802  50.763  1.00  0.00     0.012 C 
HETATM    8  C7  UNL     1      22.706   1.987  50.205  1.00  0.00    -0.016 A 
HETATM    9  C8  UNL     1      23.780   2.520  50.767  1.00  0.00     0.024 A 
HETATM   10  C9  UNL     1      24.181   3.671  49.964  1.00  0.00     0.129 A 
HETATM   11  N1  UNL     1      23.356   3.788  48.975  1.00  0.00    -0.258 NA
HETATM   12  C10 UNL     1      22.344   2.752  49.013  1.00  0.00     0.176 A 
HETATM   13  N2  UNL     1      25.262   3.854  50.906  1.00  0.00    -0.361 N 
HETATM   14  C11 UNL     1      24.931   2.741  51.740  1.00  0.00     0.063 A 
HETATM   15  C12 UNL     1      24.407   3.029  53.130  1.00  0.00     0.044 C 
HETATM   16  H7  UNL     1      25.981   4.614  50.853  1.00  0.00     0.162 HD
ENDROOT
BRANCH  14  17
HETATM   17  C13 UNL     1      25.854   1.586  51.584  1.00  0.00     0.075 C 
BRANCH  17  18
HETATM   18  C14 UNL     1      25.832   0.600  52.714  1.00  0.00    -0.047 C 
HETATM   19  C15 UNL     1      24.691   0.141  53.179  1.00  0.00    -0.023 C 
HETATM   20  C16 UNL     1      23.912  -0.700  54.102  1.00  0.00     0.036 C 
BRANCH  18  21
HETATM   21  C17 UNL     1      27.219   0.266  53.083  1.00  0.00    -0.004 A 
HETATM   22  C18 UNL     1      27.789  -0.982  52.950  1.00  0.00     0.014 A 
HETATM   23  C19 UNL     1      29.062  -1.319  53.320  1.00  0.00     0.001 A 
HETATM   24  C20 UNL     1      29.898  -0.382  53.879  1.00  0.00     0.002 A 
HETATM   25  C21 UNL     1      29.377   0.879  54.031  1.00  0.00     0.030 A 
HETATM   26  C22 UNL     1      28.086   1.141  53.635  1.00  0.00     0.036 A 
BRANCH  26  27
HETATM   27  N3  UNL     1      27.802   2.485  53.940  1.00  0.00    -0.398 N 
HETATM   28  H21 UNL     1      26.862   2.864  53.672  1.00  0.00     0.156 HD
HETATM   29  H22 UNL     1      27.587   3.457  54.157  1.00  0.00     0.156 HD
ENDBRANCH  26  27
ENDBRANCH  18  21
ENDBRANCH  17  18
ENDBRANCH  14  17
TORSDOF 4
ENDMDL
MODEL 2
REMARK VINA RESULT:      -9.5      1.871      2.630
REMARK  4 active torsions:
REMARK  status: ('A' for Active; 'I' for Inactive)
REMARK    1  A    between atoms: C11_14  and  C13_16 
REMARK    2  A    between atoms: C13_16  and  C14_17 
REMARK    3  A    between atoms: C14_17  and  C17_20 
REMARK    4  A    between atoms: C22_25  and  N3_26 
ROOT
HETATM    1  C1  UNL     1      24.554   6.263  48.720  1.00  0.00     0.021 C 
HETATM    2  C2  UNL     1      23.878   5.130  48.828  1.00  0.00    -0.037 C 
HETATM    3  C3  UNL     1      22.422   5.219  48.754  1.00  0.00     0.027 C 
HETATM    4  C4  UNL     1      21.427   4.434  49.139  1.00  0.00     0.011 C 
HETATM    5 BR1  UNL     1      19.638   5.004  48.810  1.00  0.00    -0.051 Br
HETATM    6  C5  UNL     1      21.609   3.136  49.813  1.00  0.00     0.020 C 
HETATM    7  C6  UNL     1      22.713   2.499  50.226  1.00  0.00     0.012 C 
HETATM    8  C7  UNL     1      24.081   3.017  50.074  1.00  0.00    -0.016 A 
HETATM    9  C8  UNL     1      25.038   2.745  50.948  1.00  0.00     0.024 A 
HETATM   10  C9  UNL     1      26.257   3.410  50.499  1.00  0.00     0.129 A 
HETATM   11  N1  UNL     1      25.997   4.044  49.401  1.00  0.00    -0.258 NA
HETATM   12  C10 UNL     1      24.612   3.870  49.012  1.00  0.00     0.176 A 
HETATM   13  N2  UNL     1      26.900   2.852  51.666  1.00  0.00    -0.361 N 
HETATM   14  C11 UNL     1      25.747   2.171  52.168  1.00  0.00     0.063 A 
HETATM   15  C12 UNL     1      25.119   2.689  53.443  1.00  0.00     0.044 C 
HETATM   16  H7  UNL     1      27.906   2.995  51.922  1.00  0.00     0.162 HD
ENDROOT
BRANCH  14  17
HETATM   17  C13 UNL     1      25.799   0.698  51.981  1.00  0.00     0.075 C 
BRANCH  17  18
HETATM   18  C14 UNL     1      25.981  -0.095  53.242  1.00  0.00    -0.047 C 
HETATM   19  C15 UNL     1      24.939  -0.472  53.950  1.00  0.00    -0.023 C 
HETATM   20  C16 UNL     1      24.336  -1.153  55.108  1.00  0.00     0.036 C 
BRANCH  18  21
HETATM   21  C17 UNL     1      27.416  -0.368  53.433  1.00  0.00    -0.004 A 
HETATM   22  C18 UNL     1      28.345   0.563  53.848  1.00  0.00     0.014 A 
HETATM   23  C19 UNL     1      29.686   0.336  53.996  1.00  0.00     0.001 A 
HETATM   24  C20 UNL     1      30.220  -0.900  53.724  1.00  0.00     0.002 A 
HETATM   25  C21 UNL     1      29.335  -1.863  53.307  1.00  0.00     0.030 A 
HETATM   26  C22 UNL     1      27.999  -1.559  53.182  1.00  0.00     0.036 A 
BRANCH  26  27
HETATM   27  N3  UNL     1      27.335  -2.705  52.706  1.00  0.00    -0.398 N 
HETATM   28  H21 UNL     1      26.365  -2.896  53.056  1.00  0.00     0.156 HD
HETATM   29  H22 UNL     1      26.846  -3.531  52.366  1.00  0.00     0.156 HD
ENDBRANCH  26  27
ENDBRANCH  18  21
ENDBRANCH  17  18
ENDBRANCH  14  17
TORSDOF 4
ENDMDL
MODEL 3
REMARK VINA RESULT:      -8.9      3.221      6.551
REMARK  4 active torsions:
REMARK  status: ('A' for Active; 'I' for Inactive)
REMARK    1  A    between atoms: C11_14  and  C13_16 
REMARK    2  A    between atoms: C13_16  and  C14_17 
REMARK    3  A    between atoms: C14_17  and  C17_20 
REMARK    4  A    between atoms: C22_25  and  N3_26 
ROOT
HETATM    1  C1  UNL     1      26.548  -0.858  52.636  1.00  0.00     0.021 C 
HETATM    2  C2  UNL     1      25.586  -0.017  52.980  1.00  0.00    -0.037 C 
HETATM    3  C3  UNL     1      24.374  -0.596  53.553  1.00  0.00     0.027 C 
HETATM    4  C4  UNL     1      23.126  -0.176  53.696  1.00  0.00     0.011 C 
HETATM    5 BR1  UNL     1      21.866  -1.333  54.537  1.00  0.00    -0.051 Br
HETATM    6  C5  UNL     1      22.638   1.140  53.244  1.00  0.00     0.020 C 
HETATM    7  C6  UNL     1      23.249   2.132  52.583  1.00  0.00     0.012 C 
HETATM    8  C7  UNL     1      24.651   2.100  52.140  1.00  0.00    -0.016 A 
HETATM    9  C8  UNL     1      25.058   2.723  51.045  1.00  0.00     0.024 A 
HETATM   10  C9  UNL     1      26.491   2.488  50.902  1.00  0.00     0.129 A 
HETATM   11  N1  UNL     1      26.885   1.750  51.888  1.00  0.00    -0.258 NA
HETATM   12  C10 UNL     1      25.783   1.425  52.772  1.00  0.00     0.176 A 
HETATM   13  N2  UNL     1      26.425   3.289  49.701  1.00  0.00    -0.361 N 
HETATM   14  C11 UNL     1      25.023   3.564  49.775  1.00  0.00     0.063 A 
HETATM   15  C12 UNL     1      24.122   2.929  48.738  1.00  0.00     0.044 C 
HETATM   16  H7  UNL     1      27.240   3.508  49.080  1.00  0.00     0.162 HD
ENDROOT
BRANCH  14  17
HETATM   17  C13 UNL     1      24.712   4.957  50.189  1.00  0.00     0.075 C 
BRANCH  17  18
HETATM   18  C14 UNL     1      24.620   5.946  49.065  1.00  0.00    -0.047 C 
HETATM   19  C15 UNL     1      23.559   5.980  48.290  1.00  0.00    -0.023 C 
HETATM   20  C16 UNL     1      22.794   6.537  47.161  1.00  0.00     0.036 C 
BRANCH  18  21
HETATM   21  C17 UNL     1      25.820   6.801  49.082  1.00  0.00    -0.004 A 
HETATM   22  C18 UNL     1      26.955   6.578  48.332  1.00  0.00     0.014 A 
HETATM   23  C19 UNL     1      28.090   7.341  48.362  1.00  0.00     0.001 A 
HETATM   24  C20 UNL     1      28.175   8.436  49.186  1.00  0.00     0.002 A 
HETATM   25  C21 UNL     1      27.068   8.702  49.954  1.00  0.00     0.030 A 
HETATM   26  C22 UNL     1      25.963   7.888  49.869  1.00  0.00     0.036 A 
BRANCH  26  27
HETATM   27  N3  UNL     1      25.003   8.363  50.782  1.00  0.00    -0.398 N 
HETATM   28  H21 UNL     1      23.996   8.353  50.491  1.00  0.00     0.156 HD
HETATM   29  H22 UNL     1      24.300   8.704  51.437  1.00  0.00     0.156 HD
ENDBRANCH  26  27
ENDBRANCH  18  21
ENDBRANCH  17  18
ENDBRANCH  14  17
TORSDOF 4
ENDMDL
MODEL 4
REMARK VINA RESULT:      -8.9      3.389      7.272
REMARK  4 active torsions:
REMARK  status: ('A' for Active; 'I' for Inactive)
REMARK    1  A    between atoms: C11_14  and  C13_16 
REMARK    2  A    between atoms: C13_16  and  C14_17 
REMARK    3  A    between atoms: C14_17  and  C17_20 
REMARK    4  A    between atoms: C22_25  and  N3_26 
ROOT
HETATM    1  C1  UNL     1      24.422  -0.969  54.952  1.00  0.00     0.021 C 
HETATM    2  C2  UNL     1      25.126  -0.545  53.914  1.00  0.00    -0.037 C 
HETATM    3  C3  UNL     1      26.580  -0.596  54.036  1.00  0.00     0.027 C 
HETATM    4  C4  UNL     1      27.582   0.013  53.420  1.00  0.00     0.011 C 
HETATM    5 BR1  UNL     1      29.365  -0.401  53.951  1.00  0.00    -0.051 Br
HETATM    6  C5  UNL     1      27.411   1.002  52.340  1.00  0.00     0.020 C 
HETATM    7  C6  UNL     1      26.311   1.536  51.793  1.00  0.00     0.012 C 
HETATM    8  C7  UNL     1      24.936   1.212  52.200  1.00  0.00    -0.016 A 
HETATM    9  C8  UNL     1      23.954   2.097  52.132  1.00  0.00     0.024 A 
HETATM   10  C9  UNL     1      22.735   1.452  52.607  1.00  0.00     0.129 A 
HETATM   11  N1  UNL     1      23.018   0.234  52.937  1.00  0.00    -0.258 NA
HETATM   12  C10 UNL     1      24.422  -0.054  52.720  1.00  0.00     0.176 A 
HETATM   13  N2  UNL     1      22.062   2.705  52.352  1.00  0.00    -0.361 N 
HETATM   14  C11 UNL     1      23.214   3.404  51.873  1.00  0.00     0.063 A 
HETATM   15  C12 UNL     1      23.777   4.515  52.734  1.00  0.00     0.044 C 
HETATM   16  H7  UNL     1      21.044   2.884  52.519  1.00  0.00     0.162 HD
ENDROOT
BRANCH  14  17
HETATM   17  C13 UNL     1      23.213   3.614  50.402  1.00  0.00     0.075 C 
BRANCH  17  18
HETATM   18  C14 UNL     1      24.284   4.532  49.892  1.00  0.00    -0.047 C 
HETATM   19  C15 UNL     1      25.484   4.072  49.618  1.00  0.00    -0.023 C 
HETATM   20  C16 UNL     1      26.870   4.258  49.157  1.00  0.00     0.036 C 
BRANCH  18  21
HETATM   21  C17 UNL     1      23.718   5.883  49.732  1.00  0.00    -0.004 A 
HETATM   22  C18 UNL     1      22.572   6.177  49.023  1.00  0.00     0.014 A 
HETATM   23  C19 UNL     1      22.053   7.429  48.835  1.00  0.00     0.001 A 
HETATM   24  C20 UNL     1      22.675   8.531  49.369  1.00  0.00     0.002 A 
HETATM   25  C21 UNL     1      23.821   8.291  50.086  1.00  0.00     0.030 A 
HETATM   26  C22 UNL     1      24.282   7.003  50.231  1.00  0.00     0.036 A 
BRANCH  26  27
HETATM   27  N3  UNL     1      25.480   7.051  50.968  1.00  0.00    -0.398 N 
HETATM   28  H21 UNL     1      26.060   7.923  50.914  1.00  0.00     0.156 HD
HETATM   29  H22 UNL     1      26.348   7.095  51.499  1.00  0.00     0.156 HD
ENDBRANCH  26  27
ENDBRANCH  18  21
ENDBRANCH  17  18
ENDBRANCH  14  17
TORSDOF 4
ENDMDL
MODEL 5
REMARK VINA RESULT:      -8.5      3.514      5.183
REMARK  4 active torsions:
REMARK  status: ('A' for Active; 'I' for Inactive)
REMARK    1  A    between atoms: C11_14  and  C13_16 
REMARK    2  A    between atoms: C13_16  and  C14_17 
REMARK    3  A    between atoms: C14_17  and  C17_20 
REMARK    4  A    between atoms: C22_25  and  N3_26 
ROOT
HETATM    1  C1  UNL     1      23.774   8.687  49.085  1.00  0.00     0.021 C 
HETATM    2  C2  UNL     1      23.744   7.455  48.603  1.00  0.00    -0.037 C 
HETATM    3  C3  UNL     1      23.067   7.261  47.324  1.00  0.00     0.027 C 
HETATM    4  C4  UNL     1      22.541   6.215  46.705  1.00  0.00     0.011 C 
HETATM    5 BR1  UNL     1      21.743   6.475  44.993  1.00  0.00    -0.051 Br
HETATM    6  C5  UNL     1      22.529   4.847  47.254  1.00  0.00     0.020 C 
HETATM    7  C6  UNL     1      22.949   4.361  48.429  1.00  0.00     0.012 C 
HETATM    8  C7  UNL     1      23.559   5.169  49.496  1.00  0.00    -0.016 A 
HETATM    9  C8  UNL     1      23.413   4.868  50.778  1.00  0.00     0.024 A 
HETATM   10  C9  UNL     1      24.139   5.866  51.557  1.00  0.00     0.129 A 
HETATM   11  N1  UNL     1      24.681   6.709  50.739  1.00  0.00    -0.258 NA
HETATM   12  C10 UNL     1      24.382   6.370  49.363  1.00  0.00     0.176 A 
HETATM   13  N2  UNL     1      23.702   5.152  52.735  1.00  0.00    -0.361 N 
HETATM   14  C11 UNL     1      22.971   4.139  52.040  1.00  0.00     0.063 A 
HETATM   15  C12 UNL     1      21.462   4.147  52.161  1.00  0.00     0.044 C 
HETATM   16  H7  UNL     1      23.935   5.421  53.720  1.00  0.00     0.162 HD
ENDROOT
BRANCH  14  17
HETATM   17  C13 UNL     1      23.648   2.816  52.032  1.00  0.00     0.075 C 
BRANCH  17  18
HETATM   18  C14 UNL     1      22.766   1.655  51.679  1.00  0.00    -0.047 C 
HETATM   19  C15 UNL     1      22.249   1.550  50.475  1.00  0.00    -0.023 C 
HETATM   20  C16 UNL     1      21.425   0.852  49.475  1.00  0.00     0.036 C 
BRANCH  18  21
HETATM   21  C17 UNL     1      22.686   0.747  52.838  1.00  0.00    -0.004 A 
HETATM   22  C18 UNL     1      23.741   0.014  53.337  1.00  0.00     0.014 A 
HETATM   23  C19 UNL     1      23.675  -0.860  54.388  1.00  0.00     0.001 A 
HETATM   24  C20 UNL     1      22.489  -1.072  55.047  1.00  0.00     0.002 A 
HETATM   25  C21 UNL     1      21.407  -0.363  54.588  1.00  0.00     0.030 A 
HETATM   26  C22 UNL     1      21.551   0.497  53.525  1.00  0.00     0.036 A 
BRANCH  26  27
HETATM   27  N3  UNL     1      20.290   1.055  53.243  1.00  0.00    -0.398 N 
HETATM   28  H21 UNL     1      19.472   0.747  53.822  1.00  0.00     0.156 HD
HETATM   29  H22 UNL     1      19.374   1.454  53.046  1.00  0.00     0.156 HD
ENDBRANCH  26  27
ENDBRANCH  18  21
ENDBRANCH  17  18
ENDBRANCH  14  17
TORSDOF 4
ENDMDL
MODEL 6
REMARK VINA RESULT:      -8.5      3.334      6.727
REMARK  4 active torsions:
REMARK  status: ('A' for Active; 'I' for Inactive)
REMARK    1  A    between atoms: C11_14  and  C13_16 
REMARK    2  A    between atoms: C13_16  and  C14_17 
REMARK    3  A    between atoms: C14_17  and  C17_20 
REMARK    4  A    between atoms: C22_25  and  N3_26 
ROOT
HETATM    1  C1  UNL     1      24.516  -0.899  55.119  1.00  0.00     0.021 C 
HETATM    2  C2  UNL     1      25.176  -0.525  54.035  1.00  0.00    -0.037 C 
HETATM    3  C3  UNL     1      26.634  -0.534  54.112  1.00  0.00     0.027 C 
HETATM    4  C4  UNL     1      27.601   0.059  53.427  1.00  0.00     0.011 C 
HETATM    5 BR1  UNL     1      29.410  -0.279  53.924  1.00  0.00    -0.051 Br
HETATM    6  C5  UNL     1      27.372   0.972  52.293  1.00  0.00     0.020 C 
HETATM    7  C6  UNL     1      26.242   1.445  51.750  1.00  0.00     0.012 C 
HETATM    8  C7  UNL     1      24.888   1.114  52.221  1.00  0.00    -0.016 A 
HETATM    9  C8  UNL     1      23.882   1.970  52.129  1.00  0.00     0.024 A 
HETATM   10  C9  UNL     1      22.695   1.327  52.684  1.00  0.00     0.129 A 
HETATM   11  N1  UNL     1      23.021   0.140  53.080  1.00  0.00    -0.258 NA
HETATM   12  C10 UNL     1      24.423  -0.128  52.836  1.00  0.00     0.176 A 
HETATM   13  N2  UNL     1      21.984   2.546  52.373  1.00  0.00    -0.361 N 
HETATM   14  C11 UNL     1      23.102   3.240  51.814  1.00  0.00     0.063 A 
HETATM   15  C12 UNL     1      23.662   4.416  52.584  1.00  0.00     0.044 C 
HETATM   16  H7  UNL     1      20.967   2.711  52.562  1.00  0.00     0.162 HD
ENDROOT
BRANCH  14  17
HETATM   17  C13 UNL     1      23.049   3.356  50.333  1.00  0.00     0.075 C 
BRANCH  17  18
HETATM   18  C14 UNL     1      23.221   4.748  49.800  1.00  0.00    -0.047 C 
HETATM   19  C15 UNL     1      22.213   5.591  49.796  1.00  0.00    -0.023 C 
HETATM   20  C16 UNL     1      21.627   6.911  49.505  1.00  0.00     0.036 C 
BRANCH  18  21
HETATM   21  C17 UNL     1      24.627   4.935  49.398  1.00  0.00    -0.004 A 
HETATM   22  C18 UNL     1      25.586   3.944  49.408  1.00  0.00     0.014 A 
HETATM   23  C19 UNL     1      26.902   4.109  49.072  1.00  0.00     0.001 A 
HETATM   24  C20 UNL     1      27.375   5.338  48.683  1.00  0.00     0.002 A 
HETATM   25  C21 UNL     1      26.458   6.358  48.655  1.00  0.00     0.030 A 
HETATM   26  C22 UNL     1      25.151   6.116  49.008  1.00  0.00     0.036 A 
BRANCH  26  27
HETATM   27  N3  UNL     1      24.446   7.331  48.928  1.00  0.00    -0.398 N 
HETATM   28  H21 UNL     1      24.844   8.167  49.422  1.00  0.00     0.156 HD
HETATM   29  H22 UNL     1      23.943   8.216  48.876  1.00  0.00     0.156 HD
ENDBRANCH  26  27
ENDBRANCH  18  21
ENDBRANCH  17  18
ENDBRANCH  14  17
TORSDOF 4
ENDMDL
MODEL 7
REMARK VINA RESULT:      -8.5      7.973      9.448
REMARK  4 active torsions:
REMARK  status: ('A' for Active; 'I' for Inactive)
REMARK    1  A    between atoms: C11_14  and  C13_16 
REMARK    2  A    between atoms: C13_16  and  C14_17 
REMARK    3  A    between atoms: C14_17  and  C17_20 
REMARK    4  A    between atoms: C22_25  and  N3_26 
ROOT
HETATM    1  C1  UNL     1      26.048   8.668  49.654  1.00  0.00     0.021 C 
HETATM    2  C2  UNL     1      26.677   7.719  48.979  1.00  0.00    -0.037 C 
HETATM    3  C3  UNL     1      26.287   6.340  49.256  1.00  0.00     0.027 C 
HETATM    4  C4  UNL     1      26.864   5.161  49.075  1.00  0.00     0.011 C 
HETATM    5 BR1  UNL     1      25.925   3.594  49.617  1.00  0.00    -0.051 Br
HETATM    6  C5  UNL     1      28.198   4.976  48.475  1.00  0.00     0.020 C 
HETATM    7  C6  UNL     1      29.111   5.861  48.055  1.00  0.00     0.012 C 
HETATM    8  C7  UNL     1      28.947   7.321  48.114  1.00  0.00    -0.016 A 
HETATM    9  C8  UNL     1      29.974   8.139  48.284  1.00  0.00     0.024 A 
HETATM   10  C9  UNL     1      29.462   9.505  48.296  1.00  0.00     0.129 A 
HETATM   11  N1  UNL     1      28.178   9.462  48.138  1.00  0.00    -0.258 NA
HETATM   12  C10 UNL     1      27.713   8.097  48.006  1.00  0.00     0.176 A 
HETATM   13  N2  UNL     1      30.828   9.935  48.486  1.00  0.00    -0.361 N 
HETATM   14  C11 UNL     1      31.404   8.626  48.485  1.00  0.00     0.063 A 
HETATM   15  C12 UNL     1      31.969   8.100  49.786  1.00  0.00     0.044 C 
HETATM   16  H7  UNL     1      31.136  10.932  48.578  1.00  0.00     0.162 HD
ENDROOT
BRANCH  14  17
HETATM   17  C13 UNL     1      32.146   8.305  47.238  1.00  0.00     0.075 C 
BRANCH  17  18
HETATM   18  C14 UNL     1      33.373   7.464  47.430  1.00  0.00    -0.047 C 
HETATM   19  C15 UNL     1      34.455   7.975  47.975  1.00  0.00    -0.023 C 
HETATM   20  C16 UNL     1      35.846   7.865  48.445  1.00  0.00     0.036 C 
BRANCH  18  21
HETATM   21  C17 UNL     1      33.087   6.091  46.979  1.00  0.00    -0.004 A 
HETATM   22  C18 UNL     1      33.081   5.680  45.663  1.00  0.00     0.014 A 
HETATM   23  C19 UNL     1      32.782   4.419  45.225  1.00  0.00     0.001 A 
HETATM   24  C20 UNL     1      32.451   3.429  46.119  1.00  0.00     0.002 A 
HETATM   25  C21 UNL     1      32.443   3.788  47.443  1.00  0.00     0.030 A 
HETATM   26  C22 UNL     1      32.754   5.078  47.807  1.00  0.00     0.036 A 
BRANCH  26  27
HETATM   27  N3  UNL     1      32.631   5.177  49.205  1.00  0.00    -0.398 N 
HETATM   28  H21 UNL     1      32.932   4.359  49.788  1.00  0.00     0.156 HD
HETATM   29  H22 UNL     1      32.546   5.240  50.218  1.00  0.00     0.156 HD
ENDBRANCH  26  27
ENDBRANCH  18  21
ENDBRANCH  17  18
ENDBRANCH  14  17
TORSDOF 4
ENDMDL
MODEL 8
REMARK VINA RESULT:      -8.4      3.387      6.583
REMARK  4 active torsions:
REMARK  status: ('A' for Active; 'I' for Inactive)
REMARK    1  A    between atoms: C11_14  and  C13_16 
REMARK    2  A    between atoms: C13_16  and  C14_17 
REMARK    3  A    between atoms: C14_17  and  C17_20 
REMARK    4  A    between atoms: C22_25  and  N3_26 
ROOT
HETATM    1  C1  UNL     1      22.421  -0.875  54.652  1.00  0.00     0.021 C 
HETATM    2  C2  UNL     1      23.108  -0.422  53.616  1.00  0.00    -0.037 C 
HETATM    3  C3  UNL     1      24.561  -0.537  53.684  1.00  0.00     0.027 C 
HETATM    4  C4  UNL     1      25.567   0.065  53.067  1.00  0.00     0.011 C 
HETATM    5 BR1  UNL     1      27.348  -0.449  53.511  1.00  0.00    -0.051 Br
HETATM    6  C5  UNL     1      25.403   1.117  52.048  1.00  0.00     0.020 C 
HETATM    7  C6  UNL     1      24.308   1.724  51.570  1.00  0.00     0.012 C 
HETATM    8  C7  UNL     1      22.935   1.433  52.006  1.00  0.00    -0.016 A 
HETATM    9  C8  UNL     1      21.988   2.359  52.020  1.00  0.00     0.024 A 
HETATM   10  C9  UNL     1      20.760   1.737  52.503  1.00  0.00     0.129 A 
HETATM   11  N1  UNL     1      21.004   0.492  52.757  1.00  0.00    -0.258 NA
HETATM   12  C10 UNL     1      22.386   0.162  52.475  1.00  0.00     0.176 A 
HETATM   13  N2  UNL     1      20.132   3.029  52.340  1.00  0.00    -0.361 N 
HETATM   14  C11 UNL     1      21.296   3.707  51.859  1.00  0.00     0.063 A 
HETATM   15  C12 UNL     1      21.932   4.744  52.758  1.00  0.00     0.044 C 
HETATM   16  H7  UNL     1      19.128   3.238  52.552  1.00  0.00     0.162 HD
ENDROOT
BRANCH  14  17
HETATM   17  C13 UNL     1      21.255   3.997  50.402  1.00  0.00     0.075 C 
BRANCH  17  18
HETATM   18  C14 UNL     1      21.668   5.388  50.022  1.00  0.00    -0.047 C 
HETATM   19  C15 UNL     1      20.778   6.354  49.950  1.00  0.00    -0.023 C 
HETATM   20  C16 UNL     1      20.402   7.755  49.697  1.00  0.00     0.036 C 
BRANCH  18  21
HETATM   21  C17 UNL     1      23.129   5.419  49.838  1.00  0.00    -0.004 A 
HETATM   22  C18 UNL     1      23.852   4.485  49.126  1.00  0.00     0.014 A 
HETATM   23  C19 UNL     1      25.212   4.479  48.975  1.00  0.00     0.001 A 
HETATM   24  C20 UNL     1      25.984   5.456  49.555  1.00  0.00     0.002 A 
HETATM   25  C21 UNL     1      25.311   6.410  50.275  1.00  0.00     0.030 A 
HETATM   26  C22 UNL     1      23.941   6.350  50.383  1.00  0.00     0.036 A 
BRANCH  26  27
HETATM   27  N3  UNL     1      23.521   7.417  51.199  1.00  0.00    -0.398 N 
HETATM   28  H21 UNL     1      24.167   8.234  51.316  1.00  0.00     0.156 HD
HETATM   29  H22 UNL     1      23.226   8.194  51.788  1.00  0.00     0.156 HD
ENDBRANCH  26  27
ENDBRANCH  18  21
ENDBRANCH  17  18
ENDBRANCH  14  17
TORSDOF 4
ENDMDL
MODEL 9
REMARK VINA RESULT:      -8.4      7.998      9.358
REMARK  4 active torsions:
REMARK  status: ('A' for Active; 'I' for Inactive)
REMARK    1  A    between atoms: C11_14  and  C13_16 
REMARK    2  A    between atoms: C13_16  and  C14_17 
REMARK    3  A    between atoms: C14_17  and  C17_20 
REMARK    4  A    between atoms: C22_25  and  N3_26 
ROOT
HETATM    1  C1  UNL     1      25.862   8.546  49.703  1.00  0.00     0.021 C 
HETATM    2  C2  UNL     1      26.288   7.432  49.130  1.00  0.00    -0.037 C 
HETATM    3  C3  UNL     1      25.700   6.180  49.599  1.00  0.00     0.027 C 
HETATM    4  C4  UNL     1      26.069   4.909  49.547  1.00  0.00     0.011 C 
HETATM    5 BR1  UNL     1      24.927   3.596  50.325  1.00  0.00    -0.051 Br
HETATM    6  C5  UNL     1      27.316   4.433  48.921  1.00  0.00     0.020 C 
HETATM    7  C6  UNL     1      28.331   5.097  48.353  1.00  0.00     0.012 C 
HETATM    8  C7  UNL     1      28.406   6.560  48.230  1.00  0.00    -0.016 A 
HETATM    9  C8  UNL     1      29.560   7.210  48.250  1.00  0.00     0.024 A 
HETATM   10  C9  UNL     1      29.274   8.634  48.107  1.00  0.00     0.129 A 
HETATM   11  N1  UNL     1      27.994   8.787  48.009  1.00  0.00    -0.258 NA
HETATM   12  C10 UNL     1      27.308   7.512  48.074  1.00  0.00     0.176 A 
HETATM   13  N2  UNL     1      30.701   8.850  48.183  1.00  0.00    -0.361 N 
HETATM   14  C11 UNL     1      31.059   7.473  48.326  1.00  0.00     0.063 A 
HETATM   15  C12 UNL     1      31.613   7.020  49.660  1.00  0.00     0.044 C 
HETATM   16  H7  UNL     1      31.170   9.785  48.133  1.00  0.00     0.162 HD
ENDROOT
BRANCH  14  17
HETATM   17  C13 UNL     1      31.661   6.885  47.101  1.00  0.00     0.075 C 
BRANCH  17  18
HETATM   18  C14 UNL     1      33.150   7.032  46.995  1.00  0.00    -0.047 C 
HETATM   19  C15 UNL     1      33.714   8.215  47.094  1.00  0.00    -0.023 C 
HETATM   20  C16 UNL     1      34.898   9.091  47.103  1.00  0.00     0.036 C 
BRANCH  18  21
HETATM   21  C17 UNL     1      33.752   5.696  46.839  1.00  0.00    -0.004 A 
HETATM   22  C18 UNL     1      33.900   4.777  47.855  1.00  0.00     0.014 A 
HETATM   23  C19 UNL     1      34.488   3.547  47.736  1.00  0.00     0.001 A 
HETATM   24  C20 UNL     1      34.995   3.129  46.530  1.00  0.00     0.002 A 
HETATM   25  C21 UNL     1      34.871   4.009  45.484  1.00  0.00     0.030 A 
HETATM   26  C22 UNL     1      34.267   5.229  45.682  1.00  0.00     0.036 A 
BRANCH  26  27
HETATM   27  N3  UNL     1      34.310   5.937  44.467  1.00  0.00    -0.398 N 
HETATM   28  H21 UNL     1      34.850   5.521  43.670  1.00  0.00     0.156 HD
HETATM   29  H22 UNL     1      34.346   6.443  43.583  1.00  0.00     0.156 HD
ENDBRANCH  26  27
ENDBRANCH  18  21
ENDBRANCH  17  18
ENDBRANCH  14  17
TORSDOF 4
ENDMDL
