MODEL 1
REMARK VINA RESULT:      -9.6      0.000      0.000
REMARK  1 active torsions:
REMARK  status: ('A' for Active; 'I' for Inactive)
REMARK    1  A    between atoms: C5_6  and  C7_8 
ROOT
HETATM    1  C1  UNL     1      25.968   4.354  49.266  1.00  0.00     0.000 C 
HETATM    2  O1  UNL     1      25.429   3.464  50.232  1.00  0.00     0.000 OA
HETATM    3  C2  UNL     1      24.085   3.458  50.556  1.00  0.00    -0.053 A 
HETATM    4  C3  UNL     1      24.758   2.472  51.101  1.00  0.00     0.027 A 
HETATM    5  C4  UNL     1      25.921   1.640  51.423  1.00  0.00     0.047 C 
HETATM    6  C5  UNL     1      26.035   1.411  52.930  1.00  0.00     0.075 C 
HETATM    7  C6  UNL     1      26.180   2.704  53.664  1.00  0.00     0.046 C 
HETATM    8  N1  UNL     1      24.851   0.652  53.295  1.00  0.00    -0.269 N 
HETATM    9  C13 UNL     1      24.867  -0.523  53.808  1.00  0.00     0.218 A 
HETATM   10  N2  UNL     1      23.550  -0.057  53.638  1.00  0.00    -0.068 NA
HETATM   11  N3  UNL     1      22.599  -0.719  53.060  1.00  0.00    -0.135 NA
HETATM   12  C14 UNL     1      21.283  -0.096  52.958  1.00  0.00     0.262 C 
HETATM   13  O2  UNL     1      20.933  -1.260  53.183  1.00  0.00    -0.270 OA
HETATM   14  C15 UNL     1      21.398   1.293  52.692  1.00  0.00     0.100 C 
HETATM   15  C16 UNL     1      20.242   2.228  52.927  1.00  0.00     0.035 C 
HETATM   16  C17 UNL     1      20.839   3.489  52.231  1.00  0.00     0.118 C 
HETATM   17  N4  UNL     1      21.946   3.013  51.468  1.00  0.00    -0.408 N 
HETATM   18  C18 UNL     1      22.649   3.832  50.630  1.00  0.00     0.151 C 
HETATM   19  C19 UNL     1      21.583   1.675  51.195  1.00  0.00     0.131 C 
ENDROOT
BRANCH   6  20
HETATM   20  C7  UNL     1      27.223   0.580  53.212  1.00  0.00    -0.027 A 
HETATM   21  C8  UNL     1      28.278   1.275  53.799  1.00  0.00     0.013 A 
HETATM   22  C9  UNL     1      29.450   0.634  54.119  1.00  0.00     0.044 A 
HETATM   23  C10 UNL     1      29.646  -0.711  53.883  1.00  0.00     0.138 A 
HETATM   24  F1  UNL     1      30.807  -1.328  54.205  1.00  0.00    -0.204 F 
HETATM   25  C11 UNL     1      28.577  -1.379  53.298  1.00  0.00     0.073 A 
HETATM   26 CL1  UNL     1      28.725  -3.090  52.956  1.00  0.00    -0.081 Cl
HETATM   27  C12 UNL     1      27.396  -0.743  52.972  1.00  0.00     0.036 A 
ENDBRANCH   6  20
TORSDOF 1
ENDMDL
MODEL 2
REMARK VINA RESULT:      -9.4      3.777      5.484
REMARK  1 active torsions:
REMARK  status: ('A' for Active; 'I' for Inactive)
REMARK    1  A    between atoms: C5_6  and  C7_8 
ROOT
HETATM    1  C1  UNL     1      19.915   1.746  49.221  1.00  0.00     0.000 C 
HETATM    2  O1  UNL     1      21.027   1.669  50.100  1.00  0.00     0.000 OA
HETATM    3  C2  UNL     1      21.024   0.859  51.220  1.00  0.00    -0.053 A 
HETATM    4  C3  UNL     1      22.191   1.406  50.975  1.00  0.00     0.027 A 
HETATM    5  C4  UNL     1      23.183   2.228  50.274  1.00  0.00     0.047 C 
HETATM    6  C5  UNL     1      23.916   3.153  51.245  1.00  0.00     0.075 C 
HETATM    7  C6  UNL     1      22.966   4.074  51.938  1.00  0.00     0.046 C 
HETATM    8  N1  UNL     1      24.646   2.271  52.140  1.00  0.00    -0.269 N 
HETATM    9  C13 UNL     1      25.922   2.254  52.268  1.00  0.00     0.218 A 
HETATM   10  N2  UNL     1      25.311   1.303  53.107  1.00  0.00    -0.068 NA
HETATM   11  N3  UNL     1      25.651   0.057  53.184  1.00  0.00    -0.135 NA
HETATM   12  C14 UNL     1      24.918  -0.807  54.103  1.00  0.00     0.262 C 
HETATM   13  O2  UNL     1      26.053  -1.267  54.266  1.00  0.00    -0.270 OA
HETATM   14  C15 UNL     1      23.536  -0.482  54.110  1.00  0.00     0.100 C 
HETATM   15  C16 UNL     1      22.637  -0.935  55.231  1.00  0.00     0.035 C 
HETATM   16  C17 UNL     1      21.273  -0.546  54.583  1.00  0.00     0.118 C 
HETATM   17  N4  UNL     1      21.560  -0.316  53.205  1.00  0.00    -0.408 N 
HETATM   18  C18 UNL     1      20.571  -0.060  52.296  1.00  0.00     0.151 C 
HETATM   19  C19 UNL     1      22.689  -1.135  52.980  1.00  0.00     0.131 C 
ENDROOT
BRANCH   6  20
HETATM   20  C7  UNL     1      24.895   3.970  50.500  1.00  0.00    -0.027 A 
HETATM   21  C8  UNL     1      25.807   3.226  49.754  1.00  0.00     0.013 A 
HETATM   22  C9  UNL     1      26.778   3.849  49.008  1.00  0.00     0.044 A 
HETATM   23  C10 UNL     1      26.905   5.222  48.955  1.00  0.00     0.138 A 
HETATM   24  F1  UNL     1      27.867   5.820  48.215  1.00  0.00    -0.204 F 
HETATM   25  C11 UNL     1      25.982   5.937  49.707  1.00  0.00     0.073 A 
HETATM   26 CL1  UNL     1      26.055   7.687  49.709  1.00  0.00    -0.081 Cl
HETATM   27  C12 UNL     1      25.002   5.321  50.461  1.00  0.00     0.036 A 
ENDBRANCH   6  20
TORSDOF 1
ENDMDL
MODEL 3
REMARK VINA RESULT:      -9.1      3.965      5.623
REMARK  1 active torsions:
REMARK  status: ('A' for Active; 'I' for Inactive)
REMARK    1  A    between atoms: C5_6  and  C7_8 
ROOT
HETATM    1  C1  UNL     1      19.453   2.523  48.508  1.00  0.00     0.000 C 
HETATM    2  O1  UNL     1      20.421   2.402  49.540  1.00  0.00     0.000 OA
HETATM    3  C2  UNL     1      20.291   1.481  50.563  1.00  0.00    -0.053 A 
HETATM    4  C3  UNL     1      21.450   2.096  50.558  1.00  0.00     0.027 A 
HETATM    5  C4  UNL     1      22.489   3.026  50.104  1.00  0.00     0.047 C 
HETATM    6  C5  UNL     1      23.012   3.875  51.263  1.00  0.00     0.075 C 
HETATM    7  C6  UNL     1      21.917   4.680  51.882  1.00  0.00     0.046 C 
HETATM    8  N1  UNL     1      23.645   2.936  52.173  1.00  0.00    -0.269 N 
HETATM    9  C13 UNL     1      24.886   2.958  52.498  1.00  0.00     0.218 A 
HETATM   10  N2  UNL     1      24.209   1.901  53.135  1.00  0.00    -0.068 NA
HETATM   11  N3  UNL     1      24.603   0.668  53.145  1.00  0.00    -0.135 NA
HETATM   12  C14 UNL     1      23.787  -0.315  53.850  1.00  0.00     0.262 C 
HETATM   13  O2  UNL     1      24.908  -0.743  54.145  1.00  0.00    -0.270 OA
HETATM   14  C15 UNL     1      22.404  -0.050  53.670  1.00  0.00     0.100 C 
HETATM   15  C16 UNL     1      21.372  -0.652  54.587  1.00  0.00     0.035 C 
HETATM   16  C17 UNL     1      20.103  -0.254  53.772  1.00  0.00     0.118 C 
HETATM   17  N4  UNL     1      20.583   0.129  52.484  1.00  0.00    -0.408 N 
HETATM   18  C18 UNL     1      19.732   0.438  51.460  1.00  0.00     0.151 C 
HETATM   19  C19 UNL     1      21.778  -0.616  52.364  1.00  0.00     0.131 C 
ENDROOT
BRANCH   6  20
HETATM   20  C7  UNL     1      24.046   4.804  50.763  1.00  0.00    -0.027 A 
HETATM   21  C8  UNL     1      23.878   6.122  51.182  1.00  0.00     0.013 A 
HETATM   22  C9  UNL     1      24.763   7.100  50.797  1.00  0.00     0.044 A 
HETATM   23  C10 UNL     1      25.849   6.838  49.987  1.00  0.00     0.138 A 
HETATM   24  F1  UNL     1      26.713   7.813  49.618  1.00  0.00    -0.204 F 
HETATM   25  C11 UNL     1      25.992   5.516  49.586  1.00  0.00     0.073 A 
HETATM   26 CL1  UNL     1      27.339   5.078  48.556  1.00  0.00    -0.081 Cl
HETATM   27  C12 UNL     1      25.108   4.526  49.967  1.00  0.00     0.036 A 
ENDBRANCH   6  20
TORSDOF 1
ENDMDL
MODEL 4
REMARK VINA RESULT:      -8.9      1.768      2.198
REMARK  1 active torsions:
REMARK  status: ('A' for Active; 'I' for Inactive)
REMARK    1  A    between atoms: C5_6  and  C7_8 
ROOT
HETATM    1  C1  UNL     1      24.569   5.137  48.834  1.00  0.00     0.000 C 
HETATM    2  O1  UNL     1      23.888   4.242  49.701  1.00  0.00     0.000 OA
HETATM    3  C2  UNL     1      22.511   4.248  49.827  1.00  0.00    -0.053 A 
HETATM    4  C3  UNL     1      23.088   3.247  50.450  1.00  0.00     0.027 A 
HETATM    5  C4  UNL     1      24.185   2.398  50.925  1.00  0.00     0.047 C 
HETATM    6  C5  UNL     1      24.078   2.151  52.430  1.00  0.00     0.075 C 
HETATM    7  C6  UNL     1      24.129   3.433  53.194  1.00  0.00     0.046 C 
HETATM    8  N1  UNL     1      22.847   1.401  52.610  1.00  0.00    -0.269 N 
HETATM    9  C13 UNL     1      22.777   0.219  53.105  1.00  0.00     0.218 A 
HETATM   10  N2  UNL     1      21.503   0.703  52.753  1.00  0.00    -0.068 NA
HETATM   11  N3  UNL     1      20.639   0.060  52.035  1.00  0.00    -0.135 NA
HETATM   12  C14 UNL     1      19.358   0.698  51.753  1.00  0.00     0.262 C 
HETATM   13  O2  UNL     1      18.967  -0.464  51.910  1.00  0.00    -0.270 OA
HETATM   14  C15 UNL     1      19.523   2.089  51.525  1.00  0.00     0.100 C 
HETATM   15  C16 UNL     1      18.354   3.035  51.604  1.00  0.00     0.035 C 
HETATM   16  C17 UNL     1      19.058   4.297  51.017  1.00  0.00     0.118 C 
HETATM   17  N4  UNL     1      20.258   3.817  50.415  1.00  0.00    -0.408 N 
HETATM   18  C18 UNL     1      21.083   4.637  49.698  1.00  0.00     0.151 C 
HETATM   19  C19 UNL     1      19.925   2.487  50.075  1.00  0.00     0.131 C 
ENDROOT
BRANCH   6  20
HETATM   20  C7  UNL     1      25.205   1.303  52.869  1.00  0.00    -0.027 A 
HETATM   21  C8  UNL     1      26.016   1.890  53.838  1.00  0.00     0.013 A 
HETATM   22  C9  UNL     1      27.104   1.220  54.343  1.00  0.00     0.044 A 
HETATM   23  C10 UNL     1      27.450  -0.050  53.928  1.00  0.00     0.138 A 
HETATM   24  F1  UNL     1      28.525  -0.696  54.437  1.00  0.00    -0.204 F 
HETATM   25  C11 UNL     1      26.623  -0.610  52.963  1.00  0.00     0.073 A 
HETATM   26 CL1  UNL     1      26.975  -2.219  52.368  1.00  0.00    -0.081 Cl
HETATM   27  C12 UNL     1      25.528   0.054  52.448  1.00  0.00     0.036 A 
ENDBRANCH   6  20
TORSDOF 1
ENDMDL
MODEL 5
REMARK VINA RESULT:      -8.9      4.170      7.017
REMARK  1 active torsions:
REMARK  status: ('A' for Active; 'I' for Inactive)
REMARK    1  A    between atoms: C5_6  and  C7_8 
ROOT
HETATM    1  C1  UNL     1      21.633   5.287  51.001  1.00  0.00     0.000 C 
HETATM    2  O1  UNL     1      21.992   3.979  51.422  1.00  0.00     0.000 OA
HETATM    3  C2  UNL     1      23.311   3.591  51.565  1.00  0.00    -0.053 A 
HETATM    4  C3  UNL     1      22.454   2.700  52.005  1.00  0.00     0.027 A 
HETATM    5  C4  UNL     1      21.145   2.115  52.314  1.00  0.00     0.047 C 
HETATM    6  C5  UNL     1      21.038   0.689  51.774  1.00  0.00     0.075 C 
HETATM    7  C6  UNL     1      21.215   0.658  50.291  1.00  0.00     0.046 C 
HETATM    8  N1  UNL     1      22.033  -0.076  52.506  1.00  0.00    -0.269 N 
HETATM    9  C13 UNL     1      21.772  -1.076  53.265  1.00  0.00     0.218 A 
HETATM   10  N2  UNL     1      23.153  -0.807  53.230  1.00  0.00    -0.068 NA
HETATM   11  N3  UNL     1      23.908  -0.678  54.274  1.00  0.00    -0.135 NA
HETATM   12  C14 UNL     1      25.326  -0.397  54.073  1.00  0.00     0.262 C 
HETATM   13  O2  UNL     1      25.413  -1.165  55.038  1.00  0.00    -0.270 OA
HETATM   14  C15 UNL     1      25.517   0.496  52.987  1.00  0.00     0.100 C 
HETATM   15  C16 UNL     1      26.863   0.638  52.325  1.00  0.00     0.035 C 
HETATM   16  C17 UNL     1      26.540   1.886  51.447  1.00  0.00     0.118 C 
HETATM   17  N4  UNL     1      25.327   2.419  51.976  1.00  0.00    -0.408 N 
HETATM   18  C18 UNL     1      24.796   3.593  51.519  1.00  0.00     0.151 C 
HETATM   19  C19 UNL     1      25.369   2.007  53.327  1.00  0.00     0.131 C 
ENDROOT
BRANCH   6  20
HETATM   20  C7  UNL     1      19.705   0.142  52.095  1.00  0.00    -0.027 A 
HETATM   21  C8  UNL     1      18.646   0.873  51.563  1.00  0.00     0.013 A 
HETATM   22  C9  UNL     1      17.345   0.484  51.778  1.00  0.00     0.044 A 
HETATM   23  C10 UNL     1      17.019  -0.632  52.520  1.00  0.00     0.138 A 
HETATM   24  F1  UNL     1      15.733  -1.002  52.721  1.00  0.00    -0.204 F 
HETATM   25  C11 UNL     1      18.096  -1.342  53.037  1.00  0.00     0.073 A 
HETATM   26 CL1  UNL     1      17.790  -2.777  53.994  1.00  0.00    -0.081 Cl
HETATM   27  C12 UNL     1      19.406  -0.960  52.827  1.00  0.00     0.036 A 
ENDBRANCH   6  20
TORSDOF 1
ENDMDL
MODEL 6
REMARK VINA RESULT:      -8.8      4.302      7.176
REMARK  1 active torsions:
REMARK  status: ('A' for Active; 'I' for Inactive)
REMARK    1  A    between atoms: C5_6  and  C7_8 
ROOT
HETATM    1  C1  UNL     1      24.073   5.094  49.897  1.00  0.00     0.000 C 
HETATM    2  O1  UNL     1      23.731   3.867  50.523  1.00  0.00     0.000 OA
HETATM    3  C2  UNL     1      24.688   3.018  51.048  1.00  0.00    -0.053 A 
HETATM    4  C3  UNL     1      23.458   2.656  51.330  1.00  0.00     0.027 A 
HETATM    5  C4  UNL     1      21.993   2.722  51.335  1.00  0.00     0.047 C 
HETATM    6  C5  UNL     1      21.381   1.383  50.927  1.00  0.00     0.075 C 
HETATM    7  C6  UNL     1      21.816   0.984  49.555  1.00  0.00     0.046 C 
HETATM    8  N1  UNL     1      21.771   0.448  51.968  1.00  0.00    -0.269 N 
HETATM    9  C13 UNL     1      20.952  -0.188  52.724  1.00  0.00     0.218 A 
HETATM   10  N2  UNL     1      22.288  -0.509  53.032  1.00  0.00    -0.068 NA
HETATM   11  N3  UNL     1      22.799  -0.487  54.221  1.00  0.00    -0.135 NA
HETATM   12  C14 UNL     1      24.205  -0.846  54.378  1.00  0.00     0.262 C 
HETATM   13  O2  UNL     1      23.752  -1.372  55.401  1.00  0.00    -0.270 OA
HETATM   14  C15 UNL     1      24.980  -0.345  53.300  1.00  0.00     0.100 C 
HETATM   15  C16 UNL     1      26.353  -0.892  53.009  1.00  0.00     0.035 C 
HETATM   16  C17 UNL     1      26.792   0.175  51.960  1.00  0.00     0.118 C 
HETATM   17  N4  UNL     1      25.858   1.245  52.093  1.00  0.00    -0.408 N 
HETATM   18  C18 UNL     1      25.998   2.415  51.399  1.00  0.00     0.151 C 
HETATM   19  C19 UNL     1      25.446   1.133  53.439  1.00  0.00     0.131 C 
ENDROOT
BRANCH   6  20
HETATM   20  C7  UNL     1      19.908   1.494  50.934  1.00  0.00    -0.027 A 
HETATM   21  C8  UNL     1      19.429   2.671  51.506  1.00  0.00     0.013 A 
HETATM   22  C9  UNL     1      18.079   2.915  51.583  1.00  0.00     0.044 A 
HETATM   23  C10 UNL     1      17.137   2.026  51.107  1.00  0.00     0.138 A 
HETATM   24  F1  UNL     1      15.810   2.282  51.190  1.00  0.00    -0.204 F 
HETATM   25  C11 UNL     1      17.644   0.863  50.542  1.00  0.00     0.073 A 
HETATM   26 CL1  UNL     1      16.531  -0.332  49.908  1.00  0.00    -0.081 Cl
HETATM   27  C12 UNL     1      18.998   0.607  50.460  1.00  0.00     0.036 A 
ENDBRANCH   6  20
TORSDOF 1
ENDMDL
MODEL 7
REMARK VINA RESULT:      -8.7      2.778      3.828
REMARK  1 active torsions:
REMARK  status: ('A' for Active; 'I' for Inactive)
REMARK    1  A    between atoms: C5_6  and  C7_8 
ROOT
HETATM    1  C1  UNL     1      21.972   3.058  47.402  1.00  0.00     0.000 C 
HETATM    2  O1  UNL     1      21.573   2.526  48.656  1.00  0.00     0.000 OA
HETATM    3  C2  UNL     1      20.244   2.330  48.981  1.00  0.00    -0.053 A 
HETATM    4  C3  UNL     1      21.076   1.832  49.865  1.00  0.00     0.027 A 
HETATM    5  C4  UNL     1      22.368   1.499  50.474  1.00  0.00     0.047 C 
HETATM    6  C5  UNL     1      22.411   1.923  51.942  1.00  0.00     0.075 C 
HETATM    7  C6  UNL     1      22.204   3.395  52.086  1.00  0.00     0.046 C 
HETATM    8  N1  UNL     1      21.403   1.114  52.606  1.00  0.00    -0.269 N 
HETATM    9  C13 UNL     1      21.642   0.280  53.551  1.00  0.00     0.218 A 
HETATM   10  N2  UNL     1      20.272   0.313  53.232  1.00  0.00    -0.068 NA
HETATM   11  N3  UNL     1      19.543  -0.729  52.990  1.00  0.00    -0.135 NA
HETATM   12  C14 UNL     1      18.133  -0.530  52.671  1.00  0.00     0.262 C 
HETATM   13  O2  UNL     1      18.036  -1.555  53.355  1.00  0.00    -0.270 OA
HETATM   14  C15 UNL     1      17.953   0.623  51.863  1.00  0.00     0.100 C 
HETATM   15  C16 UNL     1      16.601   1.271  51.723  1.00  0.00     0.035 C 
HETATM   16  C17 UNL     1      16.952   2.253  50.563  1.00  0.00     0.118 C 
HETATM   17  N4  UNL     1      18.194   1.790  50.037  1.00  0.00    -0.408 N 
HETATM   18  C18 UNL     1      18.759   2.350  48.925  1.00  0.00     0.151 C 
HETATM   19  C19 UNL     1      18.164   0.410  50.336  1.00  0.00     0.131 C 
ENDROOT
BRANCH   6  20
HETATM   20  C7  UNL     1      23.729   1.580  52.513  1.00  0.00    -0.027 A 
HETATM   21  C8  UNL     1      24.328   2.617  53.226  1.00  0.00     0.013 A 
HETATM   22  C9  UNL     1      25.557   2.446  53.815  1.00  0.00     0.044 A 
HETATM   23  C10 UNL     1      26.257   1.259  53.736  1.00  0.00     0.138 A 
HETATM   24  F1  UNL     1      27.468   1.107  54.323  1.00  0.00    -0.204 F 
HETATM   25  C11 UNL     1      25.636   0.244  53.020  1.00  0.00     0.073 A 
HETATM   26 CL1  UNL     1      26.442  -1.303  52.860  1.00  0.00    -0.081 Cl
HETATM   27  C12 UNL     1      24.401   0.406  52.424  1.00  0.00     0.036 A 
ENDBRANCH   6  20
TORSDOF 1
ENDMDL
MODEL 8
REMARK VINA RESULT:      -8.3      4.326      6.678
REMARK  1 active torsions:
REMARK  status: ('A' for Active; 'I' for Inactive)
REMARK    1  A    between atoms: C5_6  and  C7_8 
ROOT
HETATM    1  C1  UNL     1      26.212   2.017  53.648  1.00  0.00     0.000 C 
HETATM    2  O1  UNL     1      25.019   2.381  52.969  1.00  0.00     0.000 OA
HETATM    3  C2  UNL     1      23.880   1.598  53.014  1.00  0.00    -0.053 A 
HETATM    4  C3  UNL     1      23.693   2.758  52.430  1.00  0.00     0.027 A 
HETATM    5  C4  UNL     1      24.037   4.087  51.912  1.00  0.00     0.047 C 
HETATM    6  C5  UNL     1      23.571   4.252  50.466  1.00  0.00     0.075 C 
HETATM    7  C6  UNL     1      24.205   3.235  49.574  1.00  0.00     0.046 C 
HETATM    8  N1  UNL     1      22.121   4.174  50.518  1.00  0.00    -0.269 N 
HETATM    9  C13 UNL     1      21.326   5.115  50.160  1.00  0.00     0.218 A 
HETATM   10  N2  UNL     1      20.614   3.990  50.615  1.00  0.00    -0.068 NA
HETATM   11  N3  UNL     1      19.667   4.020  51.497  1.00  0.00    -0.135 NA
HETATM   12  C14 UNL     1      19.024   2.763  51.868  1.00  0.00     0.262 C 
HETATM   13  O2  UNL     1      18.033   3.502  51.881  1.00  0.00    -0.270 OA
HETATM   14  C15 UNL     1      19.972   1.708  51.930  1.00  0.00     0.100 C 
HETATM   15  C16 UNL     1      19.534   0.267  51.900  1.00  0.00     0.035 C 
HETATM   16  C17 UNL     1      20.904  -0.382  52.262  1.00  0.00     0.118 C 
HETATM   17  N4  UNL     1      21.711   0.685  52.756  1.00  0.00    -0.408 N 
HETATM   18  C18 UNL     1      22.956   0.466  53.278  1.00  0.00     0.151 C 
HETATM   19  C19 UNL     1      20.753   1.588  53.270  1.00  0.00     0.131 C 
ENDROOT
BRANCH   6  20
HETATM   20  C7  UNL     1      23.946   5.595  49.980  1.00  0.00    -0.027 A 
HETATM   21  C8  UNL     1      24.084   6.547  50.988  1.00  0.00     0.013 A 
HETATM   22  C9  UNL     1      24.430   7.843  50.688  1.00  0.00     0.044 A 
HETATM   23  C10 UNL     1      24.655   8.268  49.395  1.00  0.00     0.138 A 
HETATM   24  F1  UNL     1      24.996   9.549  49.116  1.00  0.00    -0.204 F 
HETATM   25  C11 UNL     1      24.511   7.298  48.412  1.00  0.00     0.073 A 
HETATM   26 CL1  UNL     1      24.776   7.735  46.736  1.00  0.00    -0.081 Cl
HETATM   27  C12 UNL     1      24.164   5.994  48.702  1.00  0.00     0.036 A 
ENDBRANCH   6  20
TORSDOF 1
ENDMDL
MODEL 9
REMARK VINA RESULT:      -8.1      3.566      5.946
REMARK  1 active torsions:
REMARK  status: ('A' for Active; 'I' for Inactive)
REMARK    1  A    between atoms: C5_6  and  C7_8 
ROOT
HETATM    1  C1  UNL     1      17.319   3.440  51.620  1.00  0.00     0.000 C 
HETATM    2  O1  UNL     1      18.719   3.502  51.393  1.00  0.00     0.000 OA
HETATM    3  C2  UNL     1      19.279   4.396  50.500  1.00  0.00    -0.053 A 
HETATM    4  C3  UNL     1      20.168   3.746  51.214  1.00  0.00     0.027 A 
HETATM    5  C4  UNL     1      20.674   2.798  52.211  1.00  0.00     0.047 C 
HETATM    6  C5  UNL     1      21.759   1.900  51.616  1.00  0.00     0.075 C 
HETATM    7  C6  UNL     1      21.236   1.112  50.460  1.00  0.00     0.046 C 
HETATM    8  N1  UNL     1      22.855   2.793  51.278  1.00  0.00    -0.269 N 
HETATM    9  C13 UNL     1      24.034   2.724  51.778  1.00  0.00     0.218 A 
HETATM   10  N2  UNL     1      23.930   3.782  50.856  1.00  0.00    -0.068 NA
HETATM   11  N3  UNL     1      24.300   5.001  51.083  1.00  0.00    -0.135 NA
HETATM   12  C14 UNL     1      24.126   5.988  50.023  1.00  0.00     0.262 C 
HETATM   13  O2  UNL     1      25.211   6.373  50.472  1.00  0.00    -0.270 OA
HETATM   14  C15 UNL     1      22.911   5.771  49.322  1.00  0.00     0.100 C 
HETATM   15  C16 UNL     1      22.677   6.378  47.964  1.00  0.00     0.035 C 
HETATM   16  C17 UNL     1      21.159   6.043  47.836  1.00  0.00     0.118 C 
HETATM   17  N4  UNL     1      20.739   5.682  49.151  1.00  0.00    -0.408 N 
HETATM   18  C18 UNL     1      19.428   5.430  49.444  1.00  0.00     0.151 C 
HETATM   19  C19 UNL     1      21.642   6.393  49.972  1.00  0.00     0.131 C 
ENDROOT
BRANCH   6  20
HETATM   20  C7  UNL     1      22.234   0.955  52.647  1.00  0.00    -0.027 A 
HETATM   21  C8  UNL     1      21.252   0.560  53.553  1.00  0.00     0.013 A 
HETATM   22  C9  UNL     1      21.546  -0.317  54.569  1.00  0.00     0.044 A 
HETATM   23  C10 UNL     1      22.807  -0.849  54.747  1.00  0.00     0.138 A 
HETATM   24  F1  UNL     1      23.079  -1.713  55.753  1.00  0.00    -0.204 F 
HETATM   25  C11 UNL     1      23.764  -0.438  53.829  1.00  0.00     0.073 A 
HETATM   26 CL1  UNL     1      25.398  -1.055  53.967  1.00  0.00    -0.081 Cl
HETATM   27  C12 UNL     1      23.480   0.444  52.805  1.00  0.00     0.036 A 
ENDBRANCH   6  20
TORSDOF 1
ENDMDL
