MODEL 1
REMARK VINA RESULT:      -7.7      0.000      0.000
REMARK  1 active torsions:
REMARK  status: ('A' for Active; 'I' for Inactive)
REMARK    1  A    between atoms: O1_2  and  C2_3 
ROOT
HETATM    1  C2  UNL     1      19.557   1.769  51.653  1.00  0.00     0.070 A 
HETATM    2  C3  UNL     1      19.815   3.119  51.544  1.00  0.00     0.039 A 
HETATM    3  C4  UNL     1      21.072   3.591  51.873  1.00  0.00     0.035 A 
HETATM    4  C5  UNL     1      22.012   2.675  52.297  1.00  0.00     0.066 A 
HETATM    5  C6  UNL     1      21.729   1.303  52.402  1.00  0.00     0.099 A 
HETATM    6  C7  UNL     1      20.476   0.831  52.074  1.00  0.00     0.075 A 
HETATM    7  O2  UNL     1      22.648   0.334  52.830  1.00  0.00    -0.332 OA
HETATM    8  C8  UNL     1      23.751   0.550  53.659  1.00  0.00     0.220 C 
HETATM    9  C9  UNL     1      24.350  -0.691  54.228  1.00  0.00     0.123 C 
HETATM   10  N1  UNL     1      25.674  -1.219  54.271  1.00  0.00    -0.288 NA
HETATM   11  C10 UNL     1      26.872  -0.453  53.693  1.00  0.00     0.092 A 
HETATM   12  C11 UNL     1      27.501   0.495  54.652  1.00  0.00     0.048 C 
HETATM   13  C12 UNL     1      28.435   0.991  53.426  1.00  0.00     0.120 C 
HETATM   14 CL1  UNL     1      29.928   0.138  53.451  1.00  0.00    -0.122 Cl
HETATM   15  C13 UNL     1      27.324   0.399  52.657  1.00  0.00     0.082 A 
HETATM   16  C14 UNL     1      26.784  -0.578  52.103  1.00  0.00     0.060 A 
HETATM   17  N2  UNL     1      26.248   1.597  52.760  1.00  0.00    -0.376 N 
HETATM   18  C15 UNL     1      24.728   1.542  53.095  1.00  0.00     0.056 C 
HETATM   19  C16 UNL     1      24.500   2.747  52.638  1.00  0.00     0.116 C 
HETATM   20  N3  UNL     1      23.240   3.394  52.570  1.00  0.00    -0.362 N 
HETATM   21  H12 UNL     1      26.455   2.667  52.610  1.00  0.00     0.160 HD
HETATM   22  H14 UNL     1      23.267   4.405  52.719  1.00  0.00     0.165 HD
ENDROOT
BRANCH   1  23
HETATM   23  O1  UNL     1      18.297   1.263  51.328  1.00  0.00    -0.356 OA
HETATM   24  C1  UNL     1      18.130  -0.135  51.326  1.00  0.00     0.210 C 
ENDBRANCH   1  23
TORSDOF 1
ENDMDL
MODEL 2
REMARK VINA RESULT:      -7.6      3.863      6.247
REMARK  1 active torsions:
REMARK  status: ('A' for Active; 'I' for Inactive)
REMARK    1  A    between atoms: O1_2  and  C2_3 
ROOT
HETATM    1  C2  UNL     1      24.055  -0.351  53.677  1.00  0.00     0.070 A 
HETATM    2  C3  UNL     1      25.353  -0.711  53.384  1.00  0.00     0.039 A 
HETATM    3  C4  UNL     1      26.091   0.080  52.524  1.00  0.00     0.035 A 
HETATM    4  C5  UNL     1      25.483   1.201  51.999  1.00  0.00     0.066 A 
HETATM    5  C6  UNL     1      24.159   1.551  52.310  1.00  0.00     0.099 A 
HETATM    6  C7  UNL     1      23.421   0.763  53.168  1.00  0.00     0.075 A 
HETATM    7  O2  UNL     1      23.496   2.678  51.802  1.00  0.00    -0.332 OA
HETATM    8  C8  UNL     1      23.781   3.332  50.602  1.00  0.00     0.220 C 
HETATM    9  C9  UNL     1      22.718   4.272  50.142  1.00  0.00     0.123 C 
HETATM   10  N1  UNL     1      22.717   5.640  49.737  1.00  0.00    -0.288 NA
HETATM   11  C10 UNL     1      24.010   6.463  49.654  1.00  0.00     0.092 A 
HETATM   12  C11 UNL     1      24.714   6.349  48.348  1.00  0.00     0.048 C 
HETATM   13  C12 UNL     1      25.909   7.220  49.008  1.00  0.00     0.120 C 
HETATM   14 CL1  UNL     1      25.693   8.883  48.628  1.00  0.00    -0.122 Cl
HETATM   15  C13 UNL     1      25.275   6.713  50.238  1.00  0.00     0.082 A 
HETATM   16  C14 UNL     1      24.434   6.820  51.152  1.00  0.00     0.060 A 
HETATM   17  N2  UNL     1      25.892   5.223  50.273  1.00  0.00    -0.376 N 
HETATM   18  C15 UNL     1      25.186   3.860  50.537  1.00  0.00     0.056 C 
HETATM   19  C16 UNL     1      26.309   3.229  50.768  1.00  0.00     0.116 C 
HETATM   20  N3  UNL     1      26.445   1.869  51.146  1.00  0.00    -0.362 N 
HETATM   21  H12 UNL     1      26.944   4.955  50.098  1.00  0.00     0.160 HD
HETATM   22  H14 UNL     1      27.276   1.402  50.779  1.00  0.00     0.165 HD
ENDROOT
BRANCH   1  23
HETATM   23  O1  UNL     1      23.285  -1.130  54.542  1.00  0.00    -0.356 OA
HETATM   24  C1  UNL     1      21.941  -0.758  54.743  1.00  0.00     0.210 C 
ENDBRANCH   1  23
TORSDOF 1
ENDMDL
MODEL 3
REMARK VINA RESULT:      -7.3      3.895      7.150
REMARK  1 active torsions:
REMARK  status: ('A' for Active; 'I' for Inactive)
REMARK    1  A    between atoms: O1_2  and  C2_3 
ROOT
HETATM    1  C2  UNL     1      26.399  -0.268  53.871  1.00  0.00     0.070 A 
HETATM    2  C3  UNL     1      25.342  -0.846  54.540  1.00  0.00     0.039 A 
HETATM    3  C4  UNL     1      24.052  -0.559  54.133  1.00  0.00     0.035 A 
HETATM    4  C5  UNL     1      23.891   0.299  53.066  1.00  0.00     0.066 A 
HETATM    5  C6  UNL     1      24.982   0.878  52.396  1.00  0.00     0.099 A 
HETATM    6  C7  UNL     1      26.269   0.593  52.801  1.00  0.00     0.075 A 
HETATM    7  O2  UNL     1      24.870   1.757  51.309  1.00  0.00    -0.332 OA
HETATM    8  C8  UNL     1      23.780   2.578  51.020  1.00  0.00     0.220 C 
HETATM    9  C9  UNL     1      24.058   3.649  50.020  1.00  0.00     0.123 C 
HETATM   10  N1  UNL     1      23.423   4.061  48.811  1.00  0.00    -0.288 NA
HETATM   11  C10 UNL     1      22.136   3.397  48.304  1.00  0.00     0.092 A 
HETATM   12  C11 UNL     1      20.891   3.999  48.854  1.00  0.00     0.048 C 
HETATM   13  C12 UNL     1      20.082   2.809  48.110  1.00  0.00     0.120 C 
HETATM   14 CL1  UNL     1      19.539   3.351  46.571  1.00  0.00    -0.122 Cl
HETATM   15  C13 UNL     1      21.416   2.184  48.183  1.00  0.00     0.082 A 
HETATM   16  C14 UNL     1      22.547   1.976  47.701  1.00  0.00     0.060 A 
HETATM   17  N2  UNL     1      21.405   1.685  49.716  1.00  0.00    -0.376 N 
HETATM   18  C15 UNL     1      22.503   1.814  50.812  1.00  0.00     0.056 C 
HETATM   19  C16 UNL     1      21.956   0.909  51.584  1.00  0.00     0.116 C 
HETATM   20  N3  UNL     1      22.470   0.437  52.818  1.00  0.00    -0.362 N 
HETATM   21  H12 UNL     1      20.575   1.169  50.222  1.00  0.00     0.160 HD
HETATM   22  H14 UNL     1      21.762   0.194  53.514  1.00  0.00     0.165 HD
ENDROOT
BRANCH   1  23
HETATM   23  O1  UNL     1      27.713  -0.539  54.260  1.00  0.00    -0.356 OA
HETATM   24  C1  UNL     1      28.562   0.555  54.517  1.00  0.00     0.210 C 
ENDBRANCH   1  23
TORSDOF 1
ENDMDL
MODEL 4
REMARK VINA RESULT:      -7.2      4.247      6.676
REMARK  1 active torsions:
REMARK  status: ('A' for Active; 'I' for Inactive)
REMARK    1  A    between atoms: O1_2  and  C2_3 
ROOT
HETATM    1  C2  UNL     1      25.461   5.830  48.717  1.00  0.00     0.070 A 
HETATM    2  C3  UNL     1      26.571   5.052  48.970  1.00  0.00     0.039 A 
HETATM    3  C4  UNL     1      26.444   3.952  49.796  1.00  0.00     0.035 A 
HETATM    4  C5  UNL     1      25.200   3.687  50.330  1.00  0.00     0.066 A 
HETATM    5  C6  UNL     1      24.081   4.493  50.060  1.00  0.00     0.099 A 
HETATM    6  C7  UNL     1      24.206   5.591  49.236  1.00  0.00     0.075 A 
HETATM    7  O2  UNL     1      22.798   4.269  50.579  1.00  0.00    -0.332 OA
HETATM    8  C8  UNL     1      22.492   3.593  51.762  1.00  0.00     0.220 C 
HETATM    9  C9  UNL     1      21.097   3.796  52.248  1.00  0.00     0.123 C 
HETATM   10  N1  UNL     1      20.048   2.911  52.639  1.00  0.00    -0.288 NA
HETATM   11  C10 UNL     1      20.240   1.389  52.669  1.00  0.00     0.092 A 
HETATM   12  C11 UNL     1      20.794   0.877  53.952  1.00  0.00     0.048 C 
HETATM   13  C12 UNL     1      20.877  -0.577  53.243  1.00  0.00     0.120 C 
HETATM   14 CL1  UNL     1      19.463  -1.484  53.613  1.00  0.00    -0.122 Cl
HETATM   15  C13 UNL     1      20.846   0.275  52.040  1.00  0.00     0.082 A 
HETATM   16  C14 UNL     1      20.215   0.883  51.154  1.00  0.00     0.060 A 
HETATM   17  N2  UNL     1      22.387   0.752  51.999  1.00  0.00    -0.376 N 
HETATM   18  C15 UNL     1      22.982   2.172  51.774  1.00  0.00     0.056 C 
HETATM   19  C16 UNL     1      24.181   1.719  51.512  1.00  0.00     0.116 C 
HETATM   20  N3  UNL     1      25.310   2.493  51.143  1.00  0.00    -0.362 N 
HETATM   21  H12 UNL     1      23.267   0.107  52.142  1.00  0.00     0.160 HD
HETATM   22  H14 UNL     1      26.205   2.140  51.487  1.00  0.00     0.165 HD
ENDROOT
BRANCH   1  23
HETATM   23  O1  UNL     1      25.559   6.949  47.887  1.00  0.00    -0.356 OA
HETATM   24  C1  UNL     1      26.740   7.714  47.949  1.00  0.00     0.210 C 
ENDBRANCH   1  23
TORSDOF 1
ENDMDL
MODEL 5
REMARK VINA RESULT:      -7.1      3.519      3.922
REMARK  1 active torsions:
REMARK  status: ('A' for Active; 'I' for Inactive)
REMARK    1  A    between atoms: O1_2  and  C2_3 
ROOT
HETATM    1  C2  UNL     1      21.652   3.918  46.977  1.00  0.00     0.070 A 
HETATM    2  C3  UNL     1      22.245   5.162  46.938  1.00  0.00     0.039 A 
HETATM    3  C4  UNL     1      23.201   5.480  47.884  1.00  0.00     0.035 A 
HETATM    4  C5  UNL     1      23.515   4.524  48.827  1.00  0.00     0.066 A 
HETATM    5  C6  UNL     1      22.899   3.262  48.851  1.00  0.00     0.099 A 
HETATM    6  C7  UNL     1      21.945   2.943  47.908  1.00  0.00     0.075 A 
HETATM    7  O2  UNL     1      23.181   2.259  49.789  1.00  0.00    -0.332 OA
HETATM    8  C8  UNL     1      23.683   2.451  51.078  1.00  0.00     0.220 C 
HETATM    9  C9  UNL     1      23.564   1.263  51.972  1.00  0.00     0.123 C 
HETATM   10  N1  UNL     1      24.487   0.547  52.791  1.00  0.00    -0.288 NA
HETATM   11  C10 UNL     1      25.951   0.983  52.937  1.00  0.00     0.092 A 
HETATM   12  C11 UNL     1      26.177   1.985  54.013  1.00  0.00     0.048 C 
HETATM   13  C12 UNL     1      27.708   2.078  53.496  1.00  0.00     0.120 C 
HETATM   14 CL1  UNL     1      28.698   1.017  54.419  1.00  0.00    -0.122 Cl
HETATM   15  C13 UNL     1      27.076   1.536  52.279  1.00  0.00     0.082 A 
HETATM   16  C14 UNL     1      26.699   0.570  51.587  1.00  0.00     0.060 A 
HETATM   17  N2  UNL     1      26.438   2.888  51.673  1.00  0.00    -0.376 N 
HETATM   18  C15 UNL     1      25.015   3.144  51.096  1.00  0.00     0.056 C 
HETATM   19  C16 UNL     1      25.365   4.259  50.506  1.00  0.00     0.116 C 
HETATM   20  N3  UNL     1      24.537   5.075  49.694  1.00  0.00    -0.362 N 
HETATM   21  H12 UNL     1      26.945   3.861  51.591  1.00  0.00     0.160 HD
HETATM   22  H14 UNL     1      24.724   6.077  49.760  1.00  0.00     0.165 HD
ENDROOT
BRANCH   1  23
HETATM   23  O1  UNL     1      20.683   3.569  46.035  1.00  0.00    -0.356 OA
HETATM   24  C1  UNL     1      20.921   3.909  44.689  1.00  0.00     0.210 C 
ENDBRANCH   1  23
TORSDOF 1
ENDMDL
MODEL 6
REMARK VINA RESULT:      -7.0      5.482      7.299
REMARK  1 active torsions:
REMARK  status: ('A' for Active; 'I' for Inactive)
REMARK    1  A    between atoms: O1_2  and  C2_3 
ROOT
HETATM    1  C2  UNL     1      26.478   7.980  47.212  1.00  0.00     0.070 A 
HETATM    2  C3  UNL     1      27.742   7.433  47.263  1.00  0.00     0.039 A 
HETATM    3  C4  UNL     1      27.967   6.339  48.077  1.00  0.00     0.035 A 
HETATM    4  C5  UNL     1      26.902   5.847  48.803  1.00  0.00     0.066 A 
HETATM    5  C6  UNL     1      25.621   6.420  48.736  1.00  0.00     0.099 A 
HETATM    6  C7  UNL     1      25.395   7.511  47.925  1.00  0.00     0.075 A 
HETATM    7  O2  UNL     1      24.508   5.959  49.455  1.00  0.00    -0.332 OA
HETATM    8  C8  UNL     1      24.537   5.252  50.658  1.00  0.00     0.220 C 
HETATM    9  C9  UNL     1      23.228   5.190  51.371  1.00  0.00     0.123 C 
HETATM   10  N1  UNL     1      22.447   4.125  51.912  1.00  0.00    -0.288 NA
HETATM   11  C10 UNL     1      22.930   2.668  51.880  1.00  0.00     0.092 A 
HETATM   12  C11 UNL     1      23.776   2.288  53.044  1.00  0.00     0.048 C 
HETATM   13  C12 UNL     1      24.017   0.869  52.303  1.00  0.00     0.120 C 
HETATM   14 CL1  UNL     1      22.884  -0.288  52.882  1.00  0.00    -0.122 Cl
HETATM   15  C13 UNL     1      23.625   1.684  51.138  1.00  0.00     0.082 A 
HETATM   16  C14 UNL     1      22.752   2.148  50.380  1.00  0.00     0.060 A 
HETATM   17  N2  UNL     1      25.018   2.447  50.854  1.00  0.00    -0.376 N 
HETATM   18  C15 UNL     1      25.285   3.953  50.562  1.00  0.00     0.056 C 
HETATM   19  C16 UNL     1      26.489   3.734  50.097  1.00  0.00     0.116 C 
HETATM   20  N3  UNL     1      27.372   4.707  49.563  1.00  0.00    -0.362 N 
HETATM   21  H12 UNL     1      26.016   1.985  50.838  1.00  0.00     0.160 HD
HETATM   22  H14 UNL     1      28.362   4.536  49.748  1.00  0.00     0.165 HD
ENDROOT
BRANCH   1  23
HETATM   23  O1  UNL     1      26.221   9.086  46.398  1.00  0.00    -0.356 OA
HETATM   24  C1  UNL     1      25.239  10.002  46.824  1.00  0.00     0.210 C 
ENDBRANCH   1  23
TORSDOF 1
ENDMDL
MODEL 7
REMARK VINA RESULT:      -6.9      3.585      7.402
REMARK  1 active torsions:
REMARK  status: ('A' for Active; 'I' for Inactive)
REMARK    1  A    between atoms: O1_2  and  C2_3 
ROOT
HETATM    1  C2  UNL     1      26.995   0.714  53.200  1.00  0.00     0.070 A 
HETATM    2  C3  UNL     1      26.630  -0.371  53.968  1.00  0.00     0.039 A 
HETATM    3  C4  UNL     1      25.294  -0.717  54.047  1.00  0.00     0.035 A 
HETATM    4  C5  UNL     1      24.388   0.050  53.345  1.00  0.00     0.066 A 
HETATM    5  C6  UNL     1      24.781   1.152  52.568  1.00  0.00     0.099 A 
HETATM    6  C7  UNL     1      26.113   1.499  52.488  1.00  0.00     0.075 A 
HETATM    7  O2  UNL     1      23.900   1.963  51.839  1.00  0.00    -0.332 OA
HETATM    8  C8  UNL     1      22.546   2.166  52.112  1.00  0.00     0.220 C 
HETATM    9  C9  UNL     1      21.937   3.326  51.401  1.00  0.00     0.123 C 
HETATM   10  N1  UNL     1      20.776   3.488  50.587  1.00  0.00    -0.288 NA
HETATM   11  C10 UNL     1      19.806   2.330  50.318  1.00  0.00     0.092 A 
HETATM   12  C11 UNL     1      18.742   2.184  51.348  1.00  0.00     0.048 C 
HETATM   13  C12 UNL     1      18.296   0.830  50.581  1.00  0.00     0.120 C 
HETATM   14 CL1  UNL     1      17.029   1.181  49.472  1.00  0.00    -0.122 Cl
HETATM   15  C13 UNL     1      19.682   0.938  50.091  1.00  0.00     0.082 A 
HETATM   16  C14 UNL     1      20.513   1.361  49.264  1.00  0.00     0.060 A 
HETATM   17  N2  UNL     1      20.474   0.351  51.368  1.00  0.00    -0.376 N 
HETATM   18  C15 UNL     1      21.742   0.897  52.088  1.00  0.00     0.056 C 
HETATM   19  C16 UNL     1      21.973  -0.230  52.713  1.00  0.00     0.116 C 
HETATM   20  N3  UNL     1      23.069  -0.506  53.569  1.00  0.00    -0.362 N 
HETATM   21  H12 UNL     1      20.206  -0.552  51.935  1.00  0.00     0.160 HD
HETATM   22  H14 UNL     1      22.858  -1.132  54.349  1.00  0.00     0.165 HD
ENDROOT
BRANCH   1  23
HETATM   23  O1  UNL     1      28.337   1.088  53.102  1.00  0.00    -0.356 OA
HETATM   24  C1  UNL     1      29.197   0.741  54.162  1.00  0.00     0.210 C 
ENDBRANCH   1  23
TORSDOF 1
ENDMDL
MODEL 8
REMARK VINA RESULT:      -6.8      4.429      6.880
REMARK  1 active torsions:
REMARK  status: ('A' for Active; 'I' for Inactive)
REMARK    1  A    between atoms: O1_2  and  C2_3 
ROOT
HETATM    1  C2  UNL     1      25.933   6.427  49.557  1.00  0.00     0.070 A 
HETATM    2  C3  UNL     1      25.409   7.330  50.457  1.00  0.00     0.039 A 
HETATM    3  C4  UNL     1      24.285   6.979  51.181  1.00  0.00     0.035 A 
HETATM    4  C5  UNL     1      23.742   5.730  50.962  1.00  0.00     0.066 A 
HETATM    5  C6  UNL     1      24.292   4.824  50.039  1.00  0.00     0.099 A 
HETATM    6  C7  UNL     1      25.413   5.172  49.317  1.00  0.00     0.075 A 
HETATM    7  O2  UNL     1      23.777   3.546  49.779  1.00  0.00    -0.332 OA
HETATM    8  C8  UNL     1      22.455   3.136  49.959  1.00  0.00     0.220 C 
HETATM    9  C9  UNL     1      22.109   1.849  49.289  1.00  0.00     0.123 C 
HETATM   10  N1  UNL     1      21.500   0.637  49.731  1.00  0.00    -0.288 NA
HETATM   11  C10 UNL     1      20.988   0.465  51.167  1.00  0.00     0.092 A 
HETATM   12  C11 UNL     1      19.590   0.933  51.369  1.00  0.00     0.048 C 
HETATM   13  C12 UNL     1      19.804   0.640  52.947  1.00  0.00     0.120 C 
HETATM   14 CL1  UNL     1      19.222  -0.932  53.330  1.00  0.00    -0.122 Cl
HETATM   15  C13 UNL     1      21.213   0.764  52.532  1.00  0.00     0.082 A 
HETATM   16  C14 UNL     1      22.268   0.260  52.101  1.00  0.00     0.060 A 
HETATM   17  N2  UNL     1      21.344   2.371  52.472  1.00  0.00    -0.376 N 
HETATM   18  C15 UNL     1      21.980   3.276  51.377  1.00  0.00     0.056 C 
HETATM   19  C16 UNL     1      22.042   4.322  52.161  1.00  0.00     0.116 C 
HETATM   20  N3  UNL     1      22.592   5.587  51.832  1.00  0.00    -0.362 N 
HETATM   21  H12 UNL     1      20.973   3.078  53.229  1.00  0.00     0.160 HD
HETATM   22  H14 UNL     1      22.122   6.386  52.261  1.00  0.00     0.165 HD
ENDROOT
BRANCH   1  23
HETATM   23  O1  UNL     1      27.068   6.753  48.811  1.00  0.00    -0.356 OA
HETATM   24  C1  UNL     1      27.459   8.106  48.766  1.00  0.00     0.210 C 
ENDBRANCH   1  23
TORSDOF 1
ENDMDL
MODEL 9
REMARK VINA RESULT:      -6.7      4.434      5.689
REMARK  1 active torsions:
REMARK  status: ('A' for Active; 'I' for Inactive)
REMARK    1  A    between atoms: O1_2  and  C2_3 
ROOT
HETATM    1  C2  UNL     1      24.117   7.080  47.718  1.00  0.00     0.070 A 
HETATM    2  C3  UNL     1      22.944   6.507  47.274  1.00  0.00     0.039 A 
HETATM    3  C4  UNL     1      22.597   5.250  47.732  1.00  0.00     0.035 A 
HETATM    4  C5  UNL     1      23.452   4.629  48.619  1.00  0.00     0.066 A 
HETATM    5  C6  UNL     1      24.642   5.231  49.060  1.00  0.00     0.099 A 
HETATM    6  C7  UNL     1      24.990   6.485  48.604  1.00  0.00     0.075 A 
HETATM    7  O2  UNL     1      25.544   4.642  49.958  1.00  0.00    -0.332 OA
HETATM    8  C8  UNL     1      25.717   3.274  50.177  1.00  0.00     0.220 C 
HETATM    9  C9  UNL     1      26.962   2.918  50.916  1.00  0.00     0.123 C 
HETATM   10  N1  UNL     1      27.231   2.127  52.073  1.00  0.00    -0.288 NA
HETATM   11  C10 UNL     1      26.122   1.370  52.815  1.00  0.00     0.092 A 
HETATM   12  C11 UNL     1      25.851   0.012  52.272  1.00  0.00     0.048 C 
HETATM   13  C12 UNL     1      24.608  -0.067  53.306  1.00  0.00     0.120 C 
HETATM   14 CL1  UNL     1      25.104  -0.857  54.751  1.00  0.00    -0.122 Cl
HETATM   15  C13 UNL     1      24.771   1.397  53.238  1.00  0.00     0.082 A 
HETATM   16  C14 UNL     1      25.291   2.453  53.646  1.00  0.00     0.060 A 
HETATM   17  N2  UNL     1      24.022   1.694  51.841  1.00  0.00    -0.376 N 
HETATM   18  C15 UNL     1      24.465   2.588  50.646  1.00  0.00     0.056 C 
HETATM   19  C16 UNL     1      23.267   2.624  50.121  1.00  0.00     0.116 C 
HETATM   20  N3  UNL     1      22.879   3.344  48.962  1.00  0.00    -0.362 N 
HETATM   21  H12 UNL     1      23.055   1.276  51.524  1.00  0.00     0.160 HD
HETATM   22  H14 UNL     1      22.160   2.891  48.396  1.00  0.00     0.165 HD
ENDROOT
BRANCH   1  23
HETATM   23  O1  UNL     1      24.493   8.349  47.273  1.00  0.00    -0.356 OA
HETATM   24  C1  UNL     1      24.796   9.324  48.244  1.00  0.00     0.210 C 
ENDBRANCH   1  23
TORSDOF 1
ENDMDL
