MODEL 1
REMARK VINA RESULT:      -8.5      0.000      0.000
REMARK  3 active torsions:
REMARK  status: ('A' for Active; 'I' for Inactive)
REMARK    1  A    between atoms: O1_2  and  C2_3 
REMARK    2  A    between atoms: C3_4  and  C4_5 
REMARK    3  A    between atoms: C13_15  and  O3_16 
ROOT
HETATM    1  C4  UNL     1      25.561   2.941  50.457  1.00  0.00     0.007 C 
HETATM    2  C5  UNL     1      24.483   2.946  51.277  1.00  0.00    -0.055 C 
HETATM    3  C6  UNL     1      23.289   2.693  52.031  1.00  0.00     0.119 C 
HETATM    4  C7  UNL     1      22.560   1.617  52.065  1.00  0.00     0.116 C 
HETATM    5  O2  UNL     1      22.074   0.137  51.751  1.00  0.00    -0.351 OA
HETATM    6  C8  UNL     1      22.680  -0.452  53.036  1.00  0.00     0.085 A 
HETATM    7  C9  UNL     1      24.085  -0.114  53.069  1.00  0.00     0.065 A 
HETATM    8  C10 UNL     1      25.338   0.312  52.872  1.00  0.00     0.017 A 
HETATM    9  C11 UNL     1      24.911  -0.345  53.881  1.00  0.00     0.009 A 
HETATM   10  C12 UNL     1      24.172  -1.010  54.745  1.00  0.00     0.024 A 
HETATM   11  C13 UNL     1      22.812  -1.117  54.279  1.00  0.00     0.095 A 
HETATM   12  C15 UNL     1      26.029   0.503  54.543  1.00  0.00     0.092 C 
HETATM   13  C16 UNL     1      27.273  -0.168  54.427  1.00  0.00     0.006 C 
HETATM   14  C17 UNL     1      28.538   0.015  54.099  1.00  0.00     0.115 C 
HETATM   15  N1  UNL     1      29.070   1.281  53.675  1.00  0.00    -0.254 NA
HETATM   16  C18 UNL     1      28.348   2.349  53.481  1.00  0.00     0.234 C 
HETATM   17  N2  UNL     1      27.008   2.492  53.632  1.00  0.00    -0.228 NA
HETATM   18  C19 UNL     1      25.951   1.922  54.013  1.00  0.00     0.110 C 
HETATM   19  N3  UNL     1      25.005   3.006  53.712  1.00  0.00    -0.374 N 
HETATM   20  C20 UNL     1      24.966   3.792  52.421  1.00  0.00     0.155 C 
HETATM   21  H19 UNL     1      24.424   3.036  54.607  1.00  0.00     0.161 HD
ENDROOT
BRANCH   1  22
HETATM   22  C3  UNL     1      26.681   3.441  49.915  1.00  0.00     0.024 C 
HETATM   23  C2  UNL     1      26.386   4.447  49.105  1.00  0.00     0.134 C 
BRANCH  23  24
HETATM   24  O1  UNL     1      24.991   4.667  49.090  1.00  0.00    -0.368 OA
HETATM   25  C1  UNL     1      24.454   5.927  48.660  1.00  0.00     0.208 C 
ENDBRANCH  23  24
ENDBRANCH   1  22
BRANCH  11  26
HETATM   26  O3  UNL     1      21.448  -1.339  54.005  1.00  0.00    -0.354 OA
HETATM   27  C14 UNL     1      20.464  -0.407  54.442  1.00  0.00     0.210 C 
ENDBRANCH  11  26
TORSDOF 3
ENDMDL
MODEL 2
REMARK VINA RESULT:      -8.5      2.784      6.945
REMARK  3 active torsions:
REMARK  status: ('A' for Active; 'I' for Inactive)
REMARK    1  A    between atoms: O1_2  and  C2_3 
REMARK    2  A    between atoms: C3_4  and  C4_5 
REMARK    3  A    between atoms: C13_15  and  O3_16 
ROOT
HETATM    1  C4  UNL     1      23.279   1.007  51.791  1.00  0.00     0.007 C 
HETATM    2  C5  UNL     1      24.406   1.705  52.069  1.00  0.00    -0.055 C 
HETATM    3  C6  UNL     1      25.675   2.374  52.096  1.00  0.00     0.119 C 
HETATM    4  C7  UNL     1      26.529   2.537  51.129  1.00  0.00     0.116 C 
HETATM    5  O2  UNL     1      27.167   2.457  49.676  1.00  0.00    -0.351 OA
HETATM    6  C8  UNL     1      26.735   3.882  49.289  1.00  0.00     0.085 A 
HETATM    7  C9  UNL     1      25.305   3.986  49.478  1.00  0.00     0.065 A 
HETATM    8  C10 UNL     1      23.998   3.836  49.723  1.00  0.00     0.017 A 
HETATM    9  C11 UNL     1      24.576   4.903  49.324  1.00  0.00     0.009 A 
HETATM   10  C12 UNL     1      25.452   5.800  48.922  1.00  0.00     0.024 A 
HETATM   11  C13 UNL     1      26.776   5.233  48.869  1.00  0.00     0.095 A 
HETATM   12  C15 UNL     1      23.415   5.501  50.163  1.00  0.00     0.092 C 
HETATM   13  C16 UNL     1      22.257   5.631  49.355  1.00  0.00     0.006 C 
HETATM   14  C17 UNL     1      20.958   5.399  49.336  1.00  0.00     0.115 C 
HETATM   15  N1  UNL     1      20.246   4.800  50.433  1.00  0.00    -0.254 NA
HETATM   16  C18 UNL     1      20.816   4.343  51.511  1.00  0.00     0.234 C 
HETATM   17  N2  UNL     1      22.137   4.335  51.821  1.00  0.00    -0.228 NA
HETATM   18  C19 UNL     1      23.281   4.711  51.451  1.00  0.00     0.110 C 
HETATM   19  N3  UNL     1      24.063   4.125  52.548  1.00  0.00    -0.374 N 
HETATM   20  C20 UNL     1      23.910   2.713  53.067  1.00  0.00     0.155 C 
HETATM   21  H19 UNL     1      24.701   4.938  52.814  1.00  0.00     0.161 HD
ENDROOT
BRANCH   1  22
HETATM   22  C3  UNL     1      22.069   0.492  52.055  1.00  0.00     0.024 C 
HETATM   23  C2  UNL     1      21.290   0.587  50.989  1.00  0.00     0.134 C 
BRANCH  23  24
HETATM   24  O1  UNL     1      21.995   1.188  49.922  1.00  0.00    -0.368 OA
HETATM   25  C1  UNL     1      21.389   1.320  48.627  1.00  0.00     0.208 C 
ENDBRANCH  23  24
ENDBRANCH   1  22
BRANCH  11  26
HETATM   26  O3  UNL     1      28.133   4.875  48.743  1.00  0.00    -0.354 OA
HETATM   27  C14 UNL     1      29.063   5.772  48.145  1.00  0.00     0.210 C 
ENDBRANCH  11  26
TORSDOF 3
ENDMDL
MODEL 3
REMARK VINA RESULT:      -8.4      2.981      4.958
REMARK  3 active torsions:
REMARK  status: ('A' for Active; 'I' for Inactive)
REMARK    1  A    between atoms: O1_2  and  C2_3 
REMARK    2  A    between atoms: C3_4  and  C4_5 
REMARK    3  A    between atoms: C13_15  and  O3_16 
ROOT
HETATM    1  C4  UNL     1      23.861   5.293  50.909  1.00  0.00     0.007 C 
HETATM    2  C5  UNL     1      24.616   4.323  50.339  1.00  0.00    -0.055 C 
HETATM    3  C6  UNL     1      25.558   3.301  49.984  1.00  0.00     0.119 C 
HETATM    4  C7  UNL     1      26.472   2.745  50.723  1.00  0.00     0.116 C 
HETATM    5  O2  UNL     1      27.359   2.418  52.000  1.00  0.00    -0.351 OA
HETATM    6  C8  UNL     1      26.554   1.160  52.373  1.00  0.00     0.085 A 
HETATM    7  C9  UNL     1      25.164   1.537  52.499  1.00  0.00     0.065 A 
HETATM    8  C10 UNL     1      23.962   2.122  52.562  1.00  0.00     0.017 A 
HETATM    9  C11 UNL     1      24.212   0.883  52.746  1.00  0.00     0.009 A 
HETATM   10  C12 UNL     1      24.795  -0.290  52.880  1.00  0.00     0.024 A 
HETATM   11  C13 UNL     1      26.217  -0.180  52.677  1.00  0.00     0.095 A 
HETATM   12  C15 UNL     1      22.782   0.802  52.146  1.00  0.00     0.092 C 
HETATM   13  C16 UNL     1      21.821   0.930  53.180  1.00  0.00     0.006 C 
HETATM   14  C17 UNL     1      20.703   1.552  53.503  1.00  0.00     0.115 C 
HETATM   15  N1  UNL     1      20.042   2.490  52.637  1.00  0.00    -0.254 NA
HETATM   16  C18 UNL     1      20.520   2.892  51.493  1.00  0.00     0.234 C 
HETATM   17  N2  UNL     1      21.684   2.529  50.900  1.00  0.00    -0.228 NA
HETATM   18  C19 UNL     1      22.683   1.765  50.979  1.00  0.00     0.110 C 
HETATM   19  N3  UNL     1      23.397   2.224  49.780  1.00  0.00    -0.374 N 
HETATM   20  C20 UNL     1      23.633   3.670  49.408  1.00  0.00     0.155 C 
HETATM   21  H19 UNL     1      23.664   1.297  49.322  1.00  0.00     0.161 HD
ENDROOT
BRANCH   1  22
HETATM   22  C3  UNL     1      22.867   6.192  50.957  1.00  0.00     0.024 C 
HETATM   23  C2  UNL     1      23.351   7.415  50.799  1.00  0.00     0.134 C 
BRANCH  23  24
HETATM   24  O1  UNL     1      24.752   7.365  50.622  1.00  0.00    -0.368 OA
HETATM   25  C1  UNL     1      25.446   8.446  49.980  1.00  0.00     0.208 C 
ENDBRANCH  23  24
ENDBRANCH   1  22
BRANCH  11  26
HETATM   26  O3  UNL     1      27.614  -0.286  52.523  1.00  0.00    -0.354 OA
HETATM   27  C14 UNL     1      28.443  -0.572  53.644  1.00  0.00     0.210 C 
ENDBRANCH  11  26
TORSDOF 3
ENDMDL
MODEL 4
REMARK VINA RESULT:      -8.2      2.498      6.126
REMARK  3 active torsions:
REMARK  status: ('A' for Active; 'I' for Inactive)
REMARK    1  A    between atoms: O1_2  and  C2_3 
REMARK    2  A    between atoms: C3_4  and  C4_5 
REMARK    3  A    between atoms: C13_15  and  O3_16 
ROOT
HETATM    1  C4  UNL     1      26.575  -0.276  52.159  1.00  0.00     0.007 C 
HETATM    2  C5  UNL     1      26.739   1.067  52.217  1.00  0.00    -0.055 C 
HETATM    3  C6  UNL     1      26.890   2.476  51.993  1.00  0.00     0.119 C 
HETATM    4  C7  UNL     1      26.793   3.138  50.878  1.00  0.00     0.116 C 
HETATM    5  O2  UNL     1      26.562   3.426  49.332  1.00  0.00    -0.351 OA
HETATM    6  C8  UNL     1      25.109   3.892  49.523  1.00  0.00     0.085 A 
HETATM    7  C9  UNL     1      24.386   2.844  50.209  1.00  0.00     0.065 A 
HETATM    8  C10 UNL     1      23.940   1.748  50.833  1.00  0.00     0.017 A 
HETATM    9  C11 UNL     1      23.263   2.798  50.571  1.00  0.00     0.009 A 
HETATM   10  C12 UNL     1      22.862   3.983  50.157  1.00  0.00     0.024 A 
HETATM   11  C13 UNL     1      23.937   4.686  49.504  1.00  0.00     0.095 A 
HETATM   12  C15 UNL     1      22.579   2.335  51.885  1.00  0.00     0.092 C 
HETATM   13  C16 UNL     1      21.553   1.402  51.589  1.00  0.00     0.006 C 
HETATM   14  C17 UNL     1      21.062   0.232  51.950  1.00  0.00     0.115 C 
HETATM   15  N1  UNL     1      21.613  -0.563  53.014  1.00  0.00    -0.254 NA
HETATM   16  C18 UNL     1      22.701  -0.260  53.664  1.00  0.00     0.234 C 
HETATM   17  N2  UNL     1      23.507   0.817  53.490  1.00  0.00    -0.228 NA
HETATM   18  C19 UNL     1      23.647   1.906  52.871  1.00  0.00     0.110 C 
HETATM   19  N3  UNL     1      24.948   2.302  53.430  1.00  0.00    -0.374 N 
HETATM   20  C20 UNL     1      26.151   1.395  53.560  1.00  0.00     0.155 C 
HETATM   21  H19 UNL     1      24.772   3.326  53.676  1.00  0.00     0.161 HD
ENDROOT
BRANCH   1  22
HETATM   22  C3  UNL     1      26.460  -1.512  52.667  1.00  0.00     0.024 C 
HETATM   23  C2  UNL     1      27.640  -1.945  53.083  1.00  0.00     0.134 C 
BRANCH  23  24
HETATM   24  O1  UNL     1      28.626  -0.957  52.864  1.00  0.00    -0.368 OA
HETATM   25  C1  UNL     1      29.792  -0.890  53.700  1.00  0.00     0.208 C 
ENDBRANCH  23  24
ENDBRANCH   1  22
BRANCH  11  26
HETATM   26  O3  UNL     1      24.841   5.531  48.830  1.00  0.00    -0.354 OA
HETATM   27  C14 UNL     1      25.437   6.634  49.504  1.00  0.00     0.210 C 
ENDBRANCH  11  26
TORSDOF 3
ENDMDL
MODEL 5
REMARK VINA RESULT:      -8.1      2.387      3.713
REMARK  3 active torsions:
REMARK  status: ('A' for Active; 'I' for Inactive)
REMARK    1  A    between atoms: O1_2  and  C2_3 
REMARK    2  A    between atoms: C3_4  and  C4_5 
REMARK    3  A    between atoms: C13_15  and  O3_16 
ROOT
HETATM    1  C4  UNL     1      21.066   4.275  49.834  1.00  0.00     0.007 C 
HETATM    2  C5  UNL     1      20.973   3.845  51.116  1.00  0.00    -0.055 C 
HETATM    3  C6  UNL     1      20.865   3.130  52.355  1.00  0.00     0.119 C 
HETATM    4  C7  UNL     1      20.872   1.845  52.556  1.00  0.00     0.116 C 
HETATM    5  O2  UNL     1      20.946   0.289  52.242  1.00  0.00    -0.351 OA
HETATM    6  C8  UNL     1      22.433   0.172  52.622  1.00  0.00     0.085 A 
HETATM    7  C9  UNL     1      23.176   1.133  51.838  1.00  0.00     0.065 A 
HETATM    8  C10 UNL     1      23.634   2.078  51.010  1.00  0.00     0.017 A 
HETATM    9  C11 UNL     1      24.328   1.392  51.833  1.00  0.00     0.009 A 
HETATM   10  C12 UNL     1      24.736   0.537  52.748  1.00  0.00     0.024 A 
HETATM   11  C13 UNL     1      23.631  -0.238  53.253  1.00  0.00     0.095 A 
HETATM   12  C15 UNL     1      25.128   2.722  51.823  1.00  0.00     0.092 C 
HETATM   13  C16 UNL     1      26.070   2.706  50.763  1.00  0.00     0.006 C 
HETATM   14  C17 UNL     1      26.542   3.433  49.768  1.00  0.00     0.115 C 
HETATM   15  N1  UNL     1      26.072   4.757  49.463  1.00  0.00    -0.254 NA
HETATM   16  C18 UNL     1      25.077   5.337  50.071  1.00  0.00     0.234 C 
HETATM   17  N2  UNL     1      24.309   4.846  51.075  1.00  0.00    -0.228 NA
HETATM   18  C19 UNL     1      24.153   3.882  51.873  1.00  0.00     0.110 C 
HETATM   19  N3  UNL     1      22.942   4.362  52.552  1.00  0.00    -0.374 N 
HETATM   20  C20 UNL     1      21.718   4.918  51.859  1.00  0.00     0.155 C 
HETATM   21  H19 UNL     1      23.191   4.196  53.576  1.00  0.00     0.161 HD
ENDROOT
BRANCH   1  22
HETATM   22  C3  UNL     1      21.177   5.192  48.862  1.00  0.00     0.024 C 
HETATM   23  C2  UNL     1      22.005   4.763  47.922  1.00  0.00     0.134 C 
BRANCH  23  24
HETATM   24  O1  UNL     1      22.488   3.477  48.249  1.00  0.00    -0.368 OA
HETATM   25  C1  UNL     1      22.472   2.421  47.275  1.00  0.00     0.208 C 
ENDBRANCH  23  24
ENDBRANCH   1  22
BRANCH  11  26
HETATM   26  O3  UNL     1      22.701  -1.099  53.869  1.00  0.00    -0.354 OA
HETATM   27  C14 UNL     1      22.727  -1.300  55.277  1.00  0.00     0.210 C 
ENDBRANCH  11  26
TORSDOF 3
ENDMDL
MODEL 6
REMARK VINA RESULT:      -7.8      2.453      5.470
REMARK  3 active torsions:
REMARK  status: ('A' for Active; 'I' for Inactive)
REMARK    1  A    between atoms: O1_2  and  C2_3 
REMARK    2  A    between atoms: C3_4  and  C4_5 
REMARK    3  A    between atoms: C13_15  and  O3_16 
ROOT
HETATM    1  C4  UNL     1      21.834   0.603  51.086  1.00  0.00     0.007 C 
HETATM    2  C5  UNL     1      22.452   0.576  52.291  1.00  0.00    -0.055 C 
HETATM    3  C6  UNL     1      23.283   0.360  53.441  1.00  0.00     0.119 C 
HETATM    4  C7  UNL     1      24.374  -0.341  53.537  1.00  0.00     0.116 C 
HETATM    5  O2  UNL     1      25.591  -1.268  53.106  1.00  0.00    -0.351 OA
HETATM    6  C8  UNL     1      26.575  -0.094  52.958  1.00  0.00     0.085 A 
HETATM    7  C9  UNL     1      25.999   0.864  52.041  1.00  0.00     0.065 A 
HETATM    8  C10 UNL     1      25.273   1.582  51.177  1.00  0.00     0.017 A 
HETATM    9  C11 UNL     1      26.405   1.909  51.670  1.00  0.00     0.009 A 
HETATM   10  C12 UNL     1      27.543   1.938  52.333  1.00  0.00     0.024 A 
HETATM   11  C13 UNL     1      27.705   0.743  53.122  1.00  0.00     0.095 A 
HETATM   12  C15 UNL     1      25.756   3.307  51.487  1.00  0.00     0.092 C 
HETATM   13  C16 UNL     1      26.006   3.784  50.175  1.00  0.00     0.006 C 
HETATM   14  C17 UNL     1      25.422   4.345  49.134  1.00  0.00     0.115 C 
HETATM   15  N1  UNL     1      24.026   4.685  49.098  1.00  0.00    -0.254 NA
HETATM   16  C18 UNL     1      23.178   4.394  50.044  1.00  0.00     0.234 C 
HETATM   17  N2  UNL     1      23.417   3.743  51.209  1.00  0.00    -0.228 NA
HETATM   18  C19 UNL     1      24.311   3.242  51.942  1.00  0.00     0.110 C 
HETATM   19  N3  UNL     1      23.447   2.740  53.019  1.00  0.00    -0.374 N 
HETATM   20  C20 UNL     1      22.171   1.956  52.817  1.00  0.00     0.155 C 
HETATM   21  H19 UNL     1      23.972   3.074  53.887  1.00  0.00     0.161 HD
ENDROOT
BRANCH   1  22
HETATM   22  C3  UNL     1      20.908   1.001  50.201  1.00  0.00     0.024 C 
HETATM   23  C2  UNL     1      19.705   0.612  50.594  1.00  0.00     0.134 C 
BRANCH  23  24
HETATM   24  O1  UNL     1      19.794  -0.083  51.821  1.00  0.00    -0.368 OA
HETATM   25  C1  UNL     1      18.607  -0.518  52.502  1.00  0.00     0.208 C 
ENDBRANCH  23  24
ENDBRANCH   1  22
BRANCH  11  26
HETATM   26  O3  UNL     1      28.057  -0.341  53.950  1.00  0.00    -0.354 OA
HETATM   27  C14 UNL     1      29.337  -0.953  53.833  1.00  0.00     0.210 C 
ENDBRANCH  11  26
TORSDOF 3
ENDMDL
MODEL 7
REMARK VINA RESULT:      -7.8      3.226      6.388
REMARK  3 active torsions:
REMARK  status: ('A' for Active; 'I' for Inactive)
REMARK    1  A    between atoms: O1_2  and  C2_3 
REMARK    2  A    between atoms: C3_4  and  C4_5 
REMARK    3  A    between atoms: C13_15  and  O3_16 
ROOT
HETATM    1  C4  UNL     1      19.341   0.476  51.172  1.00  0.00     0.007 C 
HETATM    2  C5  UNL     1      19.958   0.785  52.338  1.00  0.00    -0.055 C 
HETATM    3  C6  UNL     1      20.783   0.894  53.506  1.00  0.00     0.119 C 
HETATM    4  C7  UNL     1      21.860   0.229  53.806  1.00  0.00     0.116 C 
HETATM    5  O2  UNL     1      23.058  -0.805  53.668  1.00  0.00    -0.351 OA
HETATM    6  C8  UNL     1      24.066   0.257  53.195  1.00  0.00     0.085 A 
HETATM    7  C9  UNL     1      23.510   0.922  52.038  1.00  0.00     0.065 A 
HETATM    8  C10 UNL     1      22.799   1.374  50.999  1.00  0.00     0.017 A 
HETATM    9  C11 UNL     1      23.937   1.808  51.384  1.00  0.00     0.009 A 
HETATM   10  C12 UNL     1      25.074   2.005  52.018  1.00  0.00     0.024 A 
HETATM   11  C13 UNL     1      25.212   1.084  53.118  1.00  0.00     0.095 A 
HETATM   12  C15 UNL     1      23.316   3.106  50.803  1.00  0.00     0.092 C 
HETATM   13  C16 UNL     1      23.576   3.181  49.411  1.00  0.00     0.006 C 
HETATM   14  C17 UNL     1      23.004   3.429  48.248  1.00  0.00     0.115 C 
HETATM   15  N1  UNL     1      21.615   3.771  48.107  1.00  0.00    -0.254 NA
HETATM   16  C18 UNL     1      20.761   3.780  49.092  1.00  0.00     0.234 C 
HETATM   17  N2  UNL     1      20.986   3.488  50.397  1.00  0.00    -0.228 NA
HETATM   18  C19 UNL     1      21.870   3.202  51.248  1.00  0.00     0.110 C 
HETATM   19  N3  UNL     1      20.995   3.048  52.419  1.00  0.00    -0.374 N 
HETATM   20  C20 UNL     1      19.704   2.263  52.442  1.00  0.00     0.155 C 
HETATM   21  H19 UNL     1      21.526   3.608  53.157  1.00  0.00     0.161 HD
ENDROOT
BRANCH   1  22
HETATM   22  C3  UNL     1      18.423   0.620  50.204  1.00  0.00     0.024 C 
HETATM   23  C2  UNL     1      17.350  -0.104  50.482  1.00  0.00     0.134 C 
BRANCH  23  24
HETATM   24  O1  UNL     1      17.522  -0.778  51.711  1.00  0.00    -0.368 OA
HETATM   25  C1  UNL     1      16.407  -0.985  52.593  1.00  0.00     0.208 C 
ENDBRANCH  23  24
ENDBRANCH   1  22
BRANCH  11  26
HETATM   26  O3  UNL     1      25.542   0.278  54.225  1.00  0.00    -0.354 OA
HETATM   27  C14 UNL     1      26.867   0.275  54.747  1.00  0.00     0.210 C 
ENDBRANCH  11  26
TORSDOF 3
ENDMDL
MODEL 8
REMARK VINA RESULT:      -7.6      3.130      5.404
REMARK  3 active torsions:
REMARK  status: ('A' for Active; 'I' for Inactive)
REMARK    1  A    between atoms: O1_2  and  C2_3 
REMARK    2  A    between atoms: C3_4  and  C4_5 
REMARK    3  A    between atoms: C13_15  and  O3_16 
ROOT
HETATM    1  C4  UNL     1      21.953   4.489  50.920  1.00  0.00     0.007 C 
HETATM    2  C5  UNL     1      23.000   3.672  50.656  1.00  0.00    -0.055 C 
HETATM    3  C6  UNL     1      24.164   2.832  50.656  1.00  0.00     0.119 C 
HETATM    4  C7  UNL     1      24.879   2.433  51.666  1.00  0.00     0.116 C 
HETATM    5  O2  UNL     1      25.360   2.248  53.169  1.00  0.00    -0.351 OA
HETATM    6  C8  UNL     1      24.702   0.866  53.325  1.00  0.00     0.085 A 
HETATM    7  C9  UNL     1      23.300   0.995  52.995  1.00  0.00     0.065 A 
HETATM    8  C10 UNL     1      22.060   1.363  52.655  1.00  0.00     0.017 A 
HETATM    9  C11 UNL     1      22.443   0.184  52.960  1.00  0.00     0.009 A 
HETATM   10  C12 UNL     1      23.143  -0.873  53.319  1.00  0.00     0.024 A 
HETATM   11  C13 UNL     1      24.517  -0.516  53.565  1.00  0.00     0.095 A 
HETATM   12  C15 UNL     1      21.310  -0.135  51.948  1.00  0.00     0.092 C 
HETATM   13  C16 UNL     1      20.065  -0.189  52.624  1.00  0.00     0.006 C 
HETATM   14  C17 UNL     1      18.814   0.227  52.555  1.00  0.00     0.115 C 
HETATM   15  N1  UNL     1      18.312   1.048  51.487  1.00  0.00    -0.254 NA
HETATM   16  C18 UNL     1      19.051   1.540  50.534  1.00  0.00     0.234 C 
HETATM   17  N2  UNL     1      20.386   1.391  50.349  1.00  0.00    -0.228 NA
HETATM   18  C19 UNL     1      21.423   0.810  50.769  1.00  0.00     0.110 C 
HETATM   19  N3  UNL     1      22.390   1.401  49.833  1.00  0.00    -0.374 N 
HETATM   20  C20 UNL     1      22.485   2.871  49.493  1.00  0.00     0.155 C 
HETATM   21  H19 UNL     1      22.939   0.540  49.522  1.00  0.00     0.161 HD
ENDROOT
BRANCH   1  22
HETATM   22  C3  UNL     1      20.859   5.203  50.617  1.00  0.00     0.024 C 
HETATM   23  C2  UNL     1      21.191   6.457  50.349  1.00  0.00     0.134 C 
BRANCH  23  24
HETATM   24  O1  UNL     1      22.590   6.623  50.460  1.00  0.00    -0.368 OA
HETATM   25  C1  UNL     1      23.169   7.937  50.494  1.00  0.00     0.208 C 
ENDBRANCH  23  24
ENDBRANCH   1  22
BRANCH  11  26
HETATM   26  O3  UNL     1      25.888  -0.378  53.860  1.00  0.00    -0.354 OA
HETATM   27  C14 UNL     1      26.871  -0.939  52.997  1.00  0.00     0.210 C 
ENDBRANCH  11  26
TORSDOF 3
ENDMDL
MODEL 9
REMARK VINA RESULT:      -7.5      3.141      5.717
REMARK  3 active torsions:
REMARK  status: ('A' for Active; 'I' for Inactive)
REMARK    1  A    between atoms: O1_2  and  C2_3 
REMARK    2  A    between atoms: C3_4  and  C4_5 
REMARK    3  A    between atoms: C13_15  and  O3_16 
ROOT
HETATM    1  C4  UNL     1      24.873   0.370  52.189  1.00  0.00     0.007 C 
HETATM    2  C5  UNL     1      24.311   1.512  51.725  1.00  0.00    -0.055 C 
HETATM    3  C6  UNL     1      23.669   2.567  50.995  1.00  0.00     0.119 C 
HETATM    4  C7  UNL     1      23.104   2.521  49.825  1.00  0.00     0.116 C 
HETATM    5  O2  UNL     1      22.573   1.926  48.450  1.00  0.00    -0.351 OA
HETATM    6  C8  UNL     1      21.127   1.768  48.952  1.00  0.00     0.085 A 
HETATM    7  C9  UNL     1      21.153   0.969  50.156  1.00  0.00     0.065 A 
HETATM    8  C10 UNL     1      21.431   0.219  51.229  1.00  0.00     0.017 A 
HETATM    9  C11 UNL     1      20.276   0.630  50.871  1.00  0.00     0.009 A 
HETATM   10  C12 UNL     1      19.265   1.191  50.239  1.00  0.00     0.024 A 
HETATM   11  C13 UNL     1      19.721   1.884  49.061  1.00  0.00     0.095 A 
HETATM   12  C15 UNL     1      20.103   0.596  52.413  1.00  0.00     0.092 C 
HETATM   13  C16 UNL     1      19.695  -0.700  52.821  1.00  0.00     0.006 C 
HETATM   14  C17 UNL     1      19.941  -1.648  53.705  1.00  0.00     0.115 C 
HETATM   15  N1  UNL     1      20.953  -1.538  54.721  1.00  0.00    -0.254 NA
HETATM   16  C18 UNL     1      21.787  -0.542  54.818  1.00  0.00     0.234 C 
HETATM   17  N2  UNL     1      21.877   0.554  54.023  1.00  0.00    -0.228 NA
HETATM   18  C19 UNL     1      21.347   1.171  53.061  1.00  0.00     0.110 C 
HETATM   19  N3  UNL     1      22.300   2.286  52.974  1.00  0.00    -0.374 N 
HETATM   20  C20 UNL     1      23.806   2.147  52.989  1.00  0.00     0.155 C 
HETATM   21  H19 UNL     1      21.643   3.124  52.898  1.00  0.00     0.161 HD
ENDROOT
BRANCH   1  22
HETATM   22  C3  UNL     1      25.489  -0.403  53.096  1.00  0.00     0.024 C 
HETATM   23  C2  UNL     1      26.762  -0.054  53.204  1.00  0.00     0.134 C 
BRANCH  23  24
HETATM   24  O1  UNL     1      27.046   1.025  52.336  1.00  0.00    -0.368 OA
HETATM   25  C1  UNL     1      27.861   2.122  52.777  1.00  0.00     0.208 C 
ENDBRANCH  23  24
ENDBRANCH   1  22
BRANCH  11  26
HETATM   26  O3  UNL     1      19.955   2.607  47.874  1.00  0.00    -0.354 OA
HETATM   27  C14 UNL     1      18.874   3.213  47.173  1.00  0.00     0.210 C 
ENDBRANCH  11  26
TORSDOF 3
ENDMDL
