MODEL 1
REMARK VINA RESULT:      -7.2      0.000      0.000
REMARK  6 active torsions:
REMARK  status: ('A' for Active; 'I' for Inactive)
REMARK    1  A    between atoms: C2_2  and  O1_3 
REMARK    2  A    between atoms: O1_3  and  C3_4 
REMARK    3  A    between atoms: C8_9  and  N1_10 
REMARK       I    between atoms: N1_10  and  C9_11 
REMARK    4  A    between atoms: C9_11  and  C10_13 
REMARK    5  A    between atoms: C11_14  and  C12_15 
REMARK    6  A    between atoms: C12_15  and  N2_16 
ROOT
HETATM    1  C3  UNL     1      25.585  -0.616  54.164  1.00  0.00     0.094 A 
HETATM    2  C4  UNL     1      24.782  -1.186  55.176  1.00  0.00     0.070 A 
HETATM    3  C5  UNL     1      23.376  -1.258  55.261  1.00  0.00     0.058 A 
HETATM    4  C6  UNL     1      23.078  -0.629  54.108  1.00  0.00    -0.021 A 
HETATM    5  C7  UNL     1      23.526   0.030  52.922  1.00  0.00     0.064 A 
HETATM    6  C8  UNL     1      24.951  -0.019  53.057  1.00  0.00     0.061 A 
HETATM    7  C15 UNL     1      22.051  -0.209  53.311  1.00  0.00     0.038 A 
HETATM    8  C16 UNL     1      21.273  -0.854  54.462  1.00  0.00     0.166 A 
HETATM    9  N3  UNL     1      22.150  -1.381  55.448  1.00  0.00    -0.288 NA
ENDROOT
BRANCH   6  10
HETATM   10  N1  UNL     1      25.682   0.562  52.024  1.00  0.00    -0.324 N 
HETATM   11  C9  UNL     1      25.909   1.968  52.046  1.00  0.00     0.245 C 
HETATM   12  O2  UNL     1      25.417   2.603  53.026  1.00  0.00    -0.268 OA
HETATM   13  H7  UNL     1      26.088   0.019  51.211  1.00  0.00     0.169 HD
BRANCH  11  14
HETATM   14  C10 UNL     1      26.664   2.677  51.012  1.00  0.00     0.072 C 
HETATM   15  C11 UNL     1      26.184   3.584  50.158  1.00  0.00     0.008 C 
BRANCH  15  16
HETATM   16  C12 UNL     1      27.017   4.254  49.142  1.00  0.00     0.299 C 
BRANCH  16  17
HETATM   17  N2  UNL     1      26.371   5.491  48.716  1.00  0.00     0.083 N 
HETATM   18  C13 UNL     1      25.592   5.974  49.866  1.00  0.00     0.309 C 
HETATM   19  C14 UNL     1      27.425   6.477  48.460  1.00  0.00     0.309 C 
ENDBRANCH  16  17
ENDBRANCH  15  16
ENDBRANCH  11  14
ENDBRANCH   6  10
BRANCH   1  20
HETATM   20  O1  UNL     1      26.935  -0.668  54.301  1.00  0.00    -0.349 OA
BRANCH  20  21
HETATM   21  C2  UNL     1      27.747   0.292  54.909  1.00  0.00     0.171 C 
HETATM   22  C1  UNL     1      28.836   0.851  54.059  1.00  0.00     0.034 C 
ENDBRANCH  20  21
ENDBRANCH   1  20
TORSDOF 6
ENDMDL
MODEL 2
REMARK VINA RESULT:      -6.6      2.425      4.356
REMARK  6 active torsions:
REMARK  status: ('A' for Active; 'I' for Inactive)
REMARK    1  A    between atoms: C2_2  and  O1_3 
REMARK    2  A    between atoms: O1_3  and  C3_4 
REMARK    3  A    between atoms: C8_9  and  N1_10 
REMARK       I    between atoms: N1_10  and  C9_11 
REMARK    4  A    between atoms: C9_11  and  C10_13 
REMARK    5  A    between atoms: C11_14  and  C12_15 
REMARK    6  A    between atoms: C12_15  and  N2_16 
ROOT
HETATM    1  C3  UNL     1      25.323   1.069  52.253  1.00  0.00     0.094 A 
HETATM    2  C4  UNL     1      25.724  -0.142  52.859  1.00  0.00     0.070 A 
HETATM    3  C5  UNL     1      26.957  -0.472  53.459  1.00  0.00     0.058 A 
HETATM    4  C6  UNL     1      27.588   0.703  53.267  1.00  0.00    -0.021 A 
HETATM    5  C7  UNL     1      27.560   2.038  52.761  1.00  0.00     0.064 A 
HETATM    6  C8  UNL     1      26.241   2.138  52.212  1.00  0.00     0.061 A 
HETATM    7  C15 UNL     1      28.760   1.374  53.472  1.00  0.00     0.038 A 
HETATM    8  C16 UNL     1      29.094   0.020  54.103  1.00  0.00     0.166 A 
HETATM    9  N3  UNL     1      27.996  -0.878  54.012  1.00  0.00    -0.288 NA
ENDROOT
BRANCH   6  10
HETATM   10  N1  UNL     1      25.911   3.359  51.631  1.00  0.00    -0.324 N 
HETATM   11  C9  UNL     1      26.252   3.587  50.267  1.00  0.00     0.245 C 
HETATM   12  O2  UNL     1      26.846   2.641  49.669  1.00  0.00    -0.268 OA
HETATM   13  H7  UNL     1      25.416   4.141  52.143  1.00  0.00     0.169 HD
BRANCH  11  14
HETATM   14  C10 UNL     1      25.952   4.833  49.560  1.00  0.00     0.072 C 
HETATM   15  C11 UNL     1      26.813   5.580  48.866  1.00  0.00     0.008 C 
BRANCH  15  16
HETATM   16  C12 UNL     1      26.426   6.828  48.181  1.00  0.00     0.299 C 
BRANCH  16  17
HETATM   17  N2  UNL     1      27.621   7.591  47.838  1.00  0.00     0.083 N 
HETATM   18  C13 UNL     1      27.899   8.469  48.985  1.00  0.00     0.309 C 
HETATM   19  C14 UNL     1      28.737   6.648  47.732  1.00  0.00     0.309 C 
ENDBRANCH  16  17
ENDBRANCH  15  16
ENDBRANCH  11  14
ENDBRANCH   6  10
BRANCH   1  20
HETATM   20  O1  UNL     1      24.070   1.153  51.737  1.00  0.00    -0.349 OA
BRANCH  20  21
HETATM   21  C2  UNL     1      22.872   1.135  52.454  1.00  0.00     0.171 C 
HETATM   22  C1  UNL     1      21.875   0.116  52.023  1.00  0.00     0.034 C 
ENDBRANCH  20  21
ENDBRANCH   1  20
TORSDOF 6
ENDMDL
MODEL 3
REMARK VINA RESULT:      -6.5      2.105      3.261
REMARK  6 active torsions:
REMARK  status: ('A' for Active; 'I' for Inactive)
REMARK    1  A    between atoms: C2_2  and  O1_3 
REMARK    2  A    between atoms: O1_3  and  C3_4 
REMARK    3  A    between atoms: C8_9  and  N1_10 
REMARK       I    between atoms: N1_10  and  C9_11 
REMARK    4  A    between atoms: C9_11  and  C10_13 
REMARK    5  A    between atoms: C11_14  and  C12_15 
REMARK    6  A    between atoms: C12_15  and  N2_16 
ROOT
HETATM    1  C3  UNL     1      26.537   1.933  52.316  1.00  0.00     0.094 A 
HETATM    2  C4  UNL     1      26.061   0.745  52.913  1.00  0.00     0.070 A 
HETATM    3  C5  UNL     1      24.752   0.223  52.936  1.00  0.00     0.058 A 
HETATM    4  C6  UNL     1      24.142   1.194  52.229  1.00  0.00    -0.021 A 
HETATM    5  C7  UNL     1      24.230   2.430  51.519  1.00  0.00     0.064 A 
HETATM    6  C8  UNL     1      25.620   2.756  51.630  1.00  0.00     0.061 A 
HETATM    7  C15 UNL     1      22.941   1.605  51.725  1.00  0.00     0.038 A 
HETATM    8  C16 UNL     1      22.529   0.298  52.408  1.00  0.00     0.166 A 
HETATM    9  N3  UNL     1      23.642  -0.336  53.024  1.00  0.00    -0.288 NA
ENDROOT
BRANCH   6  10
HETATM   10  N1  UNL     1      26.021   3.941  51.019  1.00  0.00    -0.324 N 
HETATM   11  C9  UNL     1      26.560   3.888  49.702  1.00  0.00     0.245 C 
HETATM   12  O2  UNL     1      26.639   2.740  49.170  1.00  0.00    -0.268 OA
HETATM   13  H7  UNL     1      25.950   4.893  51.475  1.00  0.00     0.169 HD
BRANCH  11  14
HETATM   14  C10 UNL     1      27.010   5.072  48.969  1.00  0.00     0.072 C 
HETATM   15  C11 UNL     1      28.230   5.280  48.467  1.00  0.00     0.008 C 
BRANCH  15  16
HETATM   16  C12 UNL     1      28.602   6.507  47.739  1.00  0.00     0.299 C 
BRANCH  16  17
HETATM   17  N2  UNL     1      29.656   7.209  48.464  1.00  0.00     0.083 N 
HETATM   18  C13 UNL     1      30.776   7.368  47.524  1.00  0.00     0.309 C 
HETATM   19  C14 UNL     1      29.160   8.551  48.782  1.00  0.00     0.309 C 
ENDBRANCH  16  17
ENDBRANCH  15  16
ENDBRANCH  11  14
ENDBRANCH   6  10
BRANCH   1  20
HETATM   20  O1  UNL     1      27.856   2.233  52.426  1.00  0.00    -0.349 OA
BRANCH  20  21
HETATM   21  C2  UNL     1      28.593   2.320  53.610  1.00  0.00     0.171 C 
HETATM   22  C1  UNL     1      29.383   1.110  53.971  1.00  0.00     0.034 C 
ENDBRANCH  20  21
ENDBRANCH   1  20
TORSDOF 6
ENDMDL
MODEL 4
REMARK VINA RESULT:      -6.5      2.912      6.535
REMARK  6 active torsions:
REMARK  status: ('A' for Active; 'I' for Inactive)
REMARK    1  A    between atoms: C2_2  and  O1_3 
REMARK    2  A    between atoms: O1_3  and  C3_4 
REMARK    3  A    between atoms: C8_9  and  N1_10 
REMARK       I    between atoms: N1_10  and  C9_11 
REMARK    4  A    between atoms: C9_11  and  C10_13 
REMARK    5  A    between atoms: C11_14  and  C12_15 
REMARK    6  A    between atoms: C12_15  and  N2_16 
ROOT
HETATM    1  C3  UNL     1      26.245   1.424  53.480  1.00  0.00     0.094 A 
HETATM    2  C4  UNL     1      27.619   1.705  53.651  1.00  0.00     0.070 A 
HETATM    3  C5  UNL     1      28.720   0.825  53.600  1.00  0.00     0.058 A 
HETATM    4  C6  UNL     1      28.047  -0.315  53.346  1.00  0.00    -0.021 A 
HETATM    5  C7  UNL     1      26.802  -0.976  53.121  1.00  0.00     0.064 A 
HETATM    6  C8  UNL     1      25.856   0.095  53.219  1.00  0.00     0.061 A 
HETATM    7  C15 UNL     1      28.189  -1.656  53.130  1.00  0.00     0.038 A 
HETATM    8  C16 UNL     1      29.649  -1.246  53.333  1.00  0.00     0.166 A 
HETATM    9  N3  UNL     1      29.766   0.149  53.580  1.00  0.00    -0.288 NA
ENDROOT
BRANCH   6  10
HETATM   10  N1  UNL     1      24.520  -0.251  53.040  1.00  0.00    -0.324 N 
HETATM   11  C9  UNL     1      23.800  -0.808  54.135  1.00  0.00     0.245 C 
HETATM   12  O2  UNL     1      24.443  -0.953  55.217  1.00  0.00    -0.268 OA
HETATM   13  H7  UNL     1      23.995  -0.125  52.129  1.00  0.00     0.169 HD
BRANCH  11  14
HETATM   14  C10 UNL     1      22.393  -1.205  54.054  1.00  0.00     0.072 C 
HETATM   15  C11 UNL     1      21.384  -0.464  53.593  1.00  0.00     0.008 C 
BRANCH  15  16
HETATM   16  C12 UNL     1      19.989  -0.941  53.546  1.00  0.00     0.299 C 
BRANCH  16  17
HETATM   17  N2  UNL     1      19.171   0.003  52.793  1.00  0.00     0.083 N 
HETATM   18  C13 UNL     1      19.912   0.307  51.560  1.00  0.00     0.309 C 
HETATM   19  C14 UNL     1      17.939  -0.687  52.402  1.00  0.00     0.309 C 
ENDBRANCH  16  17
ENDBRANCH  15  16
ENDBRANCH  11  14
ENDBRANCH   6  10
BRANCH   1  20
HETATM   20  O1  UNL     1      25.358   2.447  53.574  1.00  0.00    -0.349 OA
BRANCH  20  21
HETATM   21  C2  UNL     1      24.711   3.087  52.514  1.00  0.00     0.171 C 
HETATM   22  C1  UNL     1      23.227   2.956  52.488  1.00  0.00     0.034 C 
ENDBRANCH  20  21
ENDBRANCH   1  20
TORSDOF 6
ENDMDL
MODEL 5
REMARK VINA RESULT:      -6.4      2.879      4.733
REMARK  6 active torsions:
REMARK  status: ('A' for Active; 'I' for Inactive)
REMARK    1  A    between atoms: C2_2  and  O1_3 
REMARK    2  A    between atoms: O1_3  and  C3_4 
REMARK    3  A    between atoms: C8_9  and  N1_10 
REMARK       I    between atoms: N1_10  and  C9_11 
REMARK    4  A    between atoms: C9_11  and  C10_13 
REMARK    5  A    between atoms: C11_14  and  C12_15 
REMARK    6  A    between atoms: C12_15  and  N2_16 
ROOT
HETATM    1  C3  UNL     1      25.384   0.174  53.262  1.00  0.00     0.094 A 
HETATM    2  C4  UNL     1      26.246  -0.234  54.303  1.00  0.00     0.070 A 
HETATM    3  C5  UNL     1      27.498   0.293  54.680  1.00  0.00     0.058 A 
HETATM    4  C6  UNL     1      27.586   1.268  53.755  1.00  0.00    -0.021 A 
HETATM    5  C7  UNL     1      27.012   1.954  52.642  1.00  0.00     0.064 A 
HETATM    6  C8  UNL     1      25.776   1.257  52.449  1.00  0.00     0.061 A 
HETATM    7  C15 UNL     1      28.372   2.286  53.294  1.00  0.00     0.038 A 
HETATM    8  C16 UNL     1      29.232   1.764  54.448  1.00  0.00     0.166 A 
HETATM    9  N3  UNL     1      28.608   0.670  55.105  1.00  0.00    -0.288 NA
ENDROOT
BRANCH   6  10
HETATM   10  N1  UNL     1      24.975   1.711  51.405  1.00  0.00    -0.324 N 
HETATM   11  C9  UNL     1      24.063   2.777  51.650  1.00  0.00     0.245 C 
HETATM   12  O2  UNL     1      24.046   3.245  52.827  1.00  0.00    -0.268 OA
HETATM   13  H7  UNL     1      24.999   1.311  50.425  1.00  0.00     0.169 HD
BRANCH  11  14
HETATM   14  C10 UNL     1      23.177   3.330  50.624  1.00  0.00     0.072 C 
HETATM   15  C11 UNL     1      23.455   3.471  49.326  1.00  0.00     0.008 C 
BRANCH  15  16
HETATM   16  C12 UNL     1      22.502   4.040  48.355  1.00  0.00     0.299 C 
BRANCH  16  17
HETATM   17  N2  UNL     1      22.054   2.997  47.437  1.00  0.00     0.083 N 
HETATM   18  C13 UNL     1      20.739   2.551  47.922  1.00  0.00     0.309 C 
HETATM   19  C14 UNL     1      21.847   3.618  46.126  1.00  0.00     0.309 C 
ENDBRANCH  16  17
ENDBRANCH  15  16
ENDBRANCH  11  14
ENDBRANCH   6  10
BRANCH   1  20
HETATM   20  O1  UNL     1      24.215  -0.493  53.087  1.00  0.00    -0.349 OA
BRANCH  20  21
HETATM   21  C2  UNL     1      23.121  -0.496  53.957  1.00  0.00     0.171 C 
HETATM   22  C1  UNL     1      21.978   0.374  53.561  1.00  0.00     0.034 C 
ENDBRANCH  20  21
ENDBRANCH   1  20
TORSDOF 6
ENDMDL
MODEL 6
REMARK VINA RESULT:      -6.3      2.694      4.672
REMARK  6 active torsions:
REMARK  status: ('A' for Active; 'I' for Inactive)
REMARK    1  A    between atoms: C2_2  and  O1_3 
REMARK    2  A    between atoms: O1_3  and  C3_4 
REMARK    3  A    between atoms: C8_9  and  N1_10 
REMARK       I    between atoms: N1_10  and  C9_11 
REMARK    4  A    between atoms: C9_11  and  C10_13 
REMARK    5  A    between atoms: C11_14  and  C12_15 
REMARK    6  A    between atoms: C12_15  and  N2_16 
ROOT
HETATM    1  C3  UNL     1      24.938   0.262  53.219  1.00  0.00     0.094 A 
HETATM    2  C4  UNL     1      25.734  -0.442  54.149  1.00  0.00     0.070 A 
HETATM    3  C5  UNL     1      27.073  -0.213  54.528  1.00  0.00     0.058 A 
HETATM    4  C6  UNL     1      27.320   0.852  53.740  1.00  0.00    -0.021 A 
HETATM    5  C7  UNL     1      26.856   1.784  52.762  1.00  0.00     0.064 A 
HETATM    6  C8  UNL     1      25.506   1.360  52.542  1.00  0.00     0.061 A 
HETATM    7  C15 UNL     1      28.271   1.764  53.381  1.00  0.00     0.038 A 
HETATM    8  C16 UNL     1      29.047   0.933  54.406  1.00  0.00     0.166 A 
HETATM    9  N3  UNL     1      28.245  -0.111  54.941  1.00  0.00    -0.288 NA
ENDROOT
BRANCH   6  10
HETATM   10  N1  UNL     1      24.778   2.098  51.613  1.00  0.00    -0.324 N 
HETATM   11  C9  UNL     1      24.051   3.240  52.056  1.00  0.00     0.245 C 
HETATM   12  O2  UNL     1      24.122   3.506  53.293  1.00  0.00    -0.268 OA
HETATM   13  H7  UNL     1      24.727   1.863  50.582  1.00  0.00     0.169 HD
BRANCH  11  14
HETATM   14  C10 UNL     1      23.256   4.084  51.164  1.00  0.00     0.072 C 
HETATM   15  C11 UNL     1      22.407   5.047  51.529  1.00  0.00     0.008 C 
BRANCH  15  16
HETATM   16  C12 UNL     1      21.641   5.855  50.562  1.00  0.00     0.299 C 
BRANCH  16  17
HETATM   17  N2  UNL     1      21.727   7.266  50.922  1.00  0.00     0.083 N 
HETATM   18  C13 UNL     1      23.058   7.726  50.497  1.00  0.00     0.309 C 
HETATM   19  C14 UNL     1      20.739   7.992  50.119  1.00  0.00     0.309 C 
ENDBRANCH  16  17
ENDBRANCH  15  16
ENDBRANCH  11  14
ENDBRANCH   6  10
BRANCH   1  20
HETATM   20  O1  UNL     1      23.660  -0.147  53.018  1.00  0.00    -0.349 OA
BRANCH  20  21
HETATM   21  C2  UNL     1      22.584   0.022  53.893  1.00  0.00     0.171 C 
HETATM   22  C1  UNL     1      22.070  -1.220  54.534  1.00  0.00     0.034 C 
ENDBRANCH  20  21
ENDBRANCH   1  20
TORSDOF 6
ENDMDL
MODEL 7
REMARK VINA RESULT:      -6.1      2.986      7.839
REMARK  6 active torsions:
REMARK  status: ('A' for Active; 'I' for Inactive)
REMARK    1  A    between atoms: C2_2  and  O1_3 
REMARK    2  A    between atoms: O1_3  and  C3_4 
REMARK    3  A    between atoms: C8_9  and  N1_10 
REMARK       I    between atoms: N1_10  and  C9_11 
REMARK    4  A    between atoms: C9_11  and  C10_13 
REMARK    5  A    between atoms: C11_14  and  C12_15 
REMARK    6  A    between atoms: C12_15  and  N2_16 
ROOT
HETATM    1  C3  UNL     1      23.906   4.956  49.506  1.00  0.00     0.094 A 
HETATM    2  C4  UNL     1      23.508   5.806  48.451  1.00  0.00     0.070 A 
HETATM    3  C5  UNL     1      24.261   6.775  47.756  1.00  0.00     0.058 A 
HETATM    4  C6  UNL     1      25.429   6.620  48.410  1.00  0.00    -0.021 A 
HETATM    5  C7  UNL     1      26.186   5.955  49.422  1.00  0.00     0.064 A 
HETATM    6  C8  UNL     1      25.232   5.040  49.975  1.00  0.00     0.061 A 
HETATM    7  C15 UNL     1      26.719   7.064  48.489  1.00  0.00     0.038 A 
HETATM    8  C16 UNL     1      26.185   7.940  47.352  1.00  0.00     0.166 A 
HETATM    9  N3  UNL     1      24.821   7.655  47.075  1.00  0.00    -0.288 NA
ENDROOT
BRANCH   6  10
HETATM   10  N1  UNL     1      25.691   4.232  51.012  1.00  0.00    -0.324 N 
HETATM   11  C9  UNL     1      26.363   3.018  50.693  1.00  0.00     0.245 C 
HETATM   12  O2  UNL     1      26.498   2.755  49.461  1.00  0.00    -0.268 OA
HETATM   13  H7  UNL     1      25.572   4.464  52.038  1.00  0.00     0.169 HD
BRANCH  11  14
HETATM   14  C10 UNL     1      26.885   2.098  51.704  1.00  0.00     0.072 C 
HETATM   15  C11 UNL     1      26.688   0.779  51.755  1.00  0.00     0.008 C 
BRANCH  15  16
HETATM   16  C12 UNL     1      27.252  -0.080  52.814  1.00  0.00     0.299 C 
BRANCH  16  17
HETATM   17  N2  UNL     1      27.432   0.699  54.034  1.00  0.00     0.083 N 
HETATM   18  C13 UNL     1      26.427   0.215  54.992  1.00  0.00     0.309 C 
HETATM   19  C14 UNL     1      28.750   0.368  54.583  1.00  0.00     0.309 C 
ENDBRANCH  16  17
ENDBRANCH  15  16
ENDBRANCH  11  14
ENDBRANCH   6  10
BRANCH   1  20
HETATM   20  O1  UNL     1      22.995   4.093  50.023  1.00  0.00    -0.349 OA
BRANCH  20  21
HETATM   21  C2  UNL     1      22.743   2.790  49.587  1.00  0.00     0.171 C 
HETATM   22  C1  UNL     1      22.886   1.724  50.619  1.00  0.00     0.034 C 
ENDBRANCH  20  21
ENDBRANCH   1  20
TORSDOF 6
ENDMDL
MODEL 8
REMARK VINA RESULT:      -6.1      2.082      7.511
REMARK  6 active torsions:
REMARK  status: ('A' for Active; 'I' for Inactive)
REMARK    1  A    between atoms: C2_2  and  O1_3 
REMARK    2  A    between atoms: O1_3  and  C3_4 
REMARK    3  A    between atoms: C8_9  and  N1_10 
REMARK       I    between atoms: N1_10  and  C9_11 
REMARK    4  A    between atoms: C9_11  and  C10_13 
REMARK    5  A    between atoms: C11_14  and  C12_15 
REMARK    6  A    between atoms: C12_15  and  N2_16 
ROOT
HETATM    1  C3  UNL     1      26.261   3.641  49.714  1.00  0.00     0.094 A 
HETATM    2  C4  UNL     1      27.190   4.561  49.179  1.00  0.00     0.070 A 
HETATM    3  C5  UNL     1      26.955   5.811  48.571  1.00  0.00     0.058 A 
HETATM    4  C6  UNL     1      25.611   5.828  48.671  1.00  0.00    -0.021 A 
HETATM    5  C7  UNL     1      24.408   5.184  49.091  1.00  0.00     0.064 A 
HETATM    6  C8  UNL     1      24.890   3.963  49.664  1.00  0.00     0.061 A 
HETATM    7  C15 UNL     1      24.492   6.560  48.394  1.00  0.00     0.038 A 
HETATM    8  C16 UNL     1      25.580   7.485  47.842  1.00  0.00     0.166 A 
HETATM    9  N3  UNL     1      26.874   6.926  48.019  1.00  0.00    -0.288 NA
ENDROOT
BRANCH   6  10
HETATM   10  N1  UNL     1      23.921   3.102  50.172  1.00  0.00    -0.324 N 
HETATM   11  C9  UNL     1      23.432   3.318  51.493  1.00  0.00     0.245 C 
HETATM   12  O2  UNL     1      23.927   4.300  52.123  1.00  0.00    -0.268 OA
HETATM   13  H7  UNL     1      23.516   2.285  49.635  1.00  0.00     0.169 HD
BRANCH  11  14
HETATM   14  C10 UNL     1      22.415   2.475  52.122  1.00  0.00     0.072 C 
HETATM   15  C11 UNL     1      22.627   1.338  52.789  1.00  0.00     0.008 C 
BRANCH  15  16
HETATM   16  C12 UNL     1      21.541   0.545  53.395  1.00  0.00     0.299 C 
BRANCH  16  17
HETATM   17  N2  UNL     1      22.093  -0.354  54.403  1.00  0.00     0.083 N 
HETATM   18  C13 UNL     1      21.303  -1.592  54.335  1.00  0.00     0.309 C 
HETATM   19  C14 UNL     1      23.461  -0.688  54.001  1.00  0.00     0.309 C 
ENDBRANCH  16  17
ENDBRANCH  15  16
ENDBRANCH  11  14
ENDBRANCH   6  10
BRANCH   1  20
HETATM   20  O1  UNL     1      26.728   2.487  50.255  1.00  0.00    -0.349 OA
BRANCH  20  21
HETATM   21  C2  UNL     1      26.887   2.211  51.615  1.00  0.00     0.171 C 
HETATM   22  C1  UNL     1      26.441   0.860  52.057  1.00  0.00     0.034 C 
ENDBRANCH  20  21
ENDBRANCH   1  20
TORSDOF 6
ENDMDL
MODEL 9
REMARK VINA RESULT:      -5.9      5.983     10.131
REMARK  6 active torsions:
REMARK  status: ('A' for Active; 'I' for Inactive)
REMARK    1  A    between atoms: C2_2  and  O1_3 
REMARK    2  A    between atoms: O1_3  and  C3_4 
REMARK    3  A    between atoms: C8_9  and  N1_10 
REMARK       I    between atoms: N1_10  and  C9_11 
REMARK    4  A    between atoms: C9_11  and  C10_13 
REMARK    5  A    between atoms: C11_14  and  C12_15 
REMARK    6  A    between atoms: C12_15  and  N2_16 
ROOT
HETATM    1  C3  UNL     1      31.911   6.940  48.929  1.00  0.00     0.094 A 
HETATM    2  C4  UNL     1      33.260   6.896  48.516  1.00  0.00     0.070 A 
HETATM    3  C5  UNL     1      33.926   5.916  47.751  1.00  0.00     0.058 A 
HETATM    4  C6  UNL     1      32.887   5.080  47.559  1.00  0.00    -0.021 A 
HETATM    5  C7  UNL     1      31.509   4.771  47.773  1.00  0.00     0.064 A 
HETATM    6  C8  UNL     1      31.057   5.883  48.555  1.00  0.00     0.061 A 
HETATM    7  C15 UNL     1      32.508   3.903  46.978  1.00  0.00     0.038 A 
HETATM    8  C16 UNL     1      33.987   3.952  46.584  1.00  0.00     0.166 A 
HETATM    9  N3  UNL     1      34.618   5.121  47.087  1.00  0.00    -0.288 NA
ENDROOT
BRANCH   6  10
HETATM   10  N1  UNL     1      29.716   5.863  48.928  1.00  0.00    -0.324 N 
HETATM   11  C9  UNL     1      28.753   6.467  48.070  1.00  0.00     0.245 C 
HETATM   12  O2  UNL     1      29.197   6.991  47.005  1.00  0.00    -0.268 OA
HETATM   13  H7  UNL     1      29.359   5.422  49.821  1.00  0.00     0.169 HD
BRANCH  11  14
HETATM   14  C10 UNL     1      27.320   6.501  48.367  1.00  0.00     0.072 C 
HETATM   15  C11 UNL     1      26.576   5.484  48.809  1.00  0.00     0.008 C 
BRANCH  15  16
HETATM   16  C12 UNL     1      25.132   5.603  49.084  1.00  0.00     0.299 C 
BRANCH  16  17
HETATM   17  N2  UNL     1      24.902   5.577  50.524  1.00  0.00     0.083 N 
HETATM   18  C13 UNL     1      24.315   6.878  50.878  1.00  0.00     0.309 C 
HETATM   19  C14 UNL     1      23.889   4.554  50.795  1.00  0.00     0.309 C 
ENDBRANCH  16  17
ENDBRANCH  15  16
ENDBRANCH  11  14
ENDBRANCH   6  10
BRANCH   1  20
HETATM   20  O1  UNL     1      31.493   7.999  49.669  1.00  0.00    -0.349 OA
BRANCH  20  21
HETATM   21  C2  UNL     1      31.115   9.254  49.187  1.00  0.00     0.171 C 
HETATM   22  C1  UNL     1      29.696   9.639  49.427  1.00  0.00     0.034 C 
ENDBRANCH  20  21
ENDBRANCH   1  20
TORSDOF 6
ENDMDL
