MODEL 1
REMARK VINA RESULT:      -9.2      0.000      0.000
REMARK  2 active torsions:
REMARK  status: ('A' for Active; 'I' for Inactive)
REMARK    1  A    between atoms: C14_17  and  C15_18 
REMARK    2  A    between atoms: N3_24  and  N4_25 
ROOT
HETATM    1  C1  UNL     1      24.517  -0.859  54.395  1.00  0.00     0.039 C 
HETATM    2  C2  UNL     1      24.610  -0.188  53.003  1.00  0.00     0.132 A 
HETATM    3  C3  UNL     1      25.659   0.830  53.055  1.00  0.00    -0.021 A 
HETATM    4  C4  UNL     1      27.062   0.550  53.261  1.00  0.00    -0.006 A 
HETATM    5  C5  UNL     1      27.983   1.542  53.522  1.00  0.00     0.014 A 
HETATM    6  C6  UNL     1      29.324   1.360  53.691  1.00  0.00     0.001 A 
HETATM    7  C7  UNL     1      29.846   0.065  53.599  1.00  0.00     0.002 A 
HETATM    8  C8  UNL     1      28.982  -0.972  53.340  1.00  0.00     0.024 A 
HETATM    9  C9  UNL     1      27.641  -0.693  53.182  1.00  0.00     0.044 A 
HETATM   10 CL1  UNL     1      26.709  -2.105  52.817  1.00  0.00    -0.083 Cl
HETATM   11  C10 UNL     1      25.296   2.089  52.936  1.00  0.00     0.025 A 
HETATM   12  C11 UNL     1      23.943   2.595  52.750  1.00  0.00     0.011 A 
HETATM   13  C12 UNL     1      23.805   3.891  52.690  1.00  0.00     0.131 C 
HETATM   14  N1  UNL     1      23.034   5.053  52.554  1.00  0.00    -0.256 NA
HETATM   15  C13 UNL     1      22.806   5.520  51.330  1.00  0.00     0.202 C 
HETATM   16  N2  UNL     1      23.609   4.364  50.952  1.00  0.00    -0.376 N 
HETATM   17  C14 UNL     1      22.816   3.189  50.647  1.00  0.00     0.113 C 
HETATM   18  C17 UNL     1      21.641   3.071  51.566  1.00  0.00     0.013 C 
HETATM   19  C18 UNL     1      21.659   2.131  52.504  1.00  0.00     0.003 C 
HETATM   20  C19 UNL     1      22.851   1.648  52.678  1.00  0.00     0.069 A 
HETATM   21  N3  UNL     1      23.272   0.324  52.800  1.00  0.00    -0.305 N 
HETATM   22  H12 UNL     1      24.642   4.159  50.829  1.00  0.00     0.161 HD
ENDROOT
BRANCH  21  23
HETATM   23  N4  UNL     1      22.253  -0.660  52.717  1.00  0.00    -0.246 NA
HETATM   24  H17 UNL     1      22.681  -1.617  52.549  1.00  0.00     0.143 HD
HETATM   25  H18 UNL     1      21.608  -0.506  51.937  1.00  0.00     0.143 HD
ENDBRANCH  21  23
BRANCH  17  26
HETATM   26  C15 UNL     1      22.162   3.599  49.347  1.00  0.00     0.057 C 
HETATM   27  C16 UNL     1      22.006   2.792  48.317  1.00  0.00     0.421 C 
HETATM   28  F1  UNL     1      22.560   1.638  48.774  1.00  0.00    -0.455 F 
ENDBRANCH  17  26
TORSDOF 2
ENDMDL
MODEL 2
REMARK VINA RESULT:      -9.0      2.680      4.482
REMARK  2 active torsions:
REMARK  status: ('A' for Active; 'I' for Inactive)
REMARK    1  A    between atoms: C14_17  and  C15_18 
REMARK    2  A    between atoms: N3_24  and  N4_25 
ROOT
HETATM    1  C1  UNL     1      26.491   0.339  51.941  1.00  0.00     0.039 C 
HETATM    2  C2  UNL     1      25.579   1.545  52.279  1.00  0.00     0.132 A 
HETATM    3  C3  UNL     1      24.188   1.093  52.233  1.00  0.00    -0.021 A 
HETATM    4  C4  UNL     1      23.614   0.121  53.135  1.00  0.00    -0.006 A 
HETATM    5  C5  UNL     1      22.372  -0.438  52.925  1.00  0.00     0.014 A 
HETATM    6  C6  UNL     1      21.750  -1.332  53.747  1.00  0.00     0.001 A 
HETATM    7  C7  UNL     1      22.402  -1.740  54.916  1.00  0.00     0.002 A 
HETATM    8  C8  UNL     1      23.645  -1.220  55.186  1.00  0.00     0.024 A 
HETATM    9  C9  UNL     1      24.195  -0.321  54.298  1.00  0.00     0.044 A 
HETATM   10 CL1  UNL     1      25.740   0.264  54.818  1.00  0.00    -0.083 Cl
HETATM   11  C10 UNL     1      23.417   1.585  51.288  1.00  0.00     0.025 A 
HETATM   12  C11 UNL     1      23.794   2.549  50.263  1.00  0.00     0.011 A 
HETATM   13  C12 UNL     1      22.874   2.875  49.398  1.00  0.00     0.131 C 
HETATM   14  N1  UNL     1      22.415   3.586  48.281  1.00  0.00    -0.256 NA
HETATM   15  C13 UNL     1      21.893   4.794  48.472  1.00  0.00     0.202 C 
HETATM   16  N2  UNL     1      22.201   4.492  49.863  1.00  0.00    -0.376 N 
HETATM   17  C14 UNL     1      23.496   4.989  50.287  1.00  0.00     0.113 C 
HETATM   18  C17 UNL     1      24.515   4.847  49.201  1.00  0.00     0.013 C 
HETATM   19  C18 UNL     1      25.453   3.915  49.328  1.00  0.00     0.003 C 
HETATM   20  C19 UNL     1      25.151   3.051  50.249  1.00  0.00     0.069 A 
HETATM   21  N3  UNL     1      25.939   2.515  51.268  1.00  0.00    -0.305 N 
HETATM   22  H12 UNL     1      21.709   4.003  50.666  1.00  0.00     0.161 HD
ENDROOT
BRANCH  21  23
HETATM   23  N4  UNL     1      27.278   2.982  51.325  1.00  0.00    -0.246 NA
HETATM   24  H17 UNL     1      27.682   2.816  52.292  1.00  0.00     0.143 HD
HETATM   25  H18 UNL     1      27.360   3.989  51.161  1.00  0.00     0.143 HD
ENDBRANCH  21  23
BRANCH  17  26
HETATM   26  C15 UNL     1      23.253   6.481  50.300  1.00  0.00     0.057 C 
HETATM   27  C16 UNL     1      23.852   7.316  51.125  1.00  0.00     0.421 C 
HETATM   28  F1  UNL     1      24.643   6.480  51.849  1.00  0.00    -0.455 F 
ENDBRANCH  17  26
TORSDOF 2
ENDMDL
MODEL 3
REMARK VINA RESULT:      -8.5      8.689     10.949
REMARK  2 active torsions:
REMARK  status: ('A' for Active; 'I' for Inactive)
REMARK    1  A    between atoms: C14_17  and  C15_18 
REMARK    2  A    between atoms: N3_24  and  N4_25 
ROOT
HETATM    1  C1  UNL     1      29.895   8.569  48.871  1.00  0.00     0.039 C 
HETATM    2  C2  UNL     1      29.996   7.682  47.605  1.00  0.00     0.132 A 
HETATM    3  C3  UNL     1      29.466   6.358  47.930  1.00  0.00    -0.021 A 
HETATM    4  C4  UNL     1      28.089   6.091  48.279  1.00  0.00    -0.006 A 
HETATM    5  C5  UNL     1      27.678   4.878  48.789  1.00  0.00     0.014 A 
HETATM    6  C6  UNL     1      26.395   4.540  49.107  1.00  0.00     0.001 A 
HETATM    7  C7  UNL     1      25.381   5.484  48.911  1.00  0.00     0.002 A 
HETATM    8  C8  UNL     1      25.723   6.715  48.403  1.00  0.00     0.024 A 
HETATM    9  C9  UNL     1      27.046   6.967  48.111  1.00  0.00     0.044 A 
HETATM   10 CL1  UNL     1      27.287   8.545  47.440  1.00  0.00    -0.083 Cl
HETATM   11  C10 UNL     1      30.308   5.346  47.935  1.00  0.00     0.025 A 
HETATM   12  C11 UNL     1      31.734   5.394  47.643  1.00  0.00     0.011 A 
HETATM   13  C12 UNL     1      32.390   4.270  47.741  1.00  0.00     0.131 C 
HETATM   14  N1  UNL     1      33.561   3.504  47.662  1.00  0.00    -0.256 NA
HETATM   15  C13 UNL     1      33.881   2.958  46.492  1.00  0.00     0.202 C 
HETATM   16  N2  UNL     1      32.651   3.615  46.071  1.00  0.00    -0.376 N 
HETATM   17  C14 UNL     1      32.867   4.935  45.510  1.00  0.00     0.113 C 
HETATM   18  C17 UNL     1      33.946   5.669  46.243  1.00  0.00     0.013 C 
HETATM   19  C18 UNL     1      33.602   6.673  47.040  1.00  0.00     0.003 C 
HETATM   20  C19 UNL     1      32.331   6.667  47.302  1.00  0.00     0.069 A 
HETATM   21  N3  UNL     1      31.410   7.715  47.300  1.00  0.00    -0.305 N 
HETATM   22  H12 UNL     1      31.619   3.369  46.059  1.00  0.00     0.161 HD
ENDROOT
BRANCH  21  23
HETATM   23  N4  UNL     1      31.926   8.991  46.953  1.00  0.00    -0.246 NA
HETATM   24  H17 UNL     1      32.374   8.954  45.991  1.00  0.00     0.143 HD
HETATM   25  H18 UNL     1      32.662   9.313  47.587  1.00  0.00     0.143 HD
ENDBRANCH  21  23
BRANCH  17  26
HETATM   26  C15 UNL     1      33.545   4.596  44.203  1.00  0.00     0.057 C 
HETATM   27  C16 UNL     1      33.259   5.175  43.054  1.00  0.00     0.421 C 
HETATM   28  F1  UNL     1      32.284   6.052  43.414  1.00  0.00    -0.455 F 
ENDBRANCH  17  26
TORSDOF 2
ENDMDL
MODEL 4
REMARK VINA RESULT:      -7.7      3.433      7.482
REMARK  2 active torsions:
REMARK  status: ('A' for Active; 'I' for Inactive)
REMARK    1  A    between atoms: C14_17  and  C15_18 
REMARK    2  A    between atoms: N3_24  and  N4_25 
ROOT
HETATM    1  C1  UNL     1      22.608   7.626  49.941  1.00  0.00     0.039 C 
HETATM    2  C2  UNL     1      23.588   6.435  49.800  1.00  0.00     0.132 A 
HETATM    3  C3  UNL     1      22.961   5.425  48.947  1.00  0.00    -0.021 A 
HETATM    4  C4  UNL     1      22.643   5.617  47.551  1.00  0.00    -0.006 A 
HETATM    5  C5  UNL     1      21.860   4.730  46.843  1.00  0.00     0.014 A 
HETATM    6  C6  UNL     1      21.547   4.825  45.519  1.00  0.00     0.001 A 
HETATM    7  C7  UNL     1      22.047   5.904  44.782  1.00  0.00     0.002 A 
HETATM    8  C8  UNL     1      22.837   6.826  45.428  1.00  0.00     0.024 A 
HETATM    9  C9  UNL     1      23.101   6.649  46.769  1.00  0.00     0.044 A 
HETATM   10 CL1  UNL     1      24.144   7.874  47.407  1.00  0.00    -0.083 Cl
HETATM   11  C10 UNL     1      22.639   4.274  49.498  1.00  0.00     0.025 A 
HETATM   12  C11 UNL     1      22.842   3.881  50.886  1.00  0.00     0.011 A 
HETATM   13  C12 UNL     1      22.412   2.698  51.228  1.00  0.00     0.131 C 
HETATM   14  N1  UNL     1      22.213   1.670  52.160  1.00  0.00    -0.256 NA
HETATM   15  C13 UNL     1      23.177   0.767  52.320  1.00  0.00     0.202 C 
HETATM   16  N2  UNL     1      23.832   1.574  51.299  1.00  0.00    -0.376 N 
HETATM   17  C14 UNL     1      24.705   2.595  51.846  1.00  0.00     0.113 C 
HETATM   18  C17 UNL     1      24.123   3.203  53.083  1.00  0.00     0.013 C 
HETATM   19  C18 UNL     1      23.639   4.438  53.017  1.00  0.00     0.003 C 
HETATM   20  C19 UNL     1      23.466   4.823  51.790  1.00  0.00     0.069 A 
HETATM   21  N3  UNL     1      23.801   6.028  51.172  1.00  0.00    -0.305 N 
HETATM   22  H12 UNL     1      23.845   1.601  50.238  1.00  0.00     0.161 HD
ENDROOT
BRANCH  21  23
HETATM   23  N4  UNL     1      24.437   6.991  51.999  1.00  0.00    -0.246 NA
HETATM   24  H17 UNL     1      23.789   7.281  52.787  1.00  0.00     0.143 HD
HETATM   25  H18 UNL     1      24.671   7.855  51.502  1.00  0.00     0.143 HD
ENDBRANCH  21  23
BRANCH  17  26
HETATM   26  C15 UNL     1      25.831   1.757  52.404  1.00  0.00     0.057 C 
HETATM   27  C16 UNL     1      27.105   1.970  52.141  1.00  0.00     0.421 C 
HETATM   28  F1  UNL     1      27.048   3.048  51.315  1.00  0.00    -0.455 F 
ENDBRANCH  17  26
TORSDOF 2
ENDMDL
MODEL 5
REMARK VINA RESULT:      -7.6      8.675     10.086
REMARK  2 active torsions:
REMARK  status: ('A' for Active; 'I' for Inactive)
REMARK    1  A    between atoms: C14_17  and  C15_18 
REMARK    2  A    between atoms: N3_24  and  N4_25 
ROOT
HETATM    1  C1  UNL     1      33.904   7.509  48.559  1.00  0.00     0.039 C 
HETATM    2  C2  UNL     1      32.595   6.693  48.411  1.00  0.00     0.132 A 
HETATM    3  C3  UNL     1      32.328   6.513  46.984  1.00  0.00    -0.021 A 
HETATM    4  C4  UNL     1      33.166   5.754  46.083  1.00  0.00    -0.006 A 
HETATM    5  C5  UNL     1      33.002   5.789  44.715  1.00  0.00     0.014 A 
HETATM    6  C6  UNL     1      33.727   5.076  43.807  1.00  0.00     0.001 A 
HETATM    7  C7  UNL     1      34.736   4.223  44.269  1.00  0.00     0.002 A 
HETATM    8  C8  UNL     1      34.951   4.139  45.625  1.00  0.00     0.024 A 
HETATM    9  C9  UNL     1      34.168   4.898  46.467  1.00  0.00     0.044 A 
HETATM   10 CL1  UNL     1      34.545   4.635  48.137  1.00  0.00    -0.083 Cl
HETATM   11  C10 UNL     1      31.267   7.109  46.480  1.00  0.00     0.025 A 
HETATM   12  C11 UNL     1      30.308   7.939  47.196  1.00  0.00     0.011 A 
HETATM   13  C12 UNL     1      29.344   8.462  46.489  1.00  0.00     0.131 C 
HETATM   14  N1  UNL     1      28.188   9.242  46.350  1.00  0.00    -0.256 NA
HETATM   15  C13 UNL     1      27.006   8.656  46.524  1.00  0.00     0.202 C 
HETATM   16  N2  UNL     1      27.842   7.487  46.764  1.00  0.00    -0.376 N 
HETATM   17  C14 UNL     1      28.148   7.277  48.166  1.00  0.00     0.113 C 
HETATM   18  C17 UNL     1      28.382   8.575  48.873  1.00  0.00     0.013 C 
HETATM   19  C18 UNL     1      29.622   8.894  49.223  1.00  0.00     0.003 C 
HETATM   20  C19 UNL     1      30.499   8.156  48.613  1.00  0.00     0.069 A 
HETATM   21  N3  UNL     1      31.627   7.506  49.115  1.00  0.00    -0.305 N 
HETATM   22  H12 UNL     1      28.283   6.728  46.168  1.00  0.00     0.161 HD
ENDROOT
BRANCH  21  23
HETATM   23  N4  UNL     1      31.862   7.659  50.506  1.00  0.00    -0.246 NA
HETATM   24  H17 UNL     1      31.264   8.446  50.894  1.00  0.00     0.143 HD
HETATM   25  H18 UNL     1      32.829   7.916  50.725  1.00  0.00     0.143 HD
ENDBRANCH  21  23
BRANCH  17  26
HETATM   26  C15 UNL     1      26.800   6.859  48.707  1.00  0.00     0.057 C 
HETATM   27  C16 UNL     1      26.446   5.606  48.909  1.00  0.00     0.421 C 
HETATM   28  F1  UNL     1      27.559   4.930  48.516  1.00  0.00    -0.455 F 
ENDBRANCH  17  26
TORSDOF 2
ENDMDL
MODEL 6
REMARK VINA RESULT:      -7.5      2.044      2.971
REMARK  2 active torsions:
REMARK  status: ('A' for Active; 'I' for Inactive)
REMARK    1  A    between atoms: C14_17  and  C15_18 
REMARK    2  A    between atoms: N3_24  and  N4_25 
ROOT
HETATM    1  C1  UNL     1      21.070   0.764  54.048  1.00  0.00     0.039 C 
HETATM    2  C2  UNL     1      21.527   1.115  52.611  1.00  0.00     0.132 A 
HETATM    3  C3  UNL     1      22.802   1.827  52.697  1.00  0.00    -0.021 A 
HETATM    4  C4  UNL     1      24.032   1.248  53.187  1.00  0.00    -0.006 A 
HETATM    5  C5  UNL     1      25.150   2.007  53.457  1.00  0.00     0.014 A 
HETATM    6  C6  UNL     1      26.353   1.529  53.886  1.00  0.00     0.001 A 
HETATM    7  C7  UNL     1      26.503   0.152  54.079  1.00  0.00     0.002 A 
HETATM    8  C8  UNL     1      25.425  -0.664  53.826  1.00  0.00     0.024 A 
HETATM    9  C9  UNL     1      24.248  -0.092  53.395  1.00  0.00     0.044 A 
HETATM   10 CL1  UNL     1      23.015  -1.267  53.082  1.00  0.00    -0.083 Cl
HETATM   11  C10 UNL     1      22.821   3.092  52.332  1.00  0.00     0.025 A 
HETATM   12  C11 UNL     1      21.699   3.877  51.838  1.00  0.00     0.011 A 
HETATM   13  C12 UNL     1      21.936   5.131  51.566  1.00  0.00     0.131 C 
HETATM   14  N1  UNL     1      21.542   6.402  51.126  1.00  0.00    -0.256 NA
HETATM   15  C13 UNL     1      21.616   6.671  49.825  1.00  0.00     0.202 C 
HETATM   16  N2  UNL     1      22.107   5.301  49.770  1.00  0.00    -0.376 N 
HETATM   17  C14 UNL     1      21.066   4.327  49.505  1.00  0.00     0.113 C 
HETATM   18  C17 UNL     1      19.795   4.684  50.209  1.00  0.00     0.013 C 
HETATM   19  C18 UNL     1      19.429   3.964  51.264  1.00  0.00     0.003 C 
HETATM   20  C19 UNL     1      20.406   3.239  51.715  1.00  0.00     0.069 A 
HETATM   21  N3  UNL     1      20.423   1.899  52.103  1.00  0.00    -0.305 N 
HETATM   22  H12 UNL     1      23.050   4.823  49.863  1.00  0.00     0.161 HD
ENDROOT
BRANCH  21  23
HETATM   23  N4  UNL     1      19.190   1.206  51.986  1.00  0.00    -0.246 NA
HETATM   24  H17 UNL     1      19.208   0.568  51.138  1.00  0.00     0.143 HD
HETATM   25  H18 UNL     1      18.390   1.829  51.845  1.00  0.00     0.143 HD
ENDBRANCH  21  23
BRANCH  17  26
HETATM   26  C15 UNL     1      20.728   4.635  48.065  1.00  0.00     0.057 C 
HETATM   27  C16 UNL     1      20.625   3.719  47.123  1.00  0.00     0.421 C 
HETATM   28  F1  UNL     1      20.892   2.576  47.808  1.00  0.00    -0.455 F 
ENDBRANCH  17  26
TORSDOF 2
ENDMDL
MODEL 7
REMARK VINA RESULT:      -7.3      5.664      8.295
REMARK  2 active torsions:
REMARK  status: ('A' for Active; 'I' for Inactive)
REMARK    1  A    between atoms: C14_17  and  C15_18 
REMARK    2  A    between atoms: N3_24  and  N4_25 
ROOT
HETATM    1  C1  UNL     1      15.414   0.423  52.673  1.00  0.00     0.039 C 
HETATM    2  C2  UNL     1      16.576  -0.055  51.768  1.00  0.00     0.132 A 
HETATM    3  C3  UNL     1      17.266  -1.151  52.449  1.00  0.00    -0.021 A 
HETATM    4  C4  UNL     1      16.671  -2.435  52.744  1.00  0.00    -0.006 A 
HETATM    5  C5  UNL     1      17.273  -3.355  53.575  1.00  0.00     0.014 A 
HETATM    6  C6  UNL     1      16.792  -4.596  53.871  1.00  0.00     0.001 A 
HETATM    7  C7  UNL     1      15.583  -5.006  53.298  1.00  0.00     0.002 A 
HETATM    8  C8  UNL     1      14.930  -4.135  52.458  1.00  0.00     0.024 A 
HETATM    9  C9  UNL     1      15.492  -2.901  52.216  1.00  0.00     0.044 A 
HETATM   10 CL1  UNL     1      14.561  -1.955  51.103  1.00  0.00    -0.083 Cl
HETATM   11  C10 UNL     1      18.502  -0.941  52.848  1.00  0.00     0.025 A 
HETATM   12  C11 UNL     1      19.280   0.279  52.681  1.00  0.00     0.011 A 
HETATM   13  C12 UNL     1      20.483   0.280  53.187  1.00  0.00     0.131 C 
HETATM   14  N1  UNL     1      21.716   0.889  53.457  1.00  0.00    -0.256 NA
HETATM   15  C13 UNL     1      22.686   0.779  52.553  1.00  0.00     0.202 C 
HETATM   16  N2  UNL     1      21.668   0.019  51.841  1.00  0.00    -0.376 N 
HETATM   17  C14 UNL     1      20.897   0.822  50.910  1.00  0.00     0.113 C 
HETATM   18  C17 UNL     1      20.625   2.185  51.463  1.00  0.00     0.013 C 
HETATM   19  C18 UNL     1      19.394   2.473  51.868  1.00  0.00     0.003 C 
HETATM   20  C19 UNL     1      18.671   1.404  52.007  1.00  0.00     0.069 A 
HETATM   21  N3  UNL     1      17.364   1.146  51.592  1.00  0.00    -0.305 N 
HETATM   22  H12 UNL     1      21.345  -0.991  51.817  1.00  0.00     0.161 HD
ENDROOT
BRANCH  21  23
HETATM   23  N4  UNL     1      16.713   2.202  50.904  1.00  0.00    -0.246 NA
HETATM   24  H17 UNL     1      16.199   2.826  51.593  1.00  0.00     0.143 HD
HETATM   25  H18 UNL     1      16.001   1.875  50.245  1.00  0.00     0.143 HD
ENDBRANCH  21  23
BRANCH  17  26
HETATM   26  C15 UNL     1      21.926   1.112  49.843  1.00  0.00     0.057 C 
HETATM   27  C16 UNL     1      21.627   1.386  48.589  1.00  0.00     0.421 C 
HETATM   28  F1  UNL     1      20.269   1.323  48.601  1.00  0.00    -0.455 F 
ENDBRANCH  17  26
TORSDOF 2
ENDMDL
MODEL 8
REMARK VINA RESULT:      -7.3      2.967      4.398
REMARK  2 active torsions:
REMARK  status: ('A' for Active; 'I' for Inactive)
REMARK    1  A    between atoms: C14_17  and  C15_18 
REMARK    2  A    between atoms: N3_24  and  N4_25 
ROOT
HETATM    1  C1  UNL     1      20.419   2.862  52.706  1.00  0.00     0.039 C 
HETATM    2  C2  UNL     1      21.329   3.084  51.473  1.00  0.00     0.132 A 
HETATM    3  C3  UNL     1      22.721   3.051  51.920  1.00  0.00    -0.021 A 
HETATM    4  C4  UNL     1      23.376   1.887  52.472  1.00  0.00    -0.006 A 
HETATM    5  C5  UNL     1      24.611   1.953  53.081  1.00  0.00     0.014 A 
HETATM    6  C6  UNL     1      25.305   0.896  53.592  1.00  0.00     0.001 A 
HETATM    7  C7  UNL     1      24.745  -0.384  53.508  1.00  0.00     0.002 A 
HETATM    8  C8  UNL     1      23.514  -0.520  52.912  1.00  0.00     0.024 A 
HETATM    9  C9  UNL     1      22.886   0.605  52.423  1.00  0.00     0.044 A 
HETATM   10 CL1  UNL     1      21.371   0.243  51.666  1.00  0.00    -0.083 Cl
HETATM   11  C10 UNL     1      23.415   4.166  51.841  1.00  0.00     0.025 A 
HETATM   12  C11 UNL     1      22.949   5.454  51.346  1.00  0.00     0.011 A 
HETATM   13  C12 UNL     1      23.800   6.442  51.390  1.00  0.00     0.131 C 
HETATM   14  N1  UNL     1      24.165   7.777  51.173  1.00  0.00    -0.256 NA
HETATM   15  C13 UNL     1      24.677   8.107  49.990  1.00  0.00     0.202 C 
HETATM   16  N2  UNL     1      24.473   6.689  49.726  1.00  0.00    -0.376 N 
HETATM   17  C14 UNL     1      23.202   6.399  49.090  1.00  0.00     0.113 C 
HETATM   18  C17 UNL     1      22.111   7.268  49.633  1.00  0.00     0.013 C 
HETATM   19  C18 UNL     1      21.203   6.723  50.434  1.00  0.00     0.003 C 
HETATM   20  C19 UNL     1      21.585   5.564  50.876  1.00  0.00     0.069 A 
HETATM   21  N3  UNL     1      20.881   4.363  50.967  1.00  0.00    -0.305 N 
HETATM   22  H12 UNL     1      25.029   5.797  49.870  1.00  0.00     0.161 HD
ENDROOT
BRANCH  21  23
HETATM   23  N4  UNL     1      19.540   4.395  50.501  1.00  0.00    -0.246 NA
HETATM   24  H17 UNL     1      19.069   3.461  50.678  1.00  0.00     0.143 HD
HETATM   25  H18 UNL     1      19.468   4.553  49.492  1.00  0.00     0.143 HD
ENDBRANCH  21  23
BRANCH  17  26
HETATM   26  C15 UNL     1      23.417   6.983  47.713  1.00  0.00     0.057 C 
HETATM   27  C16 UNL     1      23.043   6.390  46.597  1.00  0.00     0.421 C 
HETATM   28  F1  UNL     1      22.481   5.241  47.061  1.00  0.00    -0.455 F 
ENDBRANCH  17  26
TORSDOF 2
ENDMDL
MODEL 9
REMARK VINA RESULT:      -7.1      3.542      5.285
REMARK  2 active torsions:
REMARK  status: ('A' for Active; 'I' for Inactive)
REMARK    1  A    between atoms: C14_17  and  C15_18 
REMARK    2  A    between atoms: N3_24  and  N4_25 
ROOT
HETATM    1  C1  UNL     1      23.190   4.937  53.021  1.00  0.00     0.039 C 
HETATM    2  C2  UNL     1      23.266   4.823  51.478  1.00  0.00     0.132 A 
HETATM    3  C3  UNL     1      24.582   4.291  51.122  1.00  0.00    -0.021 A 
HETATM    4  C4  UNL     1      25.050   2.968  51.466  1.00  0.00    -0.006 A 
HETATM    5  C5  UNL     1      26.364   2.585  51.307  1.00  0.00     0.014 A 
HETATM    6  C6  UNL     1      26.872   1.347  51.574  1.00  0.00     0.001 A 
HETATM    7  C7  UNL     1      26.010   0.354  52.054  1.00  0.00     0.002 A 
HETATM    8  C8  UNL     1      24.684   0.670  52.234  1.00  0.00     0.024 A 
HETATM    9  C9  UNL     1      24.261   1.947  51.937  1.00  0.00     0.044 A 
HETATM   10 CL1  UNL     1      22.559   2.155  52.179  1.00  0.00    -0.083 Cl
HETATM   11  C10 UNL     1      25.406   5.084  50.472  1.00  0.00     0.025 A 
HETATM   12  C11 UNL     1      25.152   6.456  50.052  1.00  0.00     0.011 A 
HETATM   13  C12 UNL     1      26.129   7.073  49.445  1.00  0.00     0.131 C 
HETATM   14  N1  UNL     1      26.687   8.190  48.809  1.00  0.00    -0.256 NA
HETATM   15  C13 UNL     1      26.516   8.319  47.496  1.00  0.00     0.202 C 
HETATM   16  N2  UNL     1      25.787   7.069  47.666  1.00  0.00    -0.376 N 
HETATM   17  C14 UNL     1      24.363   7.257  47.866  1.00  0.00     0.113 C 
HETATM   18  C17 UNL     1      24.086   8.457  48.715  1.00  0.00     0.013 C 
HETATM   19  C18 UNL     1      23.672   8.270  49.963  1.00  0.00     0.003 C 
HETATM   20  C19 UNL     1      23.869   7.049  50.358  1.00  0.00     0.069 A 
HETATM   21  N3  UNL     1      23.018   6.180  51.041  1.00  0.00    -0.305 N 
HETATM   22  H12 UNL     1      26.031   6.037  47.670  1.00  0.00     0.161 HD
ENDROOT
BRANCH  21  23
HETATM   23  N4  UNL     1      21.732   6.692  51.355  1.00  0.00    -0.246 NA
HETATM   24  H17 UNL     1      21.775   7.269  52.245  1.00  0.00     0.143 HD
HETATM   25  H18 UNL     1      21.040   5.959  51.536  1.00  0.00     0.143 HD
ENDBRANCH  21  23
BRANCH  17  26
HETATM   26  C15 UNL     1      23.929   7.730  46.497  1.00  0.00     0.057 C 
HETATM   27  C16 UNL     1      23.032   7.111  45.756  1.00  0.00     0.421 C 
HETATM   28  F1  UNL     1      22.692   6.057  46.544  1.00  0.00    -0.455 F 
ENDBRANCH  17  26
TORSDOF 2
ENDMDL
