MODEL 1
REMARK VINA RESULT:      -9.1      0.000      0.000
REMARK  3 active torsions:
REMARK  status: ('A' for Active; 'I' for Inactive)
REMARK    1  A    between atoms: C3_4  and  C4_5 
REMARK    2  A    between atoms: C9_12  and  N4_13 
REMARK    3  A    between atoms: N4_13  and  C10_14 
ROOT
HETATM    1  C4  UNL     1      21.834   0.716  51.584  1.00  0.00    -0.022 A 
HETATM    2  C5  UNL     1      20.709   0.184  52.186  1.00  0.00     0.014 A 
HETATM    3  C6  UNL     1      20.799  -0.533  53.376  1.00  0.00     0.033 A 
HETATM    4  C7  UNL     1      22.033  -0.714  53.960  1.00  0.00     0.072 A 
HETATM    5  N2  UNL     1      22.092  -1.417  55.104  1.00  0.00    -0.241 NA
HETATM    6  C8  UNL     1      23.325  -1.580  55.643  1.00  0.00     0.236 A 
HETATM    7  N3  UNL     1      24.491  -1.098  55.129  1.00  0.00    -0.224 NA
HETATM    8  C9  UNL     1      24.436  -0.390  53.977  1.00  0.00     0.142 A 
HETATM    9  C16 UNL     1      23.185  -0.195  53.385  1.00  0.00     0.040 A 
HETATM   10  C17 UNL     1      23.076   0.514  52.204  1.00  0.00     0.030 A 
ENDROOT
BRANCH   8  11
HETATM   11  N4  UNL     1      25.541   0.176  53.271  1.00  0.00    -0.340 N 
HETATM   12  H8  UNL     1      25.311   0.920  52.575  1.00  0.00     0.167 HD
BRANCH  11  13
HETATM   13  C10 UNL     1      26.888  -0.221  53.476  1.00  0.00     0.033 A 
HETATM   14  C11 UNL     1      27.703   0.543  54.288  1.00  0.00     0.032 A 
HETATM   15  C12 UNL     1      29.023   0.149  54.486  1.00  0.00     0.044 A 
HETATM   16  C13 UNL     1      29.532  -0.992  53.885  1.00  0.00     0.116 A 
HETATM   17  F1  UNL     1      30.796  -1.379  54.070  1.00  0.00    -0.206 F 
HETATM   18  C14 UNL     1      28.684  -1.741  53.071  1.00  0.00     0.044 A 
HETATM   19  C15 UNL     1      27.375  -1.358  52.869  1.00  0.00     0.032 A 
ENDBRANCH  11  13
ENDBRANCH   8  11
BRANCH   1  20
HETATM   20  C3  UNL     1      21.819   1.452  50.311  1.00  0.00     0.010 A 
HETATM   21  C2  UNL     1      22.362   2.679  49.951  1.00  0.00     0.125 A 
HETATM   22  N1  UNL     1      22.058   2.842  48.647  1.00  0.00    -0.285 N 
HETATM   23  C1  UNL     1      22.490   4.053  47.970  1.00  0.00     0.179 C 
HETATM   24  N5  UNL     1      21.371   1.804  48.190  1.00  0.00    -0.185 NA
HETATM   25  C18 UNL     1      21.193   0.904  49.183  1.00  0.00     0.152 A 
ENDBRANCH   1  20
TORSDOF 3
ENDMDL
MODEL 2
REMARK VINA RESULT:      -8.9      2.036      4.469
REMARK  3 active torsions:
REMARK  status: ('A' for Active; 'I' for Inactive)
REMARK    1  A    between atoms: C3_4  and  C4_5 
REMARK    2  A    between atoms: C9_12  and  N4_13 
REMARK    3  A    between atoms: N4_13  and  C10_14 
ROOT
HETATM    1  C4  UNL     1      22.447   1.356  51.429  1.00  0.00    -0.022 A 
HETATM    2  C5  UNL     1      22.114   1.995  50.249  1.00  0.00     0.014 A 
HETATM    3  C6  UNL     1      23.059   2.724  49.534  1.00  0.00     0.033 A 
HETATM    4  C7  UNL     1      24.347   2.810  50.014  1.00  0.00     0.072 A 
HETATM    5  N2  UNL     1      25.237   3.527  49.308  1.00  0.00    -0.241 NA
HETATM    6  C8  UNL     1      26.491   3.594  49.817  1.00  0.00     0.236 A 
HETATM    7  N3  UNL     1      26.917   3.003  50.969  1.00  0.00    -0.224 NA
HETATM    8  C9  UNL     1      26.025   2.280  51.683  1.00  0.00     0.142 A 
HETATM    9  C16 UNL     1      24.718   2.182  51.196  1.00  0.00     0.040 A 
HETATM   10  C17 UNL     1      23.766   1.462  51.892  1.00  0.00     0.030 A 
ENDROOT
BRANCH   8  11
HETATM   11  N4  UNL     1      26.267   1.607  52.919  1.00  0.00    -0.340 N 
HETATM   12  H8  UNL     1      25.779   1.994  53.758  1.00  0.00     0.167 HD
BRANCH  11  13
HETATM   13  C10 UNL     1      27.112   0.473  53.042  1.00  0.00     0.033 A 
HETATM   14  C11 UNL     1      28.382   0.629  53.559  1.00  0.00     0.032 A 
HETATM   15  C12 UNL     1      29.207  -0.486  53.678  1.00  0.00     0.044 A 
HETATM   16  C13 UNL     1      28.777  -1.745  53.288  1.00  0.00     0.116 A 
HETATM   17  F1  UNL     1      29.559  -2.821  53.399  1.00  0.00    -0.206 F 
HETATM   18  C14 UNL     1      27.489  -1.869  52.769  1.00  0.00     0.044 A 
HETATM   19  C15 UNL     1      26.665  -0.769  52.648  1.00  0.00     0.032 A 
ENDBRANCH  11  13
ENDBRANCH   8  11
BRANCH   1  20
HETATM   20  C3  UNL     1      21.494   0.599  52.255  1.00  0.00     0.010 A 
HETATM   21  C2  UNL     1      20.172   0.233  52.034  1.00  0.00     0.125 A 
HETATM   22  N1  UNL     1      19.803  -0.473  53.122  1.00  0.00    -0.285 N 
HETATM   23  C1  UNL     1      18.450  -0.998  53.195  1.00  0.00     0.179 C 
HETATM   24  N5  UNL     1      20.803  -0.560  53.988  1.00  0.00    -0.185 NA
HETATM   25  C18 UNL     1      21.885   0.088  53.501  1.00  0.00     0.152 A 
ENDBRANCH   1  20
TORSDOF 3
ENDMDL
MODEL 3
REMARK VINA RESULT:      -8.9      3.015      4.043
REMARK  3 active torsions:
REMARK  status: ('A' for Active; 'I' for Inactive)
REMARK    1  A    between atoms: C3_4  and  C4_5 
REMARK    2  A    between atoms: C9_12  and  N4_13 
REMARK    3  A    between atoms: N4_13  and  C10_14 
ROOT
HETATM    1  C4  UNL     1      24.830   3.560  49.795  1.00  0.00    -0.022 A 
HETATM    2  C5  UNL     1      23.675   3.204  49.123  1.00  0.00     0.014 A 
HETATM    3  C6  UNL     1      22.781   2.284  49.664  1.00  0.00     0.033 A 
HETATM    4  C7  UNL     1      23.057   1.720  50.889  1.00  0.00     0.072 A 
HETATM    5  N2  UNL     1      22.181   0.829  51.384  1.00  0.00    -0.241 NA
HETATM    6  C8  UNL     1      22.492   0.290  52.588  1.00  0.00     0.236 A 
HETATM    7  N3  UNL     1      23.601   0.572  53.326  1.00  0.00    -0.224 NA
HETATM    8  C9  UNL     1      24.485   1.468  52.832  1.00  0.00     0.142 A 
HETATM    9  C16 UNL     1      24.207   2.052  51.593  1.00  0.00     0.040 A 
HETATM   10  C17 UNL     1      25.081   2.968  51.040  1.00  0.00     0.030 A 
ENDROOT
BRANCH   8  11
HETATM   11  N4  UNL     1      25.712   1.880  53.438  1.00  0.00    -0.340 N 
HETATM   12  H8  UNL     1      25.713   2.827  53.879  1.00  0.00     0.167 HD
BRANCH  11  13
HETATM   13  C10 UNL     1      26.881   1.076  53.464  1.00  0.00     0.033 A 
HETATM   14  C11 UNL     1      28.075   1.630  53.883  1.00  0.00     0.032 A 
HETATM   15  C12 UNL     1      29.219   0.838  53.907  1.00  0.00     0.044 A 
HETATM   16  C13 UNL     1      29.181  -0.493  53.519  1.00  0.00     0.116 A 
HETATM   17  F1  UNL     1      30.272  -1.262  53.539  1.00  0.00    -0.206 F 
HETATM   18  C14 UNL     1      27.961  -1.022  53.101  1.00  0.00     0.044 A 
HETATM   19  C15 UNL     1      26.823  -0.244  53.074  1.00  0.00     0.032 A 
ENDBRANCH  11  13
ENDBRANCH   8  11
BRANCH   1  20
HETATM   20  C3  UNL     1      25.835   4.496  49.269  1.00  0.00     0.010 A 
HETATM   21  C2  UNL     1      27.197   4.348  49.034  1.00  0.00     0.125 A 
HETATM   22  N1  UNL     1      27.608   5.526  48.525  1.00  0.00    -0.285 N 
HETATM   23  C1  UNL     1      29.009   5.692  48.176  1.00  0.00     0.179 C 
HETATM   24  N5  UNL     1      26.597   6.379  48.435  1.00  0.00    -0.185 NA
HETATM   25  C18 UNL     1      25.465   5.792  48.884  1.00  0.00     0.152 A 
ENDBRANCH   1  20
TORSDOF 3
ENDMDL
MODEL 4
REMARK VINA RESULT:      -8.7      3.552      6.782
REMARK  3 active torsions:
REMARK  status: ('A' for Active; 'I' for Inactive)
REMARK    1  A    between atoms: C3_4  and  C4_5 
REMARK    2  A    between atoms: C9_12  and  N4_13 
REMARK    3  A    between atoms: N4_13  and  C10_14 
ROOT
HETATM    1  C4  UNL     1      24.725   0.315  53.320  1.00  0.00    -0.022 A 
HETATM    2  C5  UNL     1      23.661  -0.568  53.355  1.00  0.00     0.014 A 
HETATM    3  C6  UNL     1      22.371  -0.156  53.037  1.00  0.00     0.033 A 
HETATM    4  C7  UNL     1      22.153   1.157  52.681  1.00  0.00     0.072 A 
HETATM    5  N2  UNL     1      20.897   1.530  52.386  1.00  0.00    -0.241 NA
HETATM    6  C8  UNL     1      20.722   2.831  52.048  1.00  0.00     0.236 A 
HETATM    7  N3  UNL     1      21.701   3.777  51.984  1.00  0.00    -0.224 NA
HETATM    8  C9  UNL     1      22.967   3.405  52.281  1.00  0.00     0.142 A 
HETATM    9  C16 UNL     1      23.196   2.073  52.634  1.00  0.00     0.040 A 
HETATM   10  C17 UNL     1      24.470   1.644  52.953  1.00  0.00     0.030 A 
ENDROOT
BRANCH   8  11
HETATM   11  N4  UNL     1      24.121   4.247  52.295  1.00  0.00    -0.340 N 
HETATM   12  H8  UNL     1      24.582   4.382  53.222  1.00  0.00     0.167 HD
BRANCH  11  13
HETATM   13  C10 UNL     1      24.645   4.879  51.136  1.00  0.00     0.033 A 
HETATM   14  C11 UNL     1      25.465   4.163  50.287  1.00  0.00     0.032 A 
HETATM   15  C12 UNL     1      25.975   4.786  49.152  1.00  0.00     0.044 A 
HETATM   16  C13 UNL     1      25.675   6.108  48.860  1.00  0.00     0.116 A 
HETATM   17  F1  UNL     1      26.158   6.715  47.774  1.00  0.00    -0.206 F 
HETATM   18  C14 UNL     1      24.845   6.803  49.738  1.00  0.00     0.044 A 
HETATM   19  C15 UNL     1      24.335   6.193  50.865  1.00  0.00     0.032 A 
ENDBRANCH  11  13
ENDBRANCH   8  11
BRANCH   1  20
HETATM   20  C3  UNL     1      26.106  -0.041  53.678  1.00  0.00     0.010 A 
HETATM   21  C2  UNL     1      27.123  -0.639  52.944  1.00  0.00     0.125 A 
HETATM   22  N1  UNL     1      28.184  -0.699  53.773  1.00  0.00    -0.285 N 
HETATM   23  C1  UNL     1      29.422  -1.288  53.292  1.00  0.00     0.179 C 
HETATM   24  N5  UNL     1      27.885  -0.182  54.957  1.00  0.00    -0.185 NA
HETATM   25  C18 UNL     1      26.603   0.246  54.957  1.00  0.00     0.152 A 
ENDBRANCH   1  20
TORSDOF 3
ENDMDL
MODEL 5
REMARK VINA RESULT:      -8.5      2.825      6.265
REMARK  3 active torsions:
REMARK  status: ('A' for Active; 'I' for Inactive)
REMARK    1  A    between atoms: C3_4  and  C4_5 
REMARK    2  A    between atoms: C9_12  and  N4_13 
REMARK    3  A    between atoms: N4_13  and  C10_14 
ROOT
HETATM    1  C4  UNL     1      24.039  -0.535  53.847  1.00  0.00    -0.022 A 
HETATM    2  C5  UNL     1      23.260  -1.132  54.821  1.00  0.00     0.014 A 
HETATM    3  C6  UNL     1      21.870  -1.121  54.739  1.00  0.00     0.033 A 
HETATM    4  C7  UNL     1      21.265  -0.503  53.668  1.00  0.00     0.072 A 
HETATM    5  N2  UNL     1      19.922  -0.500  53.618  1.00  0.00    -0.241 NA
HETATM    6  C8  UNL     1      19.364   0.126  52.553  1.00  0.00     0.236 A 
HETATM    7  N3  UNL     1      20.042   0.743  51.545  1.00  0.00    -0.224 NA
HETATM    8  C9  UNL     1      21.394   0.743  51.591  1.00  0.00     0.142 A 
HETATM    9  C16 UNL     1      22.014   0.108  52.671  1.00  0.00     0.040 A 
HETATM   10  C17 UNL     1      23.392   0.087  52.769  1.00  0.00     0.030 A 
ENDROOT
BRANCH   8  11
HETATM   11  N4  UNL     1      22.279   1.351  50.650  1.00  0.00    -0.340 N 
HETATM   12  H8  UNL     1      22.503   0.790  49.798  1.00  0.00     0.167 HD
BRANCH  11  13
HETATM   13  C10 UNL     1      22.842   2.643  50.824  1.00  0.00     0.033 A 
HETATM   14  C11 UNL     1      24.073   2.926  50.268  1.00  0.00     0.032 A 
HETATM   15  C12 UNL     1      24.620   4.194  50.442  1.00  0.00     0.044 A 
HETATM   16  C13 UNL     1      23.953   5.174  51.160  1.00  0.00     0.116 A 
HETATM   17  F1  UNL     1      24.468   6.393  51.332  1.00  0.00    -0.206 F 
HETATM   18  C14 UNL     1      22.711   4.856  51.709  1.00  0.00     0.044 A 
HETATM   19  C15 UNL     1      22.162   3.602  51.542  1.00  0.00     0.032 A 
ENDBRANCH  11  13
ENDBRANCH   8  11
BRANCH   1  20
HETATM   20  C3  UNL     1      25.508  -0.475  53.887  1.00  0.00     0.010 A 
HETATM   21  C2  UNL     1      26.378   0.297  54.646  1.00  0.00     0.125 A 
HETATM   22  N1  UNL     1      27.618  -0.087  54.281  1.00  0.00    -0.285 N 
HETATM   23  C1  UNL     1      28.765   0.552  54.904  1.00  0.00     0.179 C 
HETATM   24  N5  UNL     1      27.564  -1.034  53.355  1.00  0.00    -0.185 NA
HETATM   25  C18 UNL     1      26.273  -1.319  53.069  1.00  0.00     0.152 A 
ENDBRANCH   1  20
TORSDOF 3
ENDMDL
MODEL 6
REMARK VINA RESULT:      -8.3      3.532      6.229
REMARK  3 active torsions:
REMARK  status: ('A' for Active; 'I' for Inactive)
REMARK    1  A    between atoms: C3_4  and  C4_5 
REMARK    2  A    between atoms: C9_12  and  N4_13 
REMARK    3  A    between atoms: N4_13  and  C10_14 
ROOT
HETATM    1  C4  UNL     1      23.728  -0.195  53.861  1.00  0.00    -0.022 A 
HETATM    2  C5  UNL     1      24.572  -0.763  54.799  1.00  0.00     0.014 A 
HETATM    3  C6  UNL     1      25.925  -0.440  54.838  1.00  0.00     0.033 A 
HETATM    4  C7  UNL     1      26.429   0.459  53.926  1.00  0.00     0.072 A 
HETATM    5  N2  UNL     1      27.741   0.747  53.981  1.00  0.00    -0.241 NA
HETATM    6  C8  UNL     1      28.200   1.630  53.061  1.00  0.00     0.236 A 
HETATM    7  N3  UNL     1      27.453   2.241  52.100  1.00  0.00    -0.224 NA
HETATM    8  C9  UNL     1      26.132   1.955  52.040  1.00  0.00     0.142 A 
HETATM    9  C16 UNL     1      25.613   1.049  52.969  1.00  0.00     0.040 A 
HETATM   10  C17 UNL     1      24.272   0.717  52.946  1.00  0.00     0.030 A 
ENDROOT
BRANCH   8  11
HETATM   11  N4  UNL     1      25.190   2.469  51.098  1.00  0.00    -0.340 N 
HETATM   12  H8  UNL     1      24.801   1.783  50.413  1.00  0.00     0.167 HD
BRANCH  11  13
HETATM   13  C10 UNL     1      24.779   3.828  51.063  1.00  0.00     0.033 A 
HETATM   14  C11 UNL     1      25.372   4.692  50.165  1.00  0.00     0.032 A 
HETATM   15  C12 UNL     1      24.965   6.023  50.134  1.00  0.00     0.044 A 
HETATM   16  C13 UNL     1      23.978   6.493  50.986  1.00  0.00     0.116 A 
HETATM   17  F1  UNL     1      23.579   7.767  50.964  1.00  0.00    -0.206 F 
HETATM   18  C14 UNL     1      23.399   5.596  51.882  1.00  0.00     0.044 A 
HETATM   19  C15 UNL     1      23.797   4.275  51.919  1.00  0.00     0.032 A 
ENDBRANCH  11  13
ENDBRANCH   8  11
BRANCH   1  20
HETATM   20  C3  UNL     1      22.299  -0.515  53.737  1.00  0.00     0.010 A 
HETATM   21  C2  UNL     1      21.288   0.063  52.979  1.00  0.00     0.125 A 
HETATM   22  N1  UNL     1      20.178  -0.656  53.242  1.00  0.00    -0.285 N 
HETATM   23  C1  UNL     1      18.931  -0.288  52.595  1.00  0.00     0.179 C 
HETATM   24  N5  UNL     1      20.441  -1.628  54.106  1.00  0.00    -0.185 NA
HETATM   25  C18 UNL     1      21.748  -1.590  54.449  1.00  0.00     0.152 A 
ENDBRANCH   1  20
TORSDOF 3
ENDMDL
MODEL 7
REMARK VINA RESULT:      -8.3      3.355      5.420
REMARK  3 active torsions:
REMARK  status: ('A' for Active; 'I' for Inactive)
REMARK    1  A    between atoms: C3_4  and  C4_5 
REMARK    2  A    between atoms: C9_12  and  N4_13 
REMARK    3  A    between atoms: N4_13  and  C10_14 
ROOT
HETATM    1  C4  UNL     1      21.381  -0.597  53.631  1.00  0.00    -0.022 A 
HETATM    2  C5  UNL     1      21.717  -1.343  54.746  1.00  0.00     0.014 A 
HETATM    3  C6  UNL     1      23.031  -1.410  55.199  1.00  0.00     0.033 A 
HETATM    4  C7  UNL     1      24.011  -0.720  54.521  1.00  0.00     0.072 A 
HETATM    5  N2  UNL     1      25.273  -0.808  54.975  1.00  0.00    -0.241 NA
HETATM    6  C8  UNL     1      26.210  -0.121  54.276  1.00  0.00     0.236 A 
HETATM    7  N3  UNL     1      25.982   0.639  53.169  1.00  0.00    -0.224 NA
HETATM    8  C9  UNL     1      24.713   0.730  52.708  1.00  0.00     0.142 A 
HETATM    9  C16 UNL     1      23.712   0.039  53.397  1.00  0.00     0.040 A 
HETATM   10  C17 UNL     1      22.401   0.094  52.963  1.00  0.00     0.030 A 
ENDROOT
BRANCH   8  11
HETATM   11  N4  UNL     1      24.274   1.453  51.557  1.00  0.00    -0.340 N 
HETATM   12  H8  UNL     1      23.990   0.878  50.733  1.00  0.00     0.167 HD
BRANCH  11  13
HETATM   13  C10 UNL     1      24.210   2.870  51.499  1.00  0.00     0.033 A 
HETATM   14  C11 UNL     1      23.510   3.557  52.471  1.00  0.00     0.032 A 
HETATM   15  C12 UNL     1      23.451   4.946  52.409  1.00  0.00     0.044 A 
HETATM   16  C13 UNL     1      24.080   5.649  51.393  1.00  0.00     0.116 A 
HETATM   17  F1  UNL     1      24.031   6.981  51.326  1.00  0.00    -0.206 F 
HETATM   18  C14 UNL     1      24.778   4.926  50.427  1.00  0.00     0.044 A 
HETATM   19  C15 UNL     1      24.842   3.549  50.480  1.00  0.00     0.032 A 
ENDBRANCH  11  13
ENDBRANCH   8  11
BRANCH   1  20
HETATM   20  C3  UNL     1      20.022  -0.510  53.075  1.00  0.00     0.010 A 
HETATM   21  C2  UNL     1      18.835  -1.132  53.443  1.00  0.00     0.125 A 
HETATM   22  N1  UNL     1      17.899  -0.660  52.595  1.00  0.00    -0.285 N 
HETATM   23  C1  UNL     1      16.531  -1.134  52.721  1.00  0.00     0.179 C 
HETATM   24  N5  UNL     1      18.431   0.202  51.739  1.00  0.00    -0.185 NA
HETATM   25  C18 UNL     1      19.752   0.337  51.991  1.00  0.00     0.152 A 
ENDBRANCH   1  20
TORSDOF 3
ENDMDL
MODEL 8
REMARK VINA RESULT:      -8.3      2.241      2.935
REMARK  3 active torsions:
REMARK  status: ('A' for Active; 'I' for Inactive)
REMARK    1  A    between atoms: C3_4  and  C4_5 
REMARK    2  A    between atoms: C9_12  and  N4_13 
REMARK    3  A    between atoms: N4_13  and  C10_14 
ROOT
HETATM    1  C4  UNL     1      23.374   3.143  51.117  1.00  0.00    -0.022 A 
HETATM    2  C5  UNL     1      22.061   3.143  51.551  1.00  0.00     0.014 A 
HETATM    3  C6  UNL     1      21.592   2.169  52.428  1.00  0.00     0.033 A 
HETATM    4  C7  UNL     1      22.454   1.189  52.867  1.00  0.00     0.072 A 
HETATM    5  N2  UNL     1      21.973   0.256  53.706  1.00  0.00    -0.241 NA
HETATM    6  C8  UNL     1      22.849  -0.696  54.108  1.00  0.00     0.236 A 
HETATM    7  N3  UNL     1      24.157  -0.784  53.738  1.00  0.00    -0.224 NA
HETATM    8  C9  UNL     1      24.645   0.152  52.893  1.00  0.00     0.142 A 
HETATM    9  C16 UNL     1      23.779   1.155  52.452  1.00  0.00     0.040 A 
HETATM   10  C17 UNL     1      24.226   2.131  51.582  1.00  0.00     0.030 A 
ENDROOT
BRANCH   8  11
HETATM   11  N4  UNL     1      25.974   0.221  52.372  1.00  0.00    -0.340 N 
HETATM   12  H8  UNL     1      26.110  -0.154  51.407  1.00  0.00     0.167 HD
BRANCH  11  13
HETATM   13  C10 UNL     1      27.071   0.763  53.092  1.00  0.00     0.033 A 
HETATM   14  C11 UNL     1      27.670   0.008  54.081  1.00  0.00     0.032 A 
HETATM   15  C12 UNL     1      28.746   0.543  54.784  1.00  0.00     0.044 A 
HETATM   16  C13 UNL     1      29.224   1.815  54.510  1.00  0.00     0.116 A 
HETATM   17  F1  UNL     1      30.256   2.337  55.176  1.00  0.00    -0.206 F 
HETATM   18  C14 UNL     1      28.597   2.551  53.505  1.00  0.00     0.044 A 
HETATM   19  C15 UNL     1      27.530   2.029  52.804  1.00  0.00     0.032 A 
ENDBRANCH  11  13
ENDBRANCH   8  11
BRANCH   1  20
HETATM   20  C3  UNL     1      23.928   4.117  50.165  1.00  0.00     0.010 A 
HETATM   21  C2  UNL     1      25.187   4.698  50.070  1.00  0.00     0.125 A 
HETATM   22  N1  UNL     1      25.137   5.500  48.988  1.00  0.00    -0.285 N 
HETATM   23  C1  UNL     1      26.318   6.264  48.622  1.00  0.00     0.179 C 
HETATM   24  N5  UNL     1      23.940   5.449  48.419  1.00  0.00    -0.185 NA
HETATM   25  C18 UNL     1      23.144   4.602  49.109  1.00  0.00     0.152 A 
ENDBRANCH   1  20
TORSDOF 3
ENDMDL
MODEL 9
REMARK VINA RESULT:      -8.1      4.882      6.999
REMARK  3 active torsions:
REMARK  status: ('A' for Active; 'I' for Inactive)
REMARK    1  A    between atoms: C3_4  and  C4_5 
REMARK    2  A    between atoms: C9_12  and  N4_13 
REMARK    3  A    between atoms: N4_13  and  C10_14 
ROOT
HETATM    1  C4  UNL     1      27.109   5.888  48.481  1.00  0.00    -0.022 A 
HETATM    2  C5  UNL     1      26.023   6.700  48.208  1.00  0.00     0.014 A 
HETATM    3  C6  UNL     1      24.739   6.342  48.606  1.00  0.00     0.033 A 
HETATM    4  C7  UNL     1      24.549   5.158  49.283  1.00  0.00     0.072 A 
HETATM    5  N2  UNL     1      23.297   4.833  49.648  1.00  0.00    -0.241 NA
HETATM    6  C8  UNL     1      23.152   3.656  50.304  1.00  0.00     0.236 A 
HETATM    7  N3  UNL     1      24.154   2.789  50.619  1.00  0.00    -0.224 NA
HETATM    8  C9  UNL     1      25.415   3.111  50.253  1.00  0.00     0.142 A 
HETATM    9  C16 UNL     1      25.615   4.317  49.574  1.00  0.00     0.040 A 
HETATM   10  C17 UNL     1      26.883   4.689  49.172  1.00  0.00     0.030 A 
ENDROOT
BRANCH   8  11
HETATM   11  N4  UNL     1      26.592   2.330  50.468  1.00  0.00    -0.340 N 
HETATM   12  H8  UNL     1      27.245   2.247  49.657  1.00  0.00     0.167 HD
BRANCH  11  13
HETATM   13  C10 UNL     1      26.893   1.690  51.699  1.00  0.00     0.033 A 
HETATM   14  C11 UNL     1      26.448   0.402  51.919  1.00  0.00     0.032 A 
HETATM   15  C12 UNL     1      26.747  -0.222  53.127  1.00  0.00     0.044 A 
HETATM   16  C13 UNL     1      27.480   0.426  54.110  1.00  0.00     0.116 A 
HETATM   17  F1  UNL     1      27.773  -0.163  55.271  1.00  0.00    -0.206 F 
HETATM   18  C14 UNL     1      27.915   1.726  53.857  1.00  0.00     0.044 A 
HETATM   19  C15 UNL     1      27.623   2.351  52.662  1.00  0.00     0.032 A 
ENDBRANCH  11  13
ENDBRANCH   8  11
BRANCH   1  20
HETATM   20  C3  UNL     1      28.487   6.183  48.061  1.00  0.00     0.010 A 
HETATM   21  C2  UNL     1      29.641   5.410  48.078  1.00  0.00     0.125 A 
HETATM   22  N1  UNL     1      30.608   6.187  47.550  1.00  0.00    -0.285 N 
HETATM   23  C1  UNL     1      31.955   5.654  47.436  1.00  0.00     0.179 C 
HETATM   24  N5  UNL     1      30.126   7.376  47.215  1.00  0.00    -0.185 NA
HETATM   25  C18 UNL     1      28.808   7.432  47.509  1.00  0.00     0.152 A 
ENDBRANCH   1  20
TORSDOF 3
ENDMDL
