MODEL 1
REMARK VINA RESULT:      -8.0      0.000      0.000
REMARK  6 active torsions:
REMARK  status: ('A' for Active; 'I' for Inactive)
REMARK    1  A    between atoms: C2_2  and  N5_20 
REMARK    2  A    between atoms: C3_3  and  C4_4 
REMARK    3  A    between atoms: C5_5  and  C6_6 
REMARK    4  A    between atoms: C6_6  and  N1_7 
REMARK    5  A    between atoms: N1_7  and  C7_8 
REMARK    6  A    between atoms: C10_12  and  C11_13 
ROOT
HETATM    1  N1  UNL     1      20.392  -0.211  54.308  1.00  0.00    -0.219 N 
HETATM    2  H9  UNL     1      20.133   0.397  55.088  1.00  0.00     0.178 HD
ENDROOT
BRANCH   1   3
HETATM    3  C6  UNL     1      21.282  -1.360  54.441  1.00  0.00     0.165 C 
BRANCH   3   4
HETATM    4  C5  UNL     1      22.699  -0.988  54.557  1.00  0.00    -0.007 C 
HETATM    5  C4  UNL     1      23.493  -0.854  53.484  1.00  0.00    -0.001 C 
BRANCH   5   6
HETATM    6  C3  UNL     1      24.905  -0.494  53.442  1.00  0.00     0.024 C 
HETATM    7  C2  UNL     1      25.405   0.527  52.766  1.00  0.00     0.007 C 
HETATM    8  C1  UNL     1      24.417   1.329  52.013  1.00  0.00     0.068 C 
BRANCH   7   9
HETATM    9  N5  UNL     1      26.808   0.713  52.852  1.00  0.00    -0.361 N 
HETATM   10  C16 UNL     1      27.408   2.015  52.746  1.00  0.00     0.087 C 
HETATM   11  C17 UNL     1      28.474   2.272  53.522  1.00  0.00    -0.009 C 
HETATM   12  C18 UNL     1      28.843   1.130  54.366  1.00  0.00     0.030 C 
HETATM   13  C19 UNL     1      28.987  -0.119  53.505  1.00  0.00     0.024 C 
HETATM   14  C20 UNL     1      27.593  -0.490  53.053  1.00  0.00     0.128 C 
ENDBRANCH   7   9
ENDBRANCH   5   6
ENDBRANCH   3   4
ENDBRANCH   1   3
BRANCH   1  15
HETATM   15  C7  UNL     1      19.889   0.024  52.992  1.00  0.00     0.723 A 
HETATM   16  N2  UNL     1      18.660  -0.426  52.648  1.00  0.00    -0.075 NA
HETATM   17  C8  UNL     1      18.161  -0.214  51.402  1.00  0.00     0.139 A 
HETATM   18  C9  UNL     1      18.986   0.481  50.526  1.00  0.00     0.053 A 
HETATM   19  C10 UNL     1      20.240   0.947  50.857  1.00  0.00     0.089 A 
HETATM   20  N4  UNL     1      20.649   0.693  52.107  1.00  0.00    -0.062 NA
BRANCH  19  21
HETATM   21  C11 UNL     1      21.085   1.675  49.917  1.00  0.00     0.011 A 
HETATM   22  C12 UNL     1      21.515   1.196  48.698  1.00  0.00     0.017 A 
HETATM   23  C13 UNL     1      22.314   1.926  47.846  1.00  0.00     0.020 A 
HETATM   24  C14 UNL     1      22.685   3.189  48.251  1.00  0.00     0.116 A 
HETATM   25  N3  UNL     1      22.285   3.696  49.437  1.00  0.00    -0.272 NA
HETATM   26  C15 UNL     1      21.500   2.940  50.241  1.00  0.00     0.130 A 
ENDBRANCH  19  21
ENDBRANCH   1  15
TORSDOF 6
ENDMDL
MODEL 2
REMARK VINA RESULT:      -7.9      4.843      7.775
REMARK  6 active torsions:
REMARK  status: ('A' for Active; 'I' for Inactive)
REMARK    1  A    between atoms: C2_2  and  N5_20 
REMARK    2  A    between atoms: C3_3  and  C4_4 
REMARK    3  A    between atoms: C5_5  and  C6_6 
REMARK    4  A    between atoms: C6_6  and  N1_7 
REMARK    5  A    between atoms: N1_7  and  C7_8 
REMARK    6  A    between atoms: C10_12  and  C11_13 
ROOT
HETATM    1  N1  UNL     1      24.882   3.449  52.041  1.00  0.00    -0.219 N 
HETATM    2  H9  UNL     1      24.988   4.224  52.699  1.00  0.00     0.178 HD
ENDROOT
BRANCH   1   3
HETATM    3  C6  UNL     1      24.833   3.621  50.593  1.00  0.00     0.165 C 
BRANCH   3   4
HETATM    4  C5  UNL     1      26.158   3.796  49.982  1.00  0.00    -0.007 C 
HETATM    5  C4  UNL     1      26.450   4.841  49.193  1.00  0.00    -0.001 C 
BRANCH   5   6
HETATM    6  C3  UNL     1      27.707   5.147  48.523  1.00  0.00     0.024 C 
HETATM    7  C2  UNL     1      28.166   6.366  48.293  1.00  0.00     0.007 C 
HETATM    8  C1  UNL     1      27.299   7.465  48.771  1.00  0.00     0.068 C 
BRANCH   7   9
HETATM    9  N5  UNL     1      29.413   6.455  47.625  1.00  0.00    -0.361 N 
HETATM   10  C16 UNL     1      29.714   7.532  46.722  1.00  0.00     0.087 C 
HETATM   11  C17 UNL     1      30.970   8.008  46.721  1.00  0.00    -0.009 C 
HETATM   12  C18 UNL     1      31.836   7.312  47.679  1.00  0.00     0.030 C 
HETATM   13  C19 UNL     1      31.741   5.807  47.457  1.00  0.00     0.024 C 
HETATM   14  C20 UNL     1      30.359   5.394  47.912  1.00  0.00     0.128 C 
ENDBRANCH   7   9
ENDBRANCH   5   6
ENDBRANCH   3   4
ENDBRANCH   1   3
BRANCH   1  15
HETATM   15  C7  UNL     1      24.770   2.101  52.501  1.00  0.00     0.723 A 
HETATM   16  N2  UNL     1      23.557   1.599  52.831  1.00  0.00    -0.075 NA
HETATM   17  C8  UNL     1      23.426   0.320  53.271  1.00  0.00     0.139 A 
HETATM   18  C9  UNL     1      24.600  -0.418  53.356  1.00  0.00     0.053 A 
HETATM   19  C10 UNL     1      25.844   0.075  53.025  1.00  0.00     0.089 A 
HETATM   20  N4  UNL     1      25.878   1.345  52.600  1.00  0.00    -0.062 NA
BRANCH  19  21
HETATM   21  C11 UNL     1      27.061  -0.723  53.123  1.00  0.00     0.011 A 
HETATM   22  C12 UNL     1      28.283  -0.258  53.561  1.00  0.00     0.017 A 
HETATM   23  C13 UNL     1      29.404  -1.055  53.635  1.00  0.00     0.020 A 
HETATM   24  C14 UNL     1      29.274  -2.371  53.250  1.00  0.00     0.116 A 
HETATM   25  N3  UNL     1      28.095  -2.865  52.814  1.00  0.00    -0.272 NA
HETATM   26  C15 UNL     1      27.021  -2.043  52.759  1.00  0.00     0.130 A 
ENDBRANCH  19  21
ENDBRANCH   1  15
TORSDOF 6
ENDMDL
MODEL 3
REMARK VINA RESULT:      -7.8      5.067      7.961
REMARK  6 active torsions:
REMARK  status: ('A' for Active; 'I' for Inactive)
REMARK    1  A    between atoms: C2_2  and  N5_20 
REMARK    2  A    between atoms: C3_3  and  C4_4 
REMARK    3  A    between atoms: C5_5  and  C6_6 
REMARK    4  A    between atoms: C6_6  and  N1_7 
REMARK    5  A    between atoms: N1_7  and  C7_8 
REMARK    6  A    between atoms: C10_12  and  C11_13 
ROOT
HETATM    1  N1  UNL     1      25.199   3.929  51.184  1.00  0.00    -0.219 N 
HETATM    2  H9  UNL     1      25.198   4.787  51.740  1.00  0.00     0.178 HD
ENDROOT
BRANCH   1   3
HETATM    3  C6  UNL     1      25.413   3.904  49.740  1.00  0.00     0.165 C 
BRANCH   3   4
HETATM    4  C5  UNL     1      26.831   3.983  49.361  1.00  0.00    -0.007 C 
HETATM    5  C4  UNL     1      27.340   5.043  48.715  1.00  0.00    -0.001 C 
BRANCH   5   6
HETATM    6  C3  UNL     1      28.713   5.262  48.277  1.00  0.00     0.024 C 
HETATM    7  C2  UNL     1      29.266   6.449  48.090  1.00  0.00     0.007 C 
HETATM    8  C1  UNL     1      28.384   7.605  48.358  1.00  0.00     0.068 C 
BRANCH   7   9
HETATM    9  N5  UNL     1      30.618   6.453  47.661  1.00  0.00    -0.361 N 
HETATM   10  C16 UNL     1      31.282   7.664  47.261  1.00  0.00     0.087 C 
HETATM   11  C17 UNL     1      32.577   7.798  47.589  1.00  0.00    -0.009 C 
HETATM   12  C18 UNL     1      33.094   6.637  48.324  1.00  0.00     0.030 C 
HETATM   13  C19 UNL     1      32.777   5.361  47.554  1.00  0.00     0.024 C 
HETATM   14  C20 UNL     1      31.281   5.164  47.651  1.00  0.00     0.128 C 
ENDBRANCH   7   9
ENDBRANCH   5   6
ENDBRANCH   3   4
ENDBRANCH   1   3
BRANCH   1  15
HETATM   15  C7  UNL     1      24.983   2.655  51.793  1.00  0.00     0.723 A 
HETATM   16  N2  UNL     1      23.727   2.262  52.108  1.00  0.00    -0.075 NA
HETATM   17  C8  UNL     1      23.497   1.054  52.687  1.00  0.00     0.139 A 
HETATM   18  C9  UNL     1      24.620   0.271  52.928  1.00  0.00     0.053 A 
HETATM   19  C10 UNL     1      25.906   0.654  52.615  1.00  0.00     0.089 A 
HETATM   20  N4  UNL     1      26.037   1.860  52.046  1.00  0.00    -0.062 NA
BRANCH  19  21
HETATM   21  C11 UNL     1      27.067  -0.189  52.878  1.00  0.00     0.011 A 
HETATM   22  C12 UNL     1      28.313   0.268  53.252  1.00  0.00     0.017 A 
HETATM   23  C13 UNL     1      29.378  -0.572  53.489  1.00  0.00     0.020 A 
HETATM   24  C14 UNL     1      29.165  -1.925  53.342  1.00  0.00     0.116 A 
HETATM   25  N3  UNL     1      27.959  -2.413  52.977  1.00  0.00    -0.272 NA
HETATM   26  C15 UNL     1      26.942  -1.547  52.754  1.00  0.00     0.130 A 
ENDBRANCH  19  21
ENDBRANCH   1  15
TORSDOF 6
ENDMDL
MODEL 4
REMARK VINA RESULT:      -7.6      5.370      8.294
REMARK  6 active torsions:
REMARK  status: ('A' for Active; 'I' for Inactive)
REMARK    1  A    between atoms: C2_2  and  N5_20 
REMARK    2  A    between atoms: C3_3  and  C4_4 
REMARK    3  A    between atoms: C5_5  and  C6_6 
REMARK    4  A    between atoms: C6_6  and  N1_7 
REMARK    5  A    between atoms: N1_7  and  C7_8 
REMARK    6  A    between atoms: C10_12  and  C11_13 
ROOT
HETATM    1  N1  UNL     1      25.590   4.592  48.984  1.00  0.00    -0.219 N 
HETATM    2  H9  UNL     1      25.065   4.363  48.137  1.00  0.00     0.178 HD
ENDROOT
BRANCH   1   3
HETATM    3  C6  UNL     1      26.712   5.525  49.012  1.00  0.00     0.165 C 
BRANCH   3   4
HETATM    4  C5  UNL     1      27.981   4.922  48.582  1.00  0.00    -0.007 C 
HETATM    5  C4  UNL     1      29.045   5.663  48.238  1.00  0.00    -0.001 C 
BRANCH   5   6
HETATM    6  C3  UNL     1      30.358   5.211  47.796  1.00  0.00     0.024 C 
HETATM    7  C2  UNL     1      31.510   5.653  48.274  1.00  0.00     0.007 C 
HETATM    8  C1  UNL     1      31.401   6.679  49.333  1.00  0.00     0.068 C 
BRANCH   7   9
HETATM    9  N5  UNL     1      32.683   5.087  47.713  1.00  0.00    -0.361 N 
HETATM   10  C16 UNL     1      33.996   5.506  48.121  1.00  0.00     0.087 C 
HETATM   11  C17 UNL     1      34.952   4.566  48.197  1.00  0.00    -0.009 C 
HETATM   12  C18 UNL     1      34.458   3.232  47.833  1.00  0.00     0.030 C 
HETATM   13  C19 UNL     1      33.754   3.297  46.483  1.00  0.00     0.024 C 
HETATM   14  C20 UNL     1      32.472   4.066  46.706  1.00  0.00     0.128 C 
ENDBRANCH   7   9
ENDBRANCH   5   6
ENDBRANCH   3   4
ENDBRANCH   1   3
BRANCH   1  15
HETATM   15  C7  UNL     1      25.257   3.998  50.240  1.00  0.00     0.723 A 
HETATM   16  N2  UNL     1      24.162   4.417  50.915  1.00  0.00    -0.075 NA
HETATM   17  C8  UNL     1      23.825   3.867  52.112  1.00  0.00     0.139 A 
HETATM   18  C9  UNL     1      24.669   2.867  52.581  1.00  0.00     0.053 A 
HETATM   19  C10 UNL     1      25.788   2.427  51.908  1.00  0.00     0.089 A 
HETATM   20  N4  UNL     1      26.042   3.026  50.736  1.00  0.00    -0.062 NA
BRANCH  19  21
HETATM   21  C11 UNL     1      26.656   1.374  52.423  1.00  0.00     0.011 A 
HETATM   22  C12 UNL     1      26.417   0.021  52.312  1.00  0.00     0.017 A 
HETATM   23  C13 UNL     1      27.270  -0.935  52.817  1.00  0.00     0.020 A 
HETATM   24  C14 UNL     1      28.408  -0.494  53.457  1.00  0.00     0.116 A 
HETATM   25  N3  UNL     1      28.679   0.822  53.587  1.00  0.00    -0.272 NA
HETATM   26  C15 UNL     1      27.809   1.724  53.074  1.00  0.00     0.130 A 
ENDBRANCH  19  21
ENDBRANCH   1  15
TORSDOF 6
ENDMDL
MODEL 5
REMARK VINA RESULT:      -7.5      5.707      9.471
REMARK  6 active torsions:
REMARK  status: ('A' for Active; 'I' for Inactive)
REMARK    1  A    between atoms: C2_2  and  N5_20 
REMARK    2  A    between atoms: C3_3  and  C4_4 
REMARK    3  A    between atoms: C5_5  and  C6_6 
REMARK    4  A    between atoms: C6_6  and  N1_7 
REMARK    5  A    between atoms: N1_7  and  C7_8 
REMARK    6  A    between atoms: C10_12  and  C11_13 
ROOT
HETATM    1  N1  UNL     1      27.361   5.535  49.011  1.00  0.00    -0.219 N 
HETATM    2  H9  UNL     1      26.632   6.142  49.393  1.00  0.00     0.178 HD
ENDROOT
BRANCH   1   3
HETATM    3  C6  UNL     1      27.245   4.082  48.938  1.00  0.00     0.165 C 
BRANCH   3   4
HETATM    4  C5  UNL     1      26.110   3.549  49.703  1.00  0.00    -0.007 C 
HETATM    5  C4  UNL     1      26.275   2.868  50.847  1.00  0.00    -0.001 C 
BRANCH   5   6
HETATM    6  C3  UNL     1      25.254   2.285  51.709  1.00  0.00     0.024 C 
HETATM    7  C2  UNL     1      25.316   1.076  52.242  1.00  0.00     0.007 C 
HETATM    8  C1  UNL     1      26.530   0.301  51.908  1.00  0.00     0.068 C 
BRANCH   7   9
HETATM    9  N5  UNL     1      24.220   0.689  53.055  1.00  0.00    -0.361 N 
HETATM   10  C16 UNL     1      22.954   1.368  52.992  1.00  0.00     0.087 C 
HETATM   11  C17 UNL     1      21.844   0.624  53.121  1.00  0.00    -0.009 C 
HETATM   12  C18 UNL     1      22.141  -0.801  53.312  1.00  0.00     0.030 C 
HETATM   13  C19 UNL     1      23.140  -0.968  54.451  1.00  0.00     0.024 C 
HETATM   14  C20 UNL     1      24.458  -0.428  53.947  1.00  0.00     0.128 C 
ENDBRANCH   7   9
ENDBRANCH   5   6
ENDBRANCH   3   4
ENDBRANCH   1   3
BRANCH   1  15
HETATM   15  C7  UNL     1      28.582   6.078  48.506  1.00  0.00     0.723 A 
HETATM   16  N2  UNL     1      28.687   7.408  48.280  1.00  0.00    -0.075 NA
HETATM   17  C8  UNL     1      29.839   7.947  47.800  1.00  0.00     0.139 A 
HETATM   18  C9  UNL     1      30.877   7.054  47.563  1.00  0.00     0.053 A 
HETATM   19  C10 UNL     1      30.789   5.697  47.787  1.00  0.00     0.089 A 
HETATM   20  N4  UNL     1      29.616   5.255  48.261  1.00  0.00    -0.062 NA
BRANCH  19  21
HETATM   21  C11 UNL     1      31.895   4.782  47.531  1.00  0.00     0.011 A 
HETATM   22  C12 UNL     1      31.781   3.546  46.930  1.00  0.00     0.017 A 
HETATM   23  C13 UNL     1      32.860   2.718  46.710  1.00  0.00     0.020 A 
HETATM   24  C14 UNL     1      34.097   3.167  47.116  1.00  0.00     0.116 A 
HETATM   25  N3  UNL     1      34.252   4.371  47.708  1.00  0.00    -0.272 NA
HETATM   26  C15 UNL     1      33.161   5.149  47.903  1.00  0.00     0.130 A 
ENDBRANCH  19  21
ENDBRANCH   1  15
TORSDOF 6
ENDMDL
MODEL 6
REMARK VINA RESULT:      -7.4      5.140      7.705
REMARK  6 active torsions:
REMARK  status: ('A' for Active; 'I' for Inactive)
REMARK    1  A    between atoms: C2_2  and  N5_20 
REMARK    2  A    between atoms: C3_3  and  C4_4 
REMARK    3  A    between atoms: C5_5  and  C6_6 
REMARK    4  A    between atoms: C6_6  and  N1_7 
REMARK    5  A    between atoms: N1_7  and  C7_8 
REMARK    6  A    between atoms: C10_12  and  C11_13 
ROOT
HETATM    1  N1  UNL     1      25.331   3.594  51.212  1.00  0.00    -0.219 N 
HETATM    2  H9  UNL     1      25.181   4.420  51.794  1.00  0.00     0.178 HD
ENDROOT
BRANCH   1   3
HETATM    3  C6  UNL     1      25.456   3.642  49.758  1.00  0.00     0.165 C 
BRANCH   3   4
HETATM    4  C5  UNL     1      26.834   3.870  49.300  1.00  0.00    -0.007 C 
HETATM    5  C4  UNL     1      27.244   5.057  48.828  1.00  0.00    -0.001 C 
BRANCH   5   6
HETATM    6  C3  UNL     1      28.566   5.430  48.341  1.00  0.00     0.024 C 
HETATM    7  C2  UNL     1      28.855   6.570  47.735  1.00  0.00     0.007 C 
HETATM    8  C1  UNL     1      27.717   7.498  47.562  1.00  0.00     0.068 C 
BRANCH   7   9
HETATM    9  N5  UNL     1      30.204   6.746  47.335  1.00  0.00    -0.361 N 
HETATM   10  C16 UNL     1      30.651   7.948  46.685  1.00  0.00     0.087 C 
HETATM   11  C17 UNL     1      31.876   8.402  46.994  1.00  0.00    -0.009 C 
HETATM   12  C18 UNL     1      32.559   7.552  47.977  1.00  0.00     0.030 C 
HETATM   13  C19 UNL     1      32.532   6.102  47.507  1.00  0.00     0.024 C 
HETATM   14  C20 UNL     1      31.097   5.641  47.624  1.00  0.00     0.128 C 
ENDBRANCH   7   9
ENDBRANCH   5   6
ENDBRANCH   3   4
ENDBRANCH   1   3
BRANCH   1  15
HETATM   15  C7  UNL     1      25.430   2.292  51.791  1.00  0.00     0.723 A 
HETATM   16  N2  UNL     1      26.630   1.666  51.842  1.00  0.00    -0.075 NA
HETATM   17  C8  UNL     1      26.749   0.427  52.388  1.00  0.00     0.139 A 
HETATM   18  C9  UNL     1      25.577  -0.138  52.878  1.00  0.00     0.053 A 
HETATM   19  C10 UNL     1      24.348   0.484  52.836  1.00  0.00     0.089 A 
HETATM   20  N4  UNL     1      24.325   1.703  52.280  1.00  0.00    -0.062 NA
BRANCH  19  21
HETATM   21  C11 UNL     1      23.134  -0.132  53.359  1.00  0.00     0.011 A 
HETATM   22  C12 UNL     1      21.870   0.030  52.832  1.00  0.00     0.017 A 
HETATM   23  C13 UNL     1      20.753  -0.575  53.366  1.00  0.00     0.020 A 
HETATM   24  C14 UNL     1      20.933  -1.374  54.473  1.00  0.00     0.116 A 
HETATM   25  N3  UNL     1      22.154  -1.559  55.020  1.00  0.00    -0.272 NA
HETATM   26  C15 UNL     1      23.222  -0.942  54.459  1.00  0.00     0.130 A 
ENDBRANCH  19  21
ENDBRANCH   1  15
TORSDOF 6
ENDMDL
MODEL 7
REMARK VINA RESULT:      -7.4      4.948      8.198
REMARK  6 active torsions:
REMARK  status: ('A' for Active; 'I' for Inactive)
REMARK    1  A    between atoms: C2_2  and  N5_20 
REMARK    2  A    between atoms: C3_3  and  C4_4 
REMARK    3  A    between atoms: C5_5  and  C6_6 
REMARK    4  A    between atoms: C6_6  and  N1_7 
REMARK    5  A    between atoms: N1_7  and  C7_8 
REMARK    6  A    between atoms: C10_12  and  C11_13 
ROOT
HETATM    1  N1  UNL     1      26.588   2.846  51.677  1.00  0.00    -0.219 N 
HETATM    2  H9  UNL     1      26.843   3.663  52.236  1.00  0.00     0.178 HD
ENDROOT
BRANCH   1   3
HETATM    3  C6  UNL     1      26.381   2.890  50.233  1.00  0.00     0.165 C 
BRANCH   3   4
HETATM    4  C5  UNL     1      26.401   4.253  49.683  1.00  0.00    -0.007 C 
HETATM    5  C4  UNL     1      27.398   4.695  48.902  1.00  0.00    -0.001 C 
BRANCH   5   6
HETATM    6  C3  UNL     1      27.555   6.008  48.289  1.00  0.00     0.024 C 
HETATM    7  C2  UNL     1      28.702   6.512  47.863  1.00  0.00     0.007 C 
HETATM    8  C1  UNL     1      29.880   5.638  48.046  1.00  0.00     0.068 C 
BRANCH   7   9
HETATM    9  N5  UNL     1      28.646   7.809  47.294  1.00  0.00    -0.361 N 
HETATM   10  C16 UNL     1      27.550   8.225  46.461  1.00  0.00     0.087 C 
HETATM   11  C17 UNL     1      27.134   9.497  46.573  1.00  0.00    -0.009 C 
HETATM   12  C18 UNL     1      27.907  10.256  47.562  1.00  0.00     0.030 C 
HETATM   13  C19 UNL     1      29.396  10.112  47.271  1.00  0.00     0.024 C 
HETATM   14  C20 UNL     1      29.760   8.683  47.604  1.00  0.00     0.128 C 
ENDBRANCH   7   9
ENDBRANCH   5   6
ENDBRANCH   3   4
ENDBRANCH   1   3
BRANCH   1  15
HETATM   15  C7  UNL     1      26.409   1.565  52.281  1.00  0.00     0.723 A 
HETATM   16  N2  UNL     1      27.477   0.759  52.485  1.00  0.00    -0.075 NA
HETATM   17  C8  UNL     1      27.331  -0.464  53.059  1.00  0.00     0.139 A 
HETATM   18  C9  UNL     1      26.035  -0.821  53.412  1.00  0.00     0.053 A 
HETATM   19  C10 UNL     1      24.935  -0.014  53.212  1.00  0.00     0.089 A 
HETATM   20  N4  UNL     1      25.174   1.174  52.641  1.00  0.00    -0.062 NA
BRANCH  19  21
HETATM   21  C11 UNL     1      23.585  -0.413  53.593  1.00  0.00     0.011 A 
HETATM   22  C12 UNL     1      22.443  -0.150  52.867  1.00  0.00     0.017 A 
HETATM   23  C13 UNL     1      21.189  -0.550  53.272  1.00  0.00     0.020 A 
HETATM   24  C14 UNL     1      21.096  -1.242  54.458  1.00  0.00     0.116 A 
HETATM   25  N3  UNL     1      22.190  -1.521  55.200  1.00  0.00    -0.272 NA
HETATM   26  C15 UNL     1      23.402  -1.106  54.760  1.00  0.00     0.130 A 
ENDBRANCH  19  21
ENDBRANCH   1  15
TORSDOF 6
ENDMDL
MODEL 8
REMARK VINA RESULT:      -7.2      5.212      8.116
REMARK  6 active torsions:
REMARK  status: ('A' for Active; 'I' for Inactive)
REMARK    1  A    between atoms: C2_2  and  N5_20 
REMARK    2  A    between atoms: C3_3  and  C4_4 
REMARK    3  A    between atoms: C5_5  and  C6_6 
REMARK    4  A    between atoms: C6_6  and  N1_7 
REMARK    5  A    between atoms: N1_7  and  C7_8 
REMARK    6  A    between atoms: C10_12  and  C11_13 
ROOT
HETATM    1  N1  UNL     1      25.773   3.323  51.129  1.00  0.00    -0.219 N 
HETATM    2  H9  UNL     1      25.613   4.184  51.656  1.00  0.00     0.178 HD
ENDROOT
BRANCH   1   3
HETATM    3  C6  UNL     1      25.979   3.287  49.685  1.00  0.00     0.165 C 
BRANCH   3   4
HETATM    4  C5  UNL     1      26.989   4.247  49.217  1.00  0.00    -0.007 C 
HETATM    5  C4  UNL     1      26.672   5.499  48.853  1.00  0.00    -0.001 C 
BRANCH   5   6
HETATM    6  C3  UNL     1      27.556   6.553  48.373  1.00  0.00     0.024 C 
HETATM    7  C2  UNL     1      27.561   7.798  48.822  1.00  0.00     0.007 C 
HETATM    8  C1  UNL     1      26.577   8.088  49.887  1.00  0.00     0.068 C 
BRANCH   7   9
HETATM    9  N5  UNL     1      28.499   8.678  48.225  1.00  0.00    -0.361 N 
HETATM   10  C16 UNL     1      29.786   8.926  48.815  1.00  0.00     0.087 C 
HETATM   11  C17 UNL     1      30.830   9.079  47.985  1.00  0.00    -0.009 C 
HETATM   12  C18 UNL     1      30.447   8.962  46.573  1.00  0.00     0.030 C 
HETATM   13  C19 UNL     1      29.276   9.893  46.280  1.00  0.00     0.024 C 
HETATM   14  C20 UNL     1      28.077   9.308  46.990  1.00  0.00     0.128 C 
ENDBRANCH   7   9
ENDBRANCH   5   6
ENDBRANCH   3   4
ENDBRANCH   1   3
BRANCH   1  15
HETATM   15  C7  UNL     1      25.806   2.053  51.783  1.00  0.00     0.723 A 
HETATM   16  N2  UNL     1      26.980   1.394  51.918  1.00  0.00    -0.075 NA
HETATM   17  C8  UNL     1      27.036   0.185  52.536  1.00  0.00     0.139 A 
HETATM   18  C9  UNL     1      25.828  -0.315  53.008  1.00  0.00     0.053 A 
HETATM   19  C10 UNL     1      24.623   0.342  52.880  1.00  0.00     0.089 A 
HETATM   20  N4  UNL     1      24.663   1.528  52.258  1.00  0.00    -0.062 NA
BRANCH  19  21
HETATM   21  C11 UNL     1      23.369  -0.205  53.386  1.00  0.00     0.011 A 
HETATM   22  C12 UNL     1      22.132  -0.034  52.800  1.00  0.00     0.017 A 
HETATM   23  C13 UNL     1      20.976  -0.572  53.319  1.00  0.00     0.020 A 
HETATM   24  C14 UNL     1      21.085  -1.313  54.475  1.00  0.00     0.116 A 
HETATM   25  N3  UNL     1      22.277  -1.504  55.081  1.00  0.00    -0.272 NA
HETATM   26  C15 UNL     1      23.386  -0.954  54.533  1.00  0.00     0.130 A 
ENDBRANCH  19  21
ENDBRANCH   1  15
TORSDOF 6
ENDMDL
MODEL 9
REMARK VINA RESULT:      -7.2      6.248     10.509
REMARK  6 active torsions:
REMARK  status: ('A' for Active; 'I' for Inactive)
REMARK    1  A    between atoms: C2_2  and  N5_20 
REMARK    2  A    between atoms: C3_3  and  C4_4 
REMARK    3  A    between atoms: C5_5  and  C6_6 
REMARK    4  A    between atoms: C6_6  and  N1_7 
REMARK    5  A    between atoms: N1_7  and  C7_8 
REMARK    6  A    between atoms: C10_12  and  C11_13 
ROOT
HETATM    1  N1  UNL     1      28.415   6.970  48.831  1.00  0.00    -0.219 N 
HETATM    2  H9  UNL     1      27.785   7.676  49.218  1.00  0.00     0.178 HD
ENDROOT
BRANCH   1   3
HETATM    3  C6  UNL     1      27.974   5.654  48.380  1.00  0.00     0.165 C 
BRANCH   3   4
HETATM    4  C5  UNL     1      26.686   5.243  48.955  1.00  0.00    -0.007 C 
HETATM    5  C4  UNL     1      26.470   4.000  49.411  1.00  0.00    -0.001 C 
BRANCH   5   6
HETATM    6  C3  UNL     1      25.257   3.450  50.003  1.00  0.00     0.024 C 
HETATM    7  C2  UNL     1      25.225   2.647  51.054  1.00  0.00     0.007 C 
HETATM    8  C1  UNL     1      26.544   2.313  51.631  1.00  0.00     0.068 C 
BRANCH   7   9
HETATM    9  N5  UNL     1      23.942   2.219  51.480  1.00  0.00    -0.361 N 
HETATM   10  C16 UNL     1      22.836   2.114  50.566  1.00  0.00     0.087 C 
HETATM   11  C17 UNL     1      21.981   1.094  50.743  1.00  0.00    -0.009 C 
HETATM   12  C18 UNL     1      22.347   0.244  51.881  1.00  0.00     0.030 C 
HETATM   13  C19 UNL     1      22.552   1.106  53.121  1.00  0.00     0.024 C 
HETATM   14  C20 UNL     1      23.819   1.896  52.887  1.00  0.00     0.128 C 
ENDBRANCH   7   9
ENDBRANCH   5   6
ENDBRANCH   3   4
ENDBRANCH   1   3
BRANCH   1  15
HETATM   15  C7  UNL     1      29.815   7.223  48.701  1.00  0.00     0.723 A 
HETATM   16  N2  UNL     1      30.283   8.490  48.794  1.00  0.00    -0.075 NA
HETATM   17  C8  UNL     1      31.611   8.755  48.673  1.00  0.00     0.139 A 
HETATM   18  C9  UNL     1      32.434   7.657  48.451  1.00  0.00     0.053 A 
HETATM   19  C10 UNL     1      31.976   6.361  48.354  1.00  0.00     0.089 A 
HETATM   20  N4  UNL     1      30.653   6.194  48.486  1.00  0.00    -0.062 NA
BRANCH  19  21
HETATM   21  C11 UNL     1      32.862   5.226  48.121  1.00  0.00     0.011 A 
HETATM   22  C12 UNL     1      32.481   4.017  47.579  1.00  0.00     0.017 A 
HETATM   23  C13 UNL     1      33.359   2.976  47.380  1.00  0.00     0.020 A 
HETATM   24  C14 UNL     1      34.672   3.174  47.745  1.00  0.00     0.116 A 
HETATM   25  N3  UNL     1      35.087   4.344  48.280  1.00  0.00    -0.272 NA
HETATM   26  C15 UNL     1      34.185   5.339  48.456  1.00  0.00     0.130 A 
ENDBRANCH  19  21
ENDBRANCH   1  15
TORSDOF 6
ENDMDL
