MODEL 1
REMARK VINA RESULT:      -7.7      0.000      0.000
REMARK  8 active torsions:
REMARK  status: ('A' for Active; 'I' for Inactive)
REMARK    1  A    between atoms: N1_1  and  C1_2 
REMARK    2  A    between atoms: C2_3  and  C3_4 
REMARK    3  A    between atoms: C4_5  and  C5_6 
REMARK    4  A    between atoms: C6_7  and  O1_8 
REMARK    5  A    between atoms: O1_8  and  C7_9 
REMARK    6  A    between atoms: C9_11  and  N2_12 
REMARK    7  A    between atoms: N2_12  and  C10_13 
REMARK    8  A    between atoms: C10_13  and  C11_14 
ROOT
HETATM    1  C7  UNL     1      24.997   1.260  52.280  1.00  0.00     0.058 A 
HETATM    2  C8  UNL     1      25.534   2.369  51.742  1.00  0.00     0.061 A 
HETATM    3  C9  UNL     1      24.463   3.381  51.637  1.00  0.00     0.027 A 
HETATM    4  C17 UNL     1      23.346   2.848  52.107  1.00  0.00     0.009 A 
HETATM    5  C18 UNL     1      23.546   1.465  52.564  1.00  0.00     0.094 A 
ENDROOT
BRANCH   1   6
HETATM    6  O1  UNL     1      25.585   0.022  52.588  1.00  0.00    -0.327 OA
BRANCH   6   7
HETATM    7  C6  UNL     1      25.391  -0.556  53.856  1.00  0.00     0.142 C 
HETATM    8  C5  UNL     1      26.556  -0.236  54.453  1.00  0.00     0.024 C 
BRANCH   8   9
HETATM    9  C4  UNL     1      27.819   0.473  54.157  1.00  0.00    -0.002 C 
HETATM   10  C3  UNL     1      29.026   0.188  53.617  1.00  0.00    -0.019 C 
BRANCH  10  11
HETATM   11  C2  UNL     1      28.733  -1.209  53.359  1.00  0.00     0.117 C 
HETATM   12  C1  UNL     1      29.462  -2.303  53.291  1.00  0.00     0.202 C 
BRANCH  12  13
HETATM   13  N1  UNL     1      28.411  -3.254  52.996  1.00  0.00     0.079 NA
HETATM   14  H1  UNL     1      28.126  -4.272  52.972  1.00  0.00     0.312 HD
HETATM   15  H2  UNL     1      28.151  -4.286  52.982  1.00  0.00     0.312 HD
ENDBRANCH  12  13
ENDBRANCH  10  11
ENDBRANCH   8   9
ENDBRANCH   6   7
ENDBRANCH   1   6
BRANCH   3  16
HETATM   16  N2  UNL     1      24.738   4.671  51.097  1.00  0.00    -0.386 N 
HETATM   17  H10 UNL     1      25.058   5.534  51.613  1.00  0.00     0.160 HD
BRANCH  16  18
HETATM   18  C10 UNL     1      24.556   4.816  49.662  1.00  0.00     0.158 C 
BRANCH  18  19
HETATM   19  C11 UNL     1      25.836   5.324  49.100  1.00  0.00    -0.041 A 
HETATM   20  C12 UNL     1      25.936   6.604  48.569  1.00  0.00     0.010 A 
HETATM   21  C13 UNL     1      27.136   7.030  48.061  1.00  0.00     0.024 A 
HETATM   22  C14 UNL     1      28.283   6.253  48.039  1.00  0.00     0.034 A 
HETATM   23 CL1  UNL     1      29.819   6.787  47.394  1.00  0.00    -0.084 Cl
HETATM   24  C15 UNL     1      28.201   4.970  48.565  1.00  0.00     0.024 A 
HETATM   25  C16 UNL     1      26.985   4.561  49.071  1.00  0.00     0.010 A 
ENDBRANCH  18  19
ENDBRANCH  16  18
ENDBRANCH   3  16
TORSDOF 8
ENDMDL
MODEL 2
REMARK VINA RESULT:      -7.2      3.206      6.453
REMARK  8 active torsions:
REMARK  status: ('A' for Active; 'I' for Inactive)
REMARK    1  A    between atoms: N1_1  and  C1_2 
REMARK    2  A    between atoms: C2_3  and  C3_4 
REMARK    3  A    between atoms: C4_5  and  C5_6 
REMARK    4  A    between atoms: C6_7  and  O1_8 
REMARK    5  A    between atoms: O1_8  and  C7_9 
REMARK    6  A    between atoms: C9_11  and  N2_12 
REMARK    7  A    between atoms: N2_12  and  C10_13 
REMARK    8  A    between atoms: C10_13  and  C11_14 
ROOT
HETATM    1  C7  UNL     1      23.012   3.295  51.387  1.00  0.00     0.058 A 
HETATM    2  C8  UNL     1      23.314   2.814  52.606  1.00  0.00     0.061 A 
HETATM    3  C9  UNL     1      23.091   1.355  52.580  1.00  0.00     0.027 A 
HETATM    4  C17 UNL     1      22.671   1.023  51.370  1.00  0.00     0.009 A 
HETATM    5  C18 UNL     1      22.572   2.192  50.483  1.00  0.00     0.094 A 
ENDROOT
BRANCH   1   6
HETATM    6  O1  UNL     1      23.055   4.608  50.891  1.00  0.00    -0.327 OA
BRANCH   6   7
HETATM    7  C6  UNL     1      23.968   5.536  51.425  1.00  0.00     0.142 C 
HETATM    8  C5  UNL     1      24.992   5.400  50.561  1.00  0.00     0.024 C 
BRANCH   8   9
HETATM    9  C4  UNL     1      25.355   4.626  49.354  1.00  0.00    -0.002 C 
HETATM   10  C3  UNL     1      26.124   3.558  49.041  1.00  0.00    -0.019 C 
BRANCH  10  11
HETATM   11  C2  UNL     1      26.580   3.317  50.397  1.00  0.00     0.117 C 
HETATM   12  C1  UNL     1      26.672   2.247  51.158  1.00  0.00     0.202 C 
BRANCH  12  13
HETATM   13  N1  UNL     1      27.217   2.866  52.349  1.00  0.00     0.079 NA
HETATM   14  H1  UNL     1      27.201   3.705  52.991  1.00  0.00     0.312 HD
HETATM   15  H2  UNL     1      27.180   3.723  52.978  1.00  0.00     0.312 HD
ENDBRANCH  12  13
ENDBRANCH  10  11
ENDBRANCH   8   9
ENDBRANCH   6   7
ENDBRANCH   1   6
BRANCH   3  16
HETATM   16  N2  UNL     1      23.331   0.566  53.744  1.00  0.00    -0.386 N 
HETATM   17  H10 UNL     1      23.142   0.823  54.750  1.00  0.00     0.160 HD
BRANCH  16  18
HETATM   18  C10 UNL     1      23.904  -0.750  53.517  1.00  0.00     0.158 C 
BRANCH  18  19
HETATM   19  C11 UNL     1      25.382  -0.615  53.610  1.00  0.00    -0.041 A 
HETATM   20  C12 UNL     1      25.983   0.057  54.666  1.00  0.00     0.010 A 
HETATM   21  C13 UNL     1      27.350   0.157  54.710  1.00  0.00     0.024 A 
HETATM   22  C14 UNL     1      28.193  -0.379  53.749  1.00  0.00     0.034 A 
HETATM   23 CL1  UNL     1      29.937  -0.258  53.795  1.00  0.00    -0.084 Cl
HETATM   24  C15 UNL     1      27.609  -1.054  52.685  1.00  0.00     0.024 A 
HETATM   25  C16 UNL     1      26.232  -1.143  52.660  1.00  0.00     0.010 A 
ENDBRANCH  18  19
ENDBRANCH  16  18
ENDBRANCH   3  16
TORSDOF 8
ENDMDL
MODEL 3
REMARK VINA RESULT:      -7.1      3.008      7.375
REMARK  8 active torsions:
REMARK  status: ('A' for Active; 'I' for Inactive)
REMARK    1  A    between atoms: N1_1  and  C1_2 
REMARK    2  A    between atoms: C2_3  and  C3_4 
REMARK    3  A    between atoms: C4_5  and  C5_6 
REMARK    4  A    between atoms: C6_7  and  O1_8 
REMARK    5  A    between atoms: O1_8  and  C7_9 
REMARK    6  A    between atoms: C9_11  and  N2_12 
REMARK    7  A    between atoms: N2_12  and  C10_13 
REMARK    8  A    between atoms: C10_13  and  C11_14 
ROOT
HETATM    1  C7  UNL     1      24.360   3.367  51.392  1.00  0.00     0.058 A 
HETATM    2  C8  UNL     1      24.368   2.789  52.606  1.00  0.00     0.061 A 
HETATM    3  C9  UNL     1      23.533   1.573  52.529  1.00  0.00     0.027 A 
HETATM    4  C17 UNL     1      23.065   1.472  51.295  1.00  0.00     0.009 A 
HETATM    5  C18 UNL     1      23.525   2.577  50.440  1.00  0.00     0.094 A 
ENDROOT
BRANCH   1   6
HETATM    6  O1  UNL     1      24.993   4.536  50.937  1.00  0.00    -0.327 OA
BRANCH   6   7
HETATM    7  C6  UNL     1      24.468   5.241  49.838  1.00  0.00     0.142 C 
HETATM    8  C5  UNL     1      25.520   5.208  48.998  1.00  0.00     0.024 C 
BRANCH   8   9
HETATM    9  C4  UNL     1      26.903   4.687  48.941  1.00  0.00    -0.002 C 
HETATM   10  C3  UNL     1      28.127   5.131  48.574  1.00  0.00    -0.019 C 
BRANCH  10  11
HETATM   11  C2  UNL     1      27.681   6.455  48.185  1.00  0.00     0.117 C 
HETATM   12  C1  UNL     1      28.090   7.677  48.452  1.00  0.00     0.202 C 
BRANCH  12  13
HETATM   13  N1  UNL     1      27.112   8.415  47.681  1.00  0.00     0.079 NA
HETATM   14  H1  UNL     1      26.177   8.908  47.686  1.00  0.00     0.312 HD
HETATM   15  H2  UNL     1      26.168   8.905  47.715  1.00  0.00     0.312 HD
ENDBRANCH  12  13
ENDBRANCH  10  11
ENDBRANCH   8   9
ENDBRANCH   6   7
ENDBRANCH   1   6
BRANCH   3  16
HETATM   16  N2  UNL     1      23.353   0.746  53.676  1.00  0.00    -0.386 N 
HETATM   17  H10 UNL     1      22.901   1.002  54.594  1.00  0.00     0.160 HD
BRANCH  16  18
HETATM   18  C10 UNL     1      23.852  -0.614  53.567  1.00  0.00     0.158 C 
BRANCH  18  19
HETATM   19  C11 UNL     1      25.337  -0.548  53.599  1.00  0.00    -0.041 A 
HETATM   20  C12 UNL     1      26.109  -1.079  52.573  1.00  0.00     0.010 A 
HETATM   21  C13 UNL     1      27.475  -0.996  52.644  1.00  0.00     0.024 A 
HETATM   22  C14 UNL     1      28.157  -0.404  53.695  1.00  0.00     0.034 A 
HETATM   23 CL1  UNL     1      29.899  -0.291  53.797  1.00  0.00    -0.084 Cl
HETATM   24  C15 UNL     1      27.402   0.132  54.731  1.00  0.00     0.024 A 
HETATM   25  C16 UNL     1      26.029   0.038  54.639  1.00  0.00     0.010 A 
ENDBRANCH  18  19
ENDBRANCH  16  18
ENDBRANCH   3  16
TORSDOF 8
ENDMDL
MODEL 4
REMARK VINA RESULT:      -7.1      3.469      7.412
REMARK  8 active torsions:
REMARK  status: ('A' for Active; 'I' for Inactive)
REMARK    1  A    between atoms: N1_1  and  C1_2 
REMARK    2  A    between atoms: C2_3  and  C3_4 
REMARK    3  A    between atoms: C4_5  and  C5_6 
REMARK    4  A    between atoms: C6_7  and  O1_8 
REMARK    5  A    between atoms: O1_8  and  C7_9 
REMARK    6  A    between atoms: C9_11  and  N2_12 
REMARK    7  A    between atoms: N2_12  and  C10_13 
REMARK    8  A    between atoms: C10_13  and  C11_14 
ROOT
HETATM    1  C7  UNL     1      26.326   4.254  49.489  1.00  0.00     0.058 A 
HETATM    2  C8  UNL     1      26.137   2.998  49.932  1.00  0.00     0.061 A 
HETATM    3  C9  UNL     1      24.940   3.003  50.796  1.00  0.00     0.027 A 
HETATM    4  C17 UNL     1      24.467   4.238  50.839  1.00  0.00     0.009 A 
HETATM    5  C18 UNL     1      25.273   5.164  50.029  1.00  0.00     0.094 A 
ENDROOT
BRANCH   1   6
HETATM    6  O1  UNL     1      27.315   4.781  48.643  1.00  0.00    -0.327 OA
BRANCH   6   7
HETATM    7  C6  UNL     1      27.350   6.161  48.371  1.00  0.00     0.142 C 
HETATM    8  C5  UNL     1      28.656   6.322  48.080  1.00  0.00     0.024 C 
BRANCH   8   9
HETATM    9  C4  UNL     1      29.898   5.525  47.986  1.00  0.00    -0.002 C 
HETATM   10  C3  UNL     1      31.205   5.663  48.307  1.00  0.00    -0.019 C 
BRANCH  10  11
HETATM   11  C2  UNL     1      31.070   6.999  48.856  1.00  0.00     0.117 C 
HETATM   12  C1  UNL     1      31.793   7.733  49.674  1.00  0.00     0.202 C 
BRANCH  12  13
HETATM   13  N1  UNL     1      30.964   8.920  49.702  1.00  0.00     0.079 NA
HETATM   14  H1  UNL     1      30.484   9.672  49.135  1.00  0.00     0.312 HD
HETATM   15  H2  UNL     1      30.491   9.664  49.107  1.00  0.00     0.312 HD
ENDBRANCH  12  13
ENDBRANCH  10  11
ENDBRANCH   8   9
ENDBRANCH   6   7
ENDBRANCH   1   6
BRANCH   3  16
HETATM   16  N2  UNL     1      24.491   1.799  51.415  1.00  0.00    -0.386 N 
HETATM   17  H10 UNL     1      24.025   0.971  50.957  1.00  0.00     0.160 HD
BRANCH  16  18
HETATM   18  C10 UNL     1      24.702   1.701  52.849  1.00  0.00     0.158 C 
BRANCH  18  19
HETATM   19  C11 UNL     1      26.036   1.078  53.062  1.00  0.00    -0.041 A 
HETATM   20  C12 UNL     1      27.084   1.788  53.634  1.00  0.00     0.010 A 
HETATM   21  C13 UNL     1      28.296   1.173  53.811  1.00  0.00     0.024 A 
HETATM   22  C14 UNL     1      28.555  -0.140  53.449  1.00  0.00     0.034 A 
HETATM   23 CL1  UNL     1      30.097  -0.934  53.671  1.00  0.00    -0.084 Cl
HETATM   24  C15 UNL     1      27.518  -0.865  52.876  1.00  0.00     0.024 A 
HETATM   25  C16 UNL     1      26.306  -0.227  52.706  1.00  0.00     0.010 A 
ENDBRANCH  18  19
ENDBRANCH  16  18
ENDBRANCH   3  16
TORSDOF 8
ENDMDL
MODEL 5
REMARK VINA RESULT:      -7.1      4.625      8.144
REMARK  8 active torsions:
REMARK  status: ('A' for Active; 'I' for Inactive)
REMARK    1  A    between atoms: N1_1  and  C1_2 
REMARK    2  A    between atoms: C2_3  and  C3_4 
REMARK    3  A    between atoms: C4_5  and  C5_6 
REMARK    4  A    between atoms: C6_7  and  O1_8 
REMARK    5  A    between atoms: O1_8  and  C7_9 
REMARK    6  A    between atoms: C9_11  and  N2_12 
REMARK    7  A    between atoms: N2_12  and  C10_13 
REMARK    8  A    between atoms: C10_13  and  C11_14 
ROOT
HETATM    1  C7  UNL     1      25.027   1.076  53.074  1.00  0.00     0.058 A 
HETATM    2  C8  UNL     1      23.763   0.669  52.861  1.00  0.00     0.061 A 
HETATM    3  C9  UNL     1      23.513  -0.493  53.738  1.00  0.00     0.027 A 
HETATM    4  C17 UNL     1      24.615  -0.733  54.429  1.00  0.00     0.009 A 
HETATM    5  C18 UNL     1      25.690   0.215  54.098  1.00  0.00     0.094 A 
ENDROOT
BRANCH   1   6
HETATM    6  O1  UNL     1      25.752   2.132  52.498  1.00  0.00    -0.327 OA
BRANCH   6   7
HETATM    7  C6  UNL     1      26.888   1.863  51.713  1.00  0.00     0.142 C 
HETATM    8  C5  UNL     1      26.556   2.497  50.572  1.00  0.00     0.024 C 
BRANCH   8   9
HETATM    9  C4  UNL     1      25.449   3.298  50.007  1.00  0.00    -0.002 C 
HETATM   10  C3  UNL     1      25.297   4.447  49.309  1.00  0.00    -0.019 C 
BRANCH  10  11
HETATM   11  C2  UNL     1      26.713   4.751  49.237  1.00  0.00     0.117 C 
HETATM   12  C1  UNL     1      27.447   5.533  48.475  1.00  0.00     0.202 C 
BRANCH  12  13
HETATM   13  N1  UNL     1      28.745   5.256  49.053  1.00  0.00     0.079 NA
HETATM   14  H1  UNL     1      29.281   4.976  49.920  1.00  0.00     0.312 HD
HETATM   15  H2  UNL     1      29.259   4.972  49.941  1.00  0.00     0.312 HD
ENDBRANCH  12  13
ENDBRANCH  10  11
ENDBRANCH   8   9
ENDBRANCH   6   7
ENDBRANCH   1   6
BRANCH   3  16
HETATM   16  N2  UNL     1      22.244  -1.144  53.731  1.00  0.00    -0.386 N 
HETATM   17  H10 UNL     1      22.014  -2.110  53.374  1.00  0.00     0.160 HD
BRANCH  16  18
HETATM   18  C10 UNL     1      21.134  -0.386  54.282  1.00  0.00     0.158 C 
BRANCH  18  19
HETATM   19  C11 UNL     1      20.067  -0.341  53.247  1.00  0.00    -0.041 A 
HETATM   20  C12 UNL     1      18.862  -1.012  53.419  1.00  0.00     0.010 A 
HETATM   21  C13 UNL     1      17.907  -0.943  52.438  1.00  0.00     0.024 A 
HETATM   22  C14 UNL     1      18.064  -0.234  51.258  1.00  0.00     0.034 A 
HETATM   23 CL1  UNL     1      16.853  -0.139  50.000  1.00  0.00    -0.084 Cl
HETATM   24  C15 UNL     1      19.263   0.442  51.069  1.00  0.00     0.024 A 
HETATM   25  C16 UNL     1      20.211   0.360  52.068  1.00  0.00     0.010 A 
ENDBRANCH  18  19
ENDBRANCH  16  18
ENDBRANCH   3  16
TORSDOF 8
ENDMDL
MODEL 6
REMARK VINA RESULT:      -7.1      1.755      2.306
REMARK  8 active torsions:
REMARK  status: ('A' for Active; 'I' for Inactive)
REMARK    1  A    between atoms: N1_1  and  C1_2 
REMARK    2  A    between atoms: C2_3  and  C3_4 
REMARK    3  A    between atoms: C4_5  and  C5_6 
REMARK    4  A    between atoms: C6_7  and  O1_8 
REMARK    5  A    between atoms: O1_8  and  C7_9 
REMARK    6  A    between atoms: C9_11  and  N2_12 
REMARK    7  A    between atoms: N2_12  and  C10_13 
REMARK    8  A    between atoms: C10_13  and  C11_14 
ROOT
HETATM    1  C7  UNL     1      23.731   1.951  51.983  1.00  0.00     0.058 A 
HETATM    2  C8  UNL     1      24.667   2.781  51.490  1.00  0.00     0.061 A 
HETATM    3  C9  UNL     1      24.039   4.104  51.301  1.00  0.00     0.027 A 
HETATM    4  C17 UNL     1      22.774   4.018  51.681  1.00  0.00     0.009 A 
HETATM    5  C18 UNL     1      22.432   2.667  52.151  1.00  0.00     0.094 A 
ENDROOT
BRANCH   1   6
HETATM    6  O1  UNL     1      23.813   0.594  52.335  1.00  0.00    -0.327 OA
BRANCH   6   7
HETATM    7  C6  UNL     1      23.835   0.216  53.690  1.00  0.00     0.142 C 
HETATM    8  C5  UNL     1      24.945  -0.546  53.715  1.00  0.00     0.024 C 
BRANCH   8   9
HETATM    9  C4  UNL     1      26.007  -1.024  52.803  1.00  0.00    -0.002 C 
HETATM   10  C3  UNL     1      27.208  -0.596  52.352  1.00  0.00    -0.019 C 
BRANCH  10  11
HETATM   11  C2  UNL     1      27.200   0.647  53.099  1.00  0.00     0.117 C 
HETATM   12  C1  UNL     1      27.800   1.809  52.955  1.00  0.00     0.202 C 
BRANCH  12  13
HETATM   13  N1  UNL     1      27.255   2.487  54.113  1.00  0.00     0.079 NA
HETATM   14  H1  UNL     1      26.556   2.454  54.905  1.00  0.00     0.312 HD
HETATM   15  H2  UNL     1      26.543   2.426  54.901  1.00  0.00     0.312 HD
ENDBRANCH  12  13
ENDBRANCH  10  11
ENDBRANCH   8   9
ENDBRANCH   6   7
ENDBRANCH   1   6
BRANCH   3  16
HETATM   16  N2  UNL     1      24.797   5.197  50.786  1.00  0.00    -0.386 N 
HETATM   17  H10 UNL     1      25.412   5.867  51.321  1.00  0.00     0.160 HD
BRANCH  16  18
HETATM   18  C10 UNL     1      24.711   5.414  49.352  1.00  0.00     0.158 C 
BRANCH  18  19
HETATM   19  C11 UNL     1      26.085   5.705  48.863  1.00  0.00    -0.041 A 
HETATM   20  C12 UNL     1      27.091   4.749  48.916  1.00  0.00     0.010 A 
HETATM   21  C13 UNL     1      28.343   5.061  48.454  1.00  0.00     0.024 A 
HETATM   22  C14 UNL     1      28.683   6.297  47.924  1.00  0.00     0.034 A 
HETATM   23 CL1  UNL     1      30.276   6.707  47.331  1.00  0.00    -0.084 Cl
HETATM   24  C15 UNL     1      27.689   7.265  47.863  1.00  0.00     0.024 A 
HETATM   25  C16 UNL     1      26.436   6.930  48.334  1.00  0.00     0.010 A 
ENDBRANCH  18  19
ENDBRANCH  16  18
ENDBRANCH   3  16
TORSDOF 8
ENDMDL
MODEL 7
REMARK VINA RESULT:      -7.0      3.133      7.376
REMARK  8 active torsions:
REMARK  status: ('A' for Active; 'I' for Inactive)
REMARK    1  A    between atoms: N1_1  and  C1_2 
REMARK    2  A    between atoms: C2_3  and  C3_4 
REMARK    3  A    between atoms: C4_5  and  C5_6 
REMARK    4  A    between atoms: C6_7  and  O1_8 
REMARK    5  A    between atoms: O1_8  and  C7_9 
REMARK    6  A    between atoms: C9_11  and  N2_12 
REMARK    7  A    between atoms: N2_12  and  C10_13 
REMARK    8  A    between atoms: C10_13  and  C11_14 
ROOT
HETATM    1  C7  UNL     1      22.814   2.048  50.106  1.00  0.00     0.058 A 
HETATM    2  C8  UNL     1      23.561   2.014  51.224  1.00  0.00     0.061 A 
HETATM    3  C9  UNL     1      22.958   1.022  52.137  1.00  0.00     0.027 A 
HETATM    4  C17 UNL     1      21.892   0.510  51.543  1.00  0.00     0.009 A 
HETATM    5  C18 UNL     1      21.676   1.087  50.208  1.00  0.00     0.094 A 
ENDROOT
BRANCH   1   6
HETATM    6  O1  UNL     1      22.957   2.816  48.939  1.00  0.00    -0.327 OA
BRANCH   6   7
HETATM    7  C6  UNL     1      22.375   4.094  48.859  1.00  0.00     0.142 C 
HETATM    8  C5  UNL     1      23.478   4.867  48.851  1.00  0.00     0.024 C 
BRANCH   8   9
HETATM    9  C4  UNL     1      24.950   4.734  48.899  1.00  0.00    -0.002 C 
HETATM   10  C3  UNL     1      25.988   5.302  49.555  1.00  0.00    -0.019 C 
BRANCH  10  11
HETATM   11  C2  UNL     1      25.174   6.224  50.325  1.00  0.00     0.117 C 
HETATM   12  C1  UNL     1      25.222   7.518  50.557  1.00  0.00     0.202 C 
BRANCH  12  13
HETATM   13  N1  UNL     1      24.059   7.636  51.410  1.00  0.00     0.079 NA
HETATM   14  H1  UNL     1      23.006   7.560  51.480  1.00  0.00     0.312 HD
HETATM   15  H2  UNL     1      22.999   7.551  51.452  1.00  0.00     0.312 HD
ENDBRANCH  12  13
ENDBRANCH  10  11
ENDBRANCH   8   9
ENDBRANCH   6   7
ENDBRANCH   1   6
BRANCH   3  16
HETATM   16  N2  UNL     1      23.539   0.768  53.414  1.00  0.00    -0.386 N 
HETATM   17  H10 UNL     1      23.665   1.443  54.214  1.00  0.00     0.160 HD
BRANCH  16  18
HETATM   18  C10 UNL     1      24.016  -0.586  53.640  1.00  0.00     0.158 C 
BRANCH  18  19
HETATM   19  C11 UNL     1      25.502  -0.538  53.665  1.00  0.00    -0.041 A 
HETATM   20  C12 UNL     1      26.187   0.189  54.631  1.00  0.00     0.010 A 
HETATM   21  C13 UNL     1      27.557   0.205  54.615  1.00  0.00     0.024 A 
HETATM   22  C14 UNL     1      28.326  -0.469  53.679  1.00  0.00     0.034 A 
HETATM   23 CL1  UNL     1      30.074  -0.456  53.650  1.00  0.00    -0.084 Cl
HETATM   24  C15 UNL     1      27.657  -1.201  52.706  1.00  0.00     0.024 A 
HETATM   25  C16 UNL     1      26.278  -1.204  52.739  1.00  0.00     0.010 A 
ENDBRANCH  18  19
ENDBRANCH  16  18
ENDBRANCH   3  16
TORSDOF 8
ENDMDL
MODEL 8
REMARK VINA RESULT:      -6.9      4.572      7.520
REMARK  8 active torsions:
REMARK  status: ('A' for Active; 'I' for Inactive)
REMARK    1  A    between atoms: N1_1  and  C1_2 
REMARK    2  A    between atoms: C2_3  and  C3_4 
REMARK    3  A    between atoms: C4_5  and  C5_6 
REMARK    4  A    between atoms: C6_7  and  O1_8 
REMARK    5  A    between atoms: O1_8  and  C7_9 
REMARK    6  A    between atoms: C9_11  and  N2_12 
REMARK    7  A    between atoms: N2_12  and  C10_13 
REMARK    8  A    between atoms: C10_13  and  C11_14 
ROOT
HETATM    1  C7  UNL     1      28.460   5.957  48.206  1.00  0.00     0.058 A 
HETATM    2  C8  UNL     1      27.947   4.762  48.547  1.00  0.00     0.061 A 
HETATM    3  C9  UNL     1      26.555   4.982  48.989  1.00  0.00     0.027 A 
HETATM    4  C17 UNL     1      26.293   6.276  48.897  1.00  0.00     0.009 A 
HETATM    5  C18 UNL     1      27.448   7.037  48.398  1.00  0.00     0.094 A 
ENDROOT
BRANCH   1   6
HETATM    6  O1  UNL     1      29.736   6.295  47.724  1.00  0.00    -0.327 OA
BRANCH   6   7
HETATM    7  C6  UNL     1      30.820   6.405  48.614  1.00  0.00     0.142 C 
HETATM    8  C5  UNL     1      31.573   5.362  48.215  1.00  0.00     0.024 C 
BRANCH   8   9
HETATM    9  C4  UNL     1      31.554   4.274  47.214  1.00  0.00    -0.002 C 
HETATM   10  C3  UNL     1      32.389   3.306  46.769  1.00  0.00    -0.019 C 
BRANCH  10  11
HETATM   11  C2  UNL     1      33.483   3.651  47.656  1.00  0.00     0.117 C 
HETATM   12  C1  UNL     1      34.782   3.444  47.635  1.00  0.00     0.202 C 
BRANCH  12  13
HETATM   13  N1  UNL     1      35.134   4.104  48.875  1.00  0.00     0.079 NA
HETATM   14  H1  UNL     1      35.182   5.019  49.403  1.00  0.00     0.312 HD
HETATM   15  H2  UNL     1      35.171   5.038  49.382  1.00  0.00     0.312 HD
ENDBRANCH  12  13
ENDBRANCH  10  11
ENDBRANCH   8   9
ENDBRANCH   6   7
ENDBRANCH   1   6
BRANCH   3  16
HETATM   16  N2  UNL     1      25.750   3.885  49.416  1.00  0.00    -0.386 N 
HETATM   17  H10 UNL     1      25.649   2.940  48.958  1.00  0.00     0.160 HD
BRANCH  16  18
HETATM   18  C10 UNL     1      24.978   4.093  50.629  1.00  0.00     0.158 C 
BRANCH  18  19
HETATM   19  C11 UNL     1      25.112   2.866  51.459  1.00  0.00    -0.041 A 
HETATM   20  C12 UNL     1      24.124   2.489  52.359  1.00  0.00     0.010 A 
HETATM   21  C13 UNL     1      24.290   1.350  53.104  1.00  0.00     0.024 A 
HETATM   22  C14 UNL     1      25.404   0.530  53.019  1.00  0.00     0.034 A 
HETATM   23 CL1  UNL     1      25.626  -0.926  53.963  1.00  0.00    -0.084 Cl
HETATM   24  C15 UNL     1      26.402   0.892  52.124  1.00  0.00     0.024 A 
HETATM   25  C16 UNL     1      26.215   2.041  51.384  1.00  0.00     0.010 A 
ENDBRANCH  18  19
ENDBRANCH  16  18
ENDBRANCH   3  16
TORSDOF 8
ENDMDL
MODEL 9
REMARK VINA RESULT:      -6.9      1.433      2.156
REMARK  8 active torsions:
REMARK  status: ('A' for Active; 'I' for Inactive)
REMARK    1  A    between atoms: N1_1  and  C1_2 
REMARK    2  A    between atoms: C2_3  and  C3_4 
REMARK    3  A    between atoms: C4_5  and  C5_6 
REMARK    4  A    between atoms: C6_7  and  O1_8 
REMARK    5  A    between atoms: O1_8  and  C7_9 
REMARK    6  A    between atoms: C9_11  and  N2_12 
REMARK    7  A    between atoms: N2_12  and  C10_13 
REMARK    8  A    between atoms: C10_13  and  C11_14 
ROOT
HETATM    1  C7  UNL     1      26.061   1.936  51.316  1.00  0.00     0.058 A 
HETATM    2  C8  UNL     1      26.750   2.843  50.600  1.00  0.00     0.061 A 
HETATM    3  C9  UNL     1      25.847   3.978  50.326  1.00  0.00     0.027 A 
HETATM    4  C17 UNL     1      24.673   3.714  50.877  1.00  0.00     0.009 A 
HETATM    5  C18 UNL     1      24.667   2.411  51.559  1.00  0.00     0.094 A 
ENDROOT
BRANCH   1   6
HETATM    6  O1  UNL     1      26.457   0.690  51.828  1.00  0.00    -0.327 OA
BRANCH   6   7
HETATM    7  C6  UNL     1      25.853   0.179  52.991  1.00  0.00     0.142 C 
HETATM    8  C5  UNL     1      26.890   0.228  53.849  1.00  0.00     0.024 C 
BRANCH   8   9
HETATM    9  C4  UNL     1      28.313   0.629  53.878  1.00  0.00    -0.002 C 
HETATM   10  C3  UNL     1      29.521   0.053  53.676  1.00  0.00    -0.019 C 
BRANCH  10  11
HETATM   11  C2  UNL     1      28.995  -1.265  53.378  1.00  0.00     0.117 C 
HETATM   12  C1  UNL     1      29.502  -2.480  53.387  1.00  0.00     0.202 C 
BRANCH  12  13
HETATM   13  N1  UNL     1      28.328  -3.216  52.967  1.00  0.00     0.079 NA
HETATM   14  H1  UNL     1      27.274  -3.216  52.878  1.00  0.00     0.312 HD
HETATM   15  H2  UNL     1      27.267  -3.189  52.889  1.00  0.00     0.312 HD
ENDBRANCH  12  13
ENDBRANCH  10  11
ENDBRANCH   8   9
ENDBRANCH   6   7
ENDBRANCH   1   6
BRANCH   3  16
HETATM   16  N2  UNL     1      26.305   5.102  49.578  1.00  0.00    -0.386 N 
HETATM   17  H10 UNL     1      25.918   6.084  49.582  1.00  0.00     0.160 HD
BRANCH  16  18
HETATM   18  C10 UNL     1      27.443   4.868  48.706  1.00  0.00     0.158 C 
BRANCH  18  19
HETATM   19  C11 UNL     1      27.894   6.190  48.196  1.00  0.00    -0.041 A 
HETATM   20  C12 UNL     1      29.239   6.466  47.986  1.00  0.00     0.010 A 
HETATM   21  C13 UNL     1      29.608   7.699  47.514  1.00  0.00     0.024 A 
HETATM   22  C14 UNL     1      28.709   8.715  47.225  1.00  0.00     0.034 A 
HETATM   23 CL1  UNL     1      29.168  10.291  46.623  1.00  0.00    -0.084 Cl
HETATM   24  C15 UNL     1      27.360   8.456  47.430  1.00  0.00     0.024 A 
HETATM   25  C16 UNL     1      27.010   7.209  47.905  1.00  0.00     0.010 A 
ENDBRANCH  18  19
ENDBRANCH  16  18
ENDBRANCH   3  16
TORSDOF 8
ENDMDL
