MODEL 1
REMARK VINA RESULT:      -8.1      0.000      0.000
REMARK  8 active torsions:
REMARK  status: ('A' for Active; 'I' for Inactive)
REMARK    1  A    between atoms: C3_3  and  C4_4 
REMARK    2  A    between atoms: C5_5  and  N1_6 
REMARK    3  A    between atoms: N1_6  and  C6_7 
REMARK    4  A    between atoms: C10_13  and  C11_14 
REMARK    5  A    between atoms: C16_20  and  N4_21 
REMARK    6  A    between atoms: N4_21  and  C18_23 
REMARK    7  A    between atoms: C18_23  and  C19_24 
REMARK    8  A    between atoms: C19_24  and  N5_25 
ROOT
HETATM    1  C6  UNL     1      24.824  -0.358  54.198  1.00  0.00     0.141 A 
HETATM    2  N2  UNL     1      24.828  -1.143  55.288  1.00  0.00    -0.224 NA
HETATM    3  C7  UNL     1      23.626  -1.611  55.727  1.00  0.00     0.236 A 
HETATM    4  N3  UNL     1      22.466  -1.294  55.084  1.00  0.00    -0.241 NA
HETATM    5  C8  UNL     1      22.505  -0.506  53.995  1.00  0.00     0.072 A 
HETATM    6  C9  UNL     1      21.355  -0.168  53.316  1.00  0.00     0.042 A 
HETATM    7  C10 UNL     1      21.243   0.621  52.193  1.00  0.00    -0.023 A 
HETATM    8  C16 UNL     1      22.485   1.101  51.747  1.00  0.00     0.037 A 
HETATM    9  C22 UNL     1      23.689   0.797  52.389  1.00  0.00     0.047 A 
HETATM   10  C23 UNL     1      23.689  -0.002  53.505  1.00  0.00     0.041 A 
ENDROOT
BRANCH   1  11
HETATM   11  N1  UNL     1      26.088   0.107  53.754  1.00  0.00    -0.350 N 
HETATM   12  H8  UNL     1      26.564   1.030  53.832  1.00  0.00     0.166 HD
BRANCH  11  13
HETATM   13  C5  UNL     1      26.993  -0.756  53.042  1.00  0.00     0.090 C 
HETATM   14  C4  UNL     1      28.290  -0.839  53.263  1.00  0.00     0.017 C 
BRANCH  14  15
HETATM   15  C3  UNL     1      29.063  -0.110  54.232  1.00  0.00    -0.003 C 
HETATM   16  C2  UNL     1      29.272   1.157  54.392  1.00  0.00    -0.031 C 
HETATM   17  C1  UNL     1      28.781   2.327  53.627  1.00  0.00     0.036 C 
ENDBRANCH  14  15
ENDBRANCH  11  13
ENDBRANCH   1  11
BRANCH   8  18
HETATM   18  N4  UNL     1      22.699   1.949  50.600  1.00  0.00    -0.383 N 
HETATM   19  C17 UNL     1      22.322   1.897  49.202  1.00  0.00     0.149 C 
BRANCH  18  20
HETATM   20  C18 UNL     1      23.481   3.165  50.875  1.00  0.00     0.152 C 
BRANCH  20  21
HETATM   21  C19 UNL     1      24.414   3.445  49.729  1.00  0.00     0.291 C 
BRANCH  21  22
HETATM   22  N5  UNL     1      25.703   3.814  50.301  1.00  0.00     0.081 N 
HETATM   23  C20 UNL     1      26.426   4.574  49.300  1.00  0.00     0.309 C 
HETATM   24  C21 UNL     1      26.438   2.676  50.763  1.00  0.00     0.309 C 
ENDBRANCH  21  22
ENDBRANCH  20  21
ENDBRANCH  18  20
ENDBRANCH   8  18
BRANCH   7  25
HETATM   25  C11 UNL     1      20.070   0.995  51.456  1.00  0.00     0.051 C 
HETATM   26  C12 UNL     1      19.254   2.144  51.913  1.00  0.00     0.038 C 
HETATM   27  C13 UNL     1      17.980   1.923  51.083  1.00  0.00     0.169 C 
HETATM   28  O1  UNL     1      18.132   0.706  50.427  1.00  0.00    -0.386 OA
HETATM   29  C14 UNL     1      19.005  -0.053  51.261  1.00  0.00     0.126 C 
HETATM   30  C15 UNL     1      18.203  -0.412  52.455  1.00  0.00     0.040 C 
ENDBRANCH   7  25
TORSDOF 8
ENDMDL
MODEL 2
REMARK VINA RESULT:      -7.9      2.886      6.466
REMARK  8 active torsions:
REMARK  status: ('A' for Active; 'I' for Inactive)
REMARK    1  A    between atoms: C3_3  and  C4_4 
REMARK    2  A    between atoms: C5_5  and  N1_6 
REMARK    3  A    between atoms: N1_6  and  C6_7 
REMARK    4  A    between atoms: C10_13  and  C11_14 
REMARK    5  A    between atoms: C16_20  and  N4_21 
REMARK    6  A    between atoms: N4_21  and  C18_23 
REMARK    7  A    between atoms: C18_23  and  C19_24 
REMARK    8  A    between atoms: C19_24  and  N5_25 
ROOT
HETATM    1  C6  UNL     1      20.224   0.179  52.951  1.00  0.00     0.141 A 
HETATM    2  N2  UNL     1      19.766  -0.927  53.562  1.00  0.00    -0.224 NA
HETATM    3  C7  UNL     1      20.674  -1.699  54.223  1.00  0.00     0.236 A 
HETATM    4  N3  UNL     1      21.994  -1.362  54.261  1.00  0.00    -0.241 NA
HETATM    5  C8  UNL     1      22.413  -0.246  53.637  1.00  0.00     0.072 A 
HETATM    6  C9  UNL     1      23.738   0.129  53.658  1.00  0.00     0.042 A 
HETATM    7  C10 UNL     1      24.307   1.237  53.070  1.00  0.00    -0.023 A 
HETATM    8  C16 UNL     1      23.366   2.028  52.390  1.00  0.00     0.037 A 
HETATM    9  C22 UNL     1      22.007   1.704  52.330  1.00  0.00     0.047 A 
HETATM   10  C23 UNL     1      21.544   0.573  52.953  1.00  0.00     0.041 A 
ENDROOT
BRANCH   1  11
HETATM   11  N1  UNL     1      19.259   0.972  52.280  1.00  0.00    -0.350 N 
HETATM   12  H8  UNL     1      18.961   1.963  52.395  1.00  0.00     0.166 HD
BRANCH  11  13
HETATM   13  C5  UNL     1      18.461   0.431  51.212  1.00  0.00     0.090 C 
HETATM   14  C4  UNL     1      18.450   0.881  49.974  1.00  0.00     0.017 C 
BRANCH  14  15
HETATM   15  C3  UNL     1      19.208   1.978  49.432  1.00  0.00    -0.003 C 
HETATM   16  C2  UNL     1      20.411   2.044  48.958  1.00  0.00    -0.031 C 
HETATM   17  C1  UNL     1      21.450   1.000  48.798  1.00  0.00     0.036 C 
ENDBRANCH  14  15
ENDBRANCH  11  13
ENDBRANCH   1  11
BRANCH   8  18
HETATM   18  N4  UNL     1      23.650   3.249  51.678  1.00  0.00    -0.383 N 
HETATM   19  C17 UNL     1      24.341   3.583  50.449  1.00  0.00     0.149 C 
BRANCH  18  20
HETATM   20  C18 UNL     1      23.129   4.467  52.321  1.00  0.00     0.152 C 
BRANCH  20  21
HETATM   21  C19 UNL     1      23.119   5.603  51.335  1.00  0.00     0.291 C 
BRANCH  21  22
HETATM   22  N5  UNL     1      21.777   6.173  51.346  1.00  0.00     0.081 N 
HETATM   23  C20 UNL     1      20.868   5.167  50.831  1.00  0.00     0.309 C 
HETATM   24  C21 UNL     1      21.704   7.403  50.618  1.00  0.00     0.309 C 
ENDBRANCH  21  22
ENDBRANCH  20  21
ENDBRANCH  18  20
ENDBRANCH   8  18
BRANCH   7  25
HETATM   25  C11 UNL     1      25.676   1.666  53.069  1.00  0.00     0.051 C 
HETATM   26  C12 UNL     1      26.648   1.008  52.164  1.00  0.00     0.038 C 
HETATM   27  C13 UNL     1      27.968   1.512  52.766  1.00  0.00     0.169 C 
HETATM   28  O1  UNL     1      27.644   2.203  53.928  1.00  0.00    -0.386 OA
HETATM   29  C14 UNL     1      26.425   1.616  54.376  1.00  0.00     0.126 C 
HETATM   30  C15 UNL     1      26.792   0.270  54.877  1.00  0.00     0.040 C 
ENDBRANCH   7  25
TORSDOF 8
ENDMDL
MODEL 3
REMARK VINA RESULT:      -7.9      1.171      1.528
REMARK  8 active torsions:
REMARK  status: ('A' for Active; 'I' for Inactive)
REMARK    1  A    between atoms: C3_3  and  C4_4 
REMARK    2  A    between atoms: C5_5  and  N1_6 
REMARK    3  A    between atoms: N1_6  and  C6_7 
REMARK    4  A    between atoms: C10_13  and  C11_14 
REMARK    5  A    between atoms: C16_20  and  N4_21 
REMARK    6  A    between atoms: N4_21  and  C18_23 
REMARK    7  A    between atoms: C18_23  and  C19_24 
REMARK    8  A    between atoms: C19_24  and  N5_25 
ROOT
HETATM    1  C6  UNL     1      24.743  -0.379  54.170  1.00  0.00     0.141 A 
HETATM    2  N2  UNL     1      24.762  -1.131  55.284  1.00  0.00    -0.224 NA
HETATM    3  C7  UNL     1      23.567  -1.598  55.745  1.00  0.00     0.236 A 
HETATM    4  N3  UNL     1      22.401  -1.313  55.100  1.00  0.00    -0.241 NA
HETATM    5  C8  UNL     1      22.424  -0.557  53.988  1.00  0.00     0.072 A 
HETATM    6  C9  UNL     1      21.265  -0.252  53.307  1.00  0.00     0.042 A 
HETATM    7  C10 UNL     1      21.138   0.502  52.162  1.00  0.00    -0.023 A 
HETATM    8  C16 UNL     1      22.372   0.982  51.693  1.00  0.00     0.037 A 
HETATM    9  C22 UNL     1      23.583   0.709  52.336  1.00  0.00     0.047 A 
HETATM   10  C23 UNL     1      23.599  -0.056  53.475  1.00  0.00     0.041 A 
ENDROOT
BRANCH   1  11
HETATM   11  N1  UNL     1      25.998   0.086  53.704  1.00  0.00    -0.350 N 
HETATM   12  H8  UNL     1      26.463   1.017  53.749  1.00  0.00     0.166 HD
BRANCH  11  13
HETATM   13  C5  UNL     1      26.910  -0.789  53.016  1.00  0.00     0.090 C 
HETATM   14  C4  UNL     1      28.203  -0.874  53.257  1.00  0.00     0.017 C 
BRANCH  14  15
HETATM   15  C3  UNL     1      28.965  -0.135  54.227  1.00  0.00    -0.003 C 
HETATM   16  C2  UNL     1      29.190   1.133  54.364  1.00  0.00    -0.031 C 
HETATM   17  C1  UNL     1      28.735   2.291  53.561  1.00  0.00     0.036 C 
ENDBRANCH  14  15
ENDBRANCH  11  13
ENDBRANCH   1  11
BRANCH   8  18
HETATM   18  N4  UNL     1      22.569   1.797  50.520  1.00  0.00    -0.383 N 
HETATM   19  C17 UNL     1      22.131   1.731  49.141  1.00  0.00     0.149 C 
BRANCH  18  20
HETATM   20  C18 UNL     1      23.407   2.987  50.736  1.00  0.00     0.152 C 
BRANCH  20  21
HETATM   21  C19 UNL     1      22.666   4.223  50.303  1.00  0.00     0.291 C 
BRANCH  21  22
HETATM   22  N5  UNL     1      22.113   4.837  51.503  1.00  0.00     0.081 N 
HETATM   23  C20 UNL     1      21.718   6.190  51.162  1.00  0.00     0.309 C 
HETATM   24  C21 UNL     1      23.025   4.793  52.605  1.00  0.00     0.309 C 
ENDBRANCH  21  22
ENDBRANCH  20  21
ENDBRANCH  18  20
ENDBRANCH   8  18
BRANCH   7  25
HETATM   25  C11 UNL     1      19.957   0.841  51.422  1.00  0.00     0.051 C 
HETATM   26  C12 UNL     1      19.170   2.036  51.807  1.00  0.00     0.038 C 
HETATM   27  C13 UNL     1      17.875   1.777  51.021  1.00  0.00     0.169 C 
HETATM   28  O1  UNL     1      17.992   0.512  50.457  1.00  0.00    -0.386 OA
HETATM   29  C14 UNL     1      18.869  -0.198  51.327  1.00  0.00     0.126 C 
HETATM   30  C15 UNL     1      18.087  -0.451  52.561  1.00  0.00     0.040 C 
ENDBRANCH   7  25
TORSDOF 8
ENDMDL
MODEL 4
REMARK VINA RESULT:      -7.7      2.240      5.738
REMARK  8 active torsions:
REMARK  status: ('A' for Active; 'I' for Inactive)
REMARK    1  A    between atoms: C3_3  and  C4_4 
REMARK    2  A    between atoms: C5_5  and  N1_6 
REMARK    3  A    between atoms: N1_6  and  C6_7 
REMARK    4  A    between atoms: C10_13  and  C11_14 
REMARK    5  A    between atoms: C16_20  and  N4_21 
REMARK    6  A    between atoms: N4_21  and  C18_23 
REMARK    7  A    between atoms: C18_23  and  C19_24 
REMARK    8  A    between atoms: C19_24  and  N5_25 
ROOT
HETATM    1  C6  UNL     1      26.010   0.083  53.342  1.00  0.00     0.141 A 
HETATM    2  N2  UNL     1      27.229  -0.053  53.890  1.00  0.00    -0.224 NA
HETATM    3  C7  UNL     1      28.182   0.852  53.529  1.00  0.00     0.236 A 
HETATM    4  N3  UNL     1      27.908   1.854  52.647  1.00  0.00    -0.241 NA
HETATM    5  C8  UNL     1      26.674   1.956  52.120  1.00  0.00     0.072 A 
HETATM    6  C9  UNL     1      26.359   2.958  51.229  1.00  0.00     0.042 A 
HETATM    7  C10 UNL     1      25.147   3.186  50.616  1.00  0.00    -0.023 A 
HETATM    8  C16 UNL     1      24.170   2.251  50.991  1.00  0.00     0.037 A 
HETATM    9  C22 UNL     1      24.424   1.210  51.890  1.00  0.00     0.047 A 
HETATM   10  C23 UNL     1      25.671   1.072  52.445  1.00  0.00     0.041 A 
ENDROOT
BRANCH   1  11
HETATM   11  N1  UNL     1      25.032  -0.863  53.741  1.00  0.00    -0.350 N 
HETATM   12  H8  UNL     1      24.503  -1.591  53.216  1.00  0.00     0.166 HD
BRANCH  11  13
HETATM   13  C5  UNL     1      24.586  -0.945  55.106  1.00  0.00     0.090 C 
HETATM   14  C4  UNL     1      23.379  -1.310  55.487  1.00  0.00     0.017 C 
BRANCH  14  15
HETATM   15  C3  UNL     1      22.274  -1.694  54.649  1.00  0.00    -0.003 C 
HETATM   16  C2  UNL     1      21.250  -1.033  54.214  1.00  0.00    -0.031 C 
HETATM   17  C1  UNL     1      20.845   0.377  54.423  1.00  0.00     0.036 C 
ENDBRANCH  14  15
ENDBRANCH  11  13
ENDBRANCH   1  11
BRANCH   8  18
HETATM   18  N4  UNL     1      22.806   2.223  50.523  1.00  0.00    -0.383 N 
HETATM   19  C17 UNL     1      22.159   1.911  49.265  1.00  0.00     0.149 C 
BRANCH  18  20
HETATM   20  C18 UNL     1      21.804   2.594  51.537  1.00  0.00     0.152 C 
BRANCH  20  21
HETATM   21  C19 UNL     1      20.434   2.622  50.917  1.00  0.00     0.291 C 
BRANCH  21  22
HETATM   22  N5  UNL     1      19.806   3.876  51.315  1.00  0.00     0.081 N 
HETATM   23  C20 UNL     1      18.382   3.632  51.444  1.00  0.00     0.309 C 
HETATM   24  C21 UNL     1      20.100   4.942  50.406  1.00  0.00     0.309 C 
ENDBRANCH  21  22
ENDBRANCH  20  21
ENDBRANCH  18  20
ENDBRANCH   8  18
BRANCH   7  25
HETATM   25  C11 UNL     1      24.776   4.216  49.688  1.00  0.00     0.051 C 
HETATM   26  C12 UNL     1      25.824   5.081  49.098  1.00  0.00     0.038 C 
HETATM   27  C13 UNL     1      24.954   6.202  48.509  1.00  0.00     0.169 C 
HETATM   28  O1  UNL     1      23.649   5.959  48.922  1.00  0.00    -0.386 OA
HETATM   29  C14 UNL     1      23.780   5.247  50.150  1.00  0.00     0.126 C 
HETATM   30  C15 UNL     1      24.265   6.241  51.137  1.00  0.00     0.040 C 
ENDBRANCH   7  25
TORSDOF 8
ENDMDL
MODEL 5
REMARK VINA RESULT:      -7.7      2.323      5.456
REMARK  8 active torsions:
REMARK  status: ('A' for Active; 'I' for Inactive)
REMARK    1  A    between atoms: C3_3  and  C4_4 
REMARK    2  A    between atoms: C5_5  and  N1_6 
REMARK    3  A    between atoms: N1_6  and  C6_7 
REMARK    4  A    between atoms: C10_13  and  C11_14 
REMARK    5  A    between atoms: C16_20  and  N4_21 
REMARK    6  A    between atoms: N4_21  and  C18_23 
REMARK    7  A    between atoms: C18_23  and  C19_24 
REMARK    8  A    between atoms: C19_24  and  N5_25 
ROOT
HETATM    1  C6  UNL     1      25.684   0.195  53.061  1.00  0.00     0.141 A 
HETATM    2  N2  UNL     1      26.974   0.083  53.422  1.00  0.00    -0.224 NA
HETATM    3  C7  UNL     1      27.832   1.048  52.985  1.00  0.00     0.236 A 
HETATM    4  N3  UNL     1      27.397   2.084  52.214  1.00  0.00    -0.241 NA
HETATM    5  C8  UNL     1      26.098   2.161  51.875  1.00  0.00     0.072 A 
HETATM    6  C9  UNL     1      25.621   3.196  51.101  1.00  0.00     0.042 A 
HETATM    7  C10 UNL     1      24.326   3.403  50.681  1.00  0.00    -0.023 A 
HETATM    8  C16 UNL     1      23.448   2.405  51.132  1.00  0.00     0.037 A 
HETATM    9  C22 UNL     1      23.866   1.328  51.921  1.00  0.00     0.047 A 
HETATM   10  C23 UNL     1      25.184   1.216  52.284  1.00  0.00     0.041 A 
ENDROOT
BRANCH   1  11
HETATM   11  N1  UNL     1      24.809  -0.815  53.536  1.00  0.00    -0.350 N 
HETATM   12  H8  UNL     1      24.289  -1.577  53.054  1.00  0.00     0.166 HD
BRANCH  11  13
HETATM   13  C5  UNL     1      24.487  -0.926  54.934  1.00  0.00     0.090 C 
HETATM   14  C4  UNL     1      23.322  -1.317  55.412  1.00  0.00     0.017 C 
BRANCH  14  15
HETATM   15  C3  UNL     1      22.154  -1.706  54.667  1.00  0.00    -0.003 C 
HETATM   16  C2  UNL     1      21.171  -1.017  54.183  1.00  0.00    -0.031 C 
HETATM   17  C1  UNL     1      20.895   0.439  54.219  1.00  0.00     0.036 C 
ENDBRANCH  14  15
ENDBRANCH  11  13
ENDBRANCH   1  11
BRANCH   8  18
HETATM   18  N4  UNL     1      22.032   2.342  50.862  1.00  0.00    -0.383 N 
HETATM   19  C17 UNL     1      20.851   2.957  51.433  1.00  0.00     0.149 C 
BRANCH  18  20
HETATM   20  C18 UNL     1      21.661   1.453  49.749  1.00  0.00     0.152 C 
BRANCH  20  21
HETATM   21  C19 UNL     1      20.500   2.037  48.992  1.00  0.00     0.291 C 
BRANCH  21  22
HETATM   22  N5  UNL     1      21.012   2.507  47.710  1.00  0.00     0.081 N 
HETATM   23  C20 UNL     1      22.360   1.992  47.561  1.00  0.00     0.309 C 
HETATM   24  C21 UNL     1      20.952   3.932  47.591  1.00  0.00     0.309 C 
ENDBRANCH  21  22
ENDBRANCH  20  21
ENDBRANCH  18  20
ENDBRANCH   8  18
BRANCH   7  25
HETATM   25  C11 UNL     1      23.787   4.464  49.880  1.00  0.00     0.051 C 
HETATM   26  C12 UNL     1      24.649   5.131  48.875  1.00  0.00     0.038 C 
HETATM   27  C13 UNL     1      23.799   6.373  48.566  1.00  0.00     0.169 C 
HETATM   28  O1  UNL     1      22.729   6.360  49.453  1.00  0.00    -0.386 OA
HETATM   29  C14 UNL     1      23.209   5.657  50.596  1.00  0.00     0.126 C 
HETATM   30  C15 UNL     1      24.178   6.570  51.249  1.00  0.00     0.040 C 
ENDBRANCH   7  25
TORSDOF 8
ENDMDL
MODEL 6
REMARK VINA RESULT:      -7.5      2.184      4.831
REMARK  8 active torsions:
REMARK  status: ('A' for Active; 'I' for Inactive)
REMARK    1  A    between atoms: C3_3  and  C4_4 
REMARK    2  A    between atoms: C5_5  and  N1_6 
REMARK    3  A    between atoms: N1_6  and  C6_7 
REMARK    4  A    between atoms: C10_13  and  C11_14 
REMARK    5  A    between atoms: C16_20  and  N4_21 
REMARK    6  A    between atoms: N4_21  and  C18_23 
REMARK    7  A    between atoms: C18_23  and  C19_24 
REMARK    8  A    between atoms: C19_24  and  N5_25 
ROOT
HETATM    1  C6  UNL     1      26.561   2.598  51.210  1.00  0.00     0.141 A 
HETATM    2  N2  UNL     1      27.669   2.558  51.969  1.00  0.00    -0.224 NA
HETATM    3  C7  UNL     1      27.593   1.889  53.154  1.00  0.00     0.236 A 
HETATM    4  N3  UNL     1      26.437   1.284  53.551  1.00  0.00    -0.241 NA
HETATM    5  C8  UNL     1      25.350   1.347  52.762  1.00  0.00     0.072 A 
HETATM    6  C9  UNL     1      24.166   0.745  53.128  1.00  0.00     0.042 A 
HETATM    7  C10 UNL     1      22.982   0.724  52.425  1.00  0.00    -0.023 A 
HETATM    8  C16 UNL     1      23.067   1.416  51.207  1.00  0.00     0.037 A 
HETATM    9  C22 UNL     1      24.237   2.049  50.776  1.00  0.00     0.047 A 
HETATM   10  C23 UNL     1      25.365   2.009  51.555  1.00  0.00     0.041 A 
ENDROOT
BRANCH   1  11
HETATM   11  N1  UNL     1      26.669   3.291  49.977  1.00  0.00    -0.350 N 
HETATM   12  H8  UNL     1      27.159   3.067  49.086  1.00  0.00     0.166 HD
BRANCH  11  13
HETATM   13  C5  UNL     1      26.027   4.563  49.778  1.00  0.00     0.090 C 
HETATM   14  C4  UNL     1      26.549   5.577  49.117  1.00  0.00     0.017 C 
BRANCH  14  15
HETATM   15  C3  UNL     1      27.834   5.636  48.471  1.00  0.00    -0.003 C 
HETATM   16  C2  UNL     1      28.410   6.567  47.780  1.00  0.00    -0.031 C 
HETATM   17  C1  UNL     1      27.948   7.924  47.405  1.00  0.00     0.036 C 
ENDBRANCH  14  15
ENDBRANCH  11  13
ENDBRANCH   1  11
BRANCH   8  18
HETATM   18  N4  UNL     1      22.000   1.572  50.249  1.00  0.00    -0.383 N 
HETATM   19  C17 UNL     1      21.189   0.667  49.460  1.00  0.00     0.149 C 
BRANCH  18  20
HETATM   20  C18 UNL     1      21.613   2.968  49.985  1.00  0.00     0.152 C 
BRANCH  20  21
HETATM   21  C19 UNL     1      20.697   3.461  51.071  1.00  0.00     0.291 C 
BRANCH  21  22
HETATM   22  N5  UNL     1      21.053   4.848  51.341  1.00  0.00     0.081 N 
HETATM   23  C20 UNL     1      21.158   5.530  50.065  1.00  0.00     0.309 C 
HETATM   24  C21 UNL     1      22.247   4.961  52.122  1.00  0.00     0.309 C 
ENDBRANCH  21  22
ENDBRANCH  20  21
ENDBRANCH  18  20
ENDBRANCH   8  18
BRANCH   7  25
HETATM   25  C11 UNL     1      21.731   0.109  52.766  1.00  0.00     0.051 C 
HETATM   26  C12 UNL     1      20.708   0.890  53.499  1.00  0.00     0.038 C 
HETATM   27  C13 UNL     1      19.767  -0.239  53.945  1.00  0.00     0.169 C 
HETATM   28  O1  UNL     1      20.378  -1.436  53.591  1.00  0.00    -0.386 OA
HETATM   29  C14 UNL     1      21.775  -1.150  53.594  1.00  0.00     0.126 C 
HETATM   30  C15 UNL     1      22.146  -0.992  55.020  1.00  0.00     0.040 C 
ENDBRANCH   7  25
TORSDOF 8
ENDMDL
MODEL 7
REMARK VINA RESULT:      -7.3      2.577      6.339
REMARK  8 active torsions:
REMARK  status: ('A' for Active; 'I' for Inactive)
REMARK    1  A    between atoms: C3_3  and  C4_4 
REMARK    2  A    between atoms: C5_5  and  N1_6 
REMARK    3  A    between atoms: N1_6  and  C6_7 
REMARK    4  A    between atoms: C10_13  and  C11_14 
REMARK    5  A    between atoms: C16_20  and  N4_21 
REMARK    6  A    between atoms: N4_21  and  C18_23 
REMARK    7  A    between atoms: C18_23  and  C19_24 
REMARK    8  A    between atoms: C19_24  and  N5_25 
ROOT
HETATM    1  C6  UNL     1      25.794   5.644  49.065  1.00  0.00     0.141 A 
HETATM    2  N2  UNL     1      25.358   6.581  48.207  1.00  0.00    -0.224 NA
HETATM    3  C7  UNL     1      24.037   6.558  47.873  1.00  0.00     0.236 A 
HETATM    4  N3  UNL     1      23.193   5.622  48.391  1.00  0.00    -0.241 NA
HETATM    5  C8  UNL     1      23.668   4.701  49.248  1.00  0.00     0.072 A 
HETATM    6  C9  UNL     1      22.844   3.742  49.795  1.00  0.00     0.042 A 
HETATM    7  C10 UNL     1      23.188   2.745  50.681  1.00  0.00    -0.023 A 
HETATM    8  C16 UNL     1      24.551   2.773  51.020  1.00  0.00     0.037 A 
HETATM    9  C22 UNL     1      25.441   3.718  50.501  1.00  0.00     0.047 A 
HETATM   10  C23 UNL     1      24.992   4.672  49.622  1.00  0.00     0.041 A 
ENDROOT
BRANCH   1  11
HETATM   11  N1  UNL     1      27.170   5.694  49.405  1.00  0.00    -0.350 N 
HETATM   12  H8  UNL     1      27.672   6.029  50.254  1.00  0.00     0.166 HD
BRANCH  11  13
HETATM   13  C5  UNL     1      28.181   5.227  48.495  1.00  0.00     0.090 C 
HETATM   14  C4  UNL     1      29.182   5.953  48.040  1.00  0.00     0.017 C 
BRANCH  14  15
HETATM   15  C3  UNL     1      29.477   7.329  48.342  1.00  0.00    -0.003 C 
HETATM   16  C2  UNL     1      30.510   7.891  48.881  1.00  0.00    -0.031 C 
HETATM   17  C1  UNL     1      31.778   7.313  49.384  1.00  0.00     0.036 C 
ENDBRANCH  14  15
ENDBRANCH  11  13
ENDBRANCH   1  11
BRANCH   8  18
HETATM   18  N4  UNL     1      25.214   1.864  51.922  1.00  0.00    -0.383 N 
HETATM   19  C17 UNL     1      24.802   1.063  53.057  1.00  0.00     0.149 C 
BRANCH  18  20
HETATM   20  C18 UNL     1      26.651   1.681  51.659  1.00  0.00     0.152 C 
BRANCH  20  21
HETATM   21  C19 UNL     1      27.188   0.558  52.504  1.00  0.00     0.291 C 
BRANCH  21  22
HETATM   22  N5  UNL     1      28.427   1.028  53.110  1.00  0.00     0.081 N 
HETATM   23  C20 UNL     1      28.735   0.147  54.221  1.00  0.00     0.309 C 
HETATM   24  C21 UNL     1      28.352   2.402  53.504  1.00  0.00     0.309 C 
ENDBRANCH  21  22
ENDBRANCH  20  21
ENDBRANCH  18  20
ENDBRANCH   8  18
BRANCH   7  25
HETATM   25  C11 UNL     1      22.365   1.732  51.276  1.00  0.00     0.051 C 
HETATM   26  C12 UNL     1      21.426   0.961  50.427  1.00  0.00     0.038 C 
HETATM   27  C13 UNL     1      20.549   0.311  51.509  1.00  0.00     0.169 C 
HETATM   28  O1  UNL     1      20.944   0.852  52.727  1.00  0.00    -0.386 OA
HETATM   29  C14 UNL     1      21.457   2.143  52.406  1.00  0.00     0.126 C 
HETATM   30  C15 UNL     1      20.276   2.962  52.041  1.00  0.00     0.040 C 
ENDBRANCH   7  25
TORSDOF 8
ENDMDL
MODEL 8
REMARK VINA RESULT:      -7.2      3.251      6.537
REMARK  8 active torsions:
REMARK  status: ('A' for Active; 'I' for Inactive)
REMARK    1  A    between atoms: C3_3  and  C4_4 
REMARK    2  A    between atoms: C5_5  and  N1_6 
REMARK    3  A    between atoms: N1_6  and  C6_7 
REMARK    4  A    between atoms: C10_13  and  C11_14 
REMARK    5  A    between atoms: C16_20  and  N4_21 
REMARK    6  A    between atoms: N4_21  and  C18_23 
REMARK    7  A    between atoms: C18_23  and  C19_24 
REMARK    8  A    between atoms: C19_24  and  N5_25 
ROOT
HETATM    1  C6  UNL     1      23.614   1.159  52.019  1.00  0.00     0.141 A 
HETATM    2  N2  UNL     1      24.409   0.501  52.879  1.00  0.00    -0.224 NA
HETATM    3  C7  UNL     1      25.711   0.897  52.958  1.00  0.00     0.236 A 
HETATM    4  N3  UNL     1      26.185   1.922  52.193  1.00  0.00    -0.241 NA
HETATM    5  C8  UNL     1      25.356   2.555  51.344  1.00  0.00     0.072 A 
HETATM    6  C9  UNL     1      25.799   3.597  50.559  1.00  0.00     0.042 A 
HETATM    7  C10 UNL     1      25.069   4.335  49.653  1.00  0.00    -0.023 A 
HETATM    8  C16 UNL     1      23.730   3.920  49.576  1.00  0.00     0.037 A 
HETATM    9  C22 UNL     1      23.217   2.871  50.345  1.00  0.00     0.047 A 
HETATM   10  C23 UNL     1      24.033   2.199  51.220  1.00  0.00     0.041 A 
ENDROOT
BRANCH   1  11
HETATM   11  N1  UNL     1      22.262   0.735  51.963  1.00  0.00    -0.350 N 
HETATM   12  H8  UNL     1      21.749   0.108  51.309  1.00  0.00     0.166 HD
BRANCH  11  13
HETATM   13  C5  UNL     1      21.299   1.182  52.934  1.00  0.00     0.090 C 
HETATM   14  C4  UNL     1      20.673   0.402  53.792  1.00  0.00     0.017 C 
BRANCH  14  15
HETATM   15  C3  UNL     1      20.807  -1.023  53.943  1.00  0.00    -0.003 C 
HETATM   16  C2  UNL     1      21.682  -1.746  54.564  1.00  0.00    -0.031 C 
HETATM   17  C1  UNL     1      22.873  -1.360  55.357  1.00  0.00     0.036 C 
ENDBRANCH  14  15
ENDBRANCH  11  13
ENDBRANCH   1  11
BRANCH   8  18
HETATM   18  N4  UNL     1      22.718   4.494  48.725  1.00  0.00    -0.383 N 
HETATM   19  C17 UNL     1      22.440   4.473  47.303  1.00  0.00     0.149 C 
BRANCH  18  20
HETATM   20  C18 UNL     1      21.708   5.300  49.432  1.00  0.00     0.152 C 
BRANCH  20  21
HETATM   21  C19 UNL     1      21.455   6.579  48.681  1.00  0.00     0.291 C 
BRANCH  21  22
HETATM   22  N5  UNL     1      21.243   7.627  49.672  1.00  0.00     0.081 N 
HETATM   23  C20 UNL     1      21.866   8.837  49.172  1.00  0.00     0.309 C 
HETATM   24  C21 UNL     1      21.727   7.255  50.967  1.00  0.00     0.309 C 
ENDBRANCH  21  22
ENDBRANCH  20  21
ENDBRANCH  18  20
ENDBRANCH   8  18
BRANCH   7  25
HETATM   25  C11 UNL     1      25.488   5.426  48.820  1.00  0.00     0.051 C 
HETATM   26  C12 UNL     1      26.933   5.660  48.595  1.00  0.00     0.038 C 
HETATM   27  C13 UNL     1      26.891   7.075  47.996  1.00  0.00     0.169 C 
HETATM   28  O1  UNL     1      25.574   7.510  48.083  1.00  0.00    -0.386 OA
HETATM   29  C14 UNL     1      25.029   6.810  49.199  1.00  0.00     0.126 C 
HETATM   30  C15 UNL     1      25.663   7.413  50.396  1.00  0.00     0.040 C 
ENDBRANCH   7  25
TORSDOF 8
ENDMDL
MODEL 9
REMARK VINA RESULT:      -7.2      1.760      2.628
REMARK  8 active torsions:
REMARK  status: ('A' for Active; 'I' for Inactive)
REMARK    1  A    between atoms: C3_3  and  C4_4 
REMARK    2  A    between atoms: C5_5  and  N1_6 
REMARK    3  A    between atoms: N1_6  and  C6_7 
REMARK    4  A    between atoms: C10_13  and  C11_14 
REMARK    5  A    between atoms: C16_20  and  N4_21 
REMARK    6  A    between atoms: N4_21  and  C18_23 
REMARK    7  A    between atoms: C18_23  and  C19_24 
REMARK    8  A    between atoms: C19_24  and  N5_25 
ROOT
HETATM    1  C6  UNL     1      23.332  -0.260  53.936  1.00  0.00     0.141 A 
HETATM    2  N2  UNL     1      22.875  -1.309  54.640  1.00  0.00    -0.224 NA
HETATM    3  C7  UNL     1      21.532  -1.537  54.625  1.00  0.00     0.236 A 
HETATM    4  N3  UNL     1      20.686  -0.732  53.921  1.00  0.00    -0.241 NA
HETATM    5  C8  UNL     1      21.182   0.308  53.228  1.00  0.00     0.072 A 
HETATM    6  C9  UNL     1      20.359   1.141  52.502  1.00  0.00     0.042 A 
HETATM    7  C10 UNL     1      20.724   2.234  51.748  1.00  0.00    -0.023 A 
HETATM    8  C16 UNL     1      22.109   2.465  51.770  1.00  0.00     0.037 A 
HETATM    9  C22 UNL     1      23.000   1.659  52.486  1.00  0.00     0.047 A 
HETATM   10  C23 UNL     1      22.530   0.590  53.207  1.00  0.00     0.041 A 
ENDROOT
BRANCH   1  11
HETATM   11  N1  UNL     1      24.734  -0.049  53.959  1.00  0.00    -0.350 N 
HETATM   12  H8  UNL     1      25.339   0.586  54.519  1.00  0.00     0.166 HD
BRANCH  11  13
HETATM   13  C5  UNL     1      25.613  -0.786  53.091  1.00  0.00     0.090 C 
HETATM   14  C4  UNL     1      26.657  -0.280  52.466  1.00  0.00     0.017 C 
BRANCH  14  15
HETATM   15  C3  UNL     1      27.133   1.078  52.510  1.00  0.00    -0.003 C 
HETATM   16  C2  UNL     1      28.119   1.625  53.145  1.00  0.00    -0.031 C 
HETATM   17  C1  UNL     1      29.126   1.043  54.063  1.00  0.00     0.036 C 
ENDBRANCH  14  15
ENDBRANCH  11  13
ENDBRANCH   1  11
BRANCH   8  18
HETATM   18  N4  UNL     1      22.797   3.528  51.081  1.00  0.00    -0.383 N 
HETATM   19  C17 UNL     1      22.997   4.943  51.318  1.00  0.00     0.149 C 
BRANCH  18  20
HETATM   20  C18 UNL     1      23.469   3.118  49.836  1.00  0.00     0.152 C 
BRANCH  20  21
HETATM   21  C19 UNL     1      23.211   4.132  48.756  1.00  0.00     0.291 C 
BRANCH  21  22
HETATM   22  N5  UNL     1      22.171   3.588  47.891  1.00  0.00     0.081 N 
HETATM   23  C20 UNL     1      22.445   2.175  47.710  1.00  0.00     0.309 C 
HETATM   24  C21 UNL     1      22.075   4.292  46.649  1.00  0.00     0.309 C 
ENDBRANCH  21  22
ENDBRANCH  20  21
ENDBRANCH  18  20
ENDBRANCH   8  18
BRANCH   7  25
HETATM   25  C11 UNL     1      19.903   3.123  50.977  1.00  0.00     0.051 C 
HETATM   26  C12 UNL     1      18.676   3.693  51.581  1.00  0.00     0.038 C 
HETATM   27  C13 UNL     1      17.979   4.236  50.323  1.00  0.00     0.169 C 
HETATM   28  O1  UNL     1      18.732   3.818  49.233  1.00  0.00    -0.386 OA
HETATM   29  C14 UNL     1      19.367   2.617  49.663  1.00  0.00     0.126 C 
HETATM   30  C15 UNL     1      18.289   1.601  49.736  1.00  0.00     0.040 C 
ENDBRANCH   7  25
TORSDOF 8
ENDMDL
