MODEL 1
REMARK VINA RESULT:      -9.1      0.000      0.000
REMARK  8 active torsions:
REMARK  status: ('A' for Active; 'I' for Inactive)
REMARK    1  A    between atoms: O1_1  and  C1_2 
REMARK    2  A    between atoms: C6_7  and  N1_8 
REMARK    3  A    between atoms: N1_8  and  C7_9 
REMARK    4  A    between atoms: C15_21  and  O2_22 
REMARK    5  A    between atoms: O2_22  and  C16_23 
REMARK    6  A    between atoms: C16_23  and  C17_24 
REMARK    7  A    between atoms: C17_24  and  C18_25 
REMARK    8  A    between atoms: C18_25  and  N4_26 
ROOT
HETATM    1  C1  UNL     1      24.460   7.049  50.561  1.00  0.00     0.071 C 
HETATM    2  C2  UNL     1      24.145   5.786  50.756  1.00  0.00     0.040 C 
HETATM    3  C3  UNL     1      24.237   4.646  49.722  1.00  0.00     0.072 C 
HETATM    4  C4  UNL     1      25.741   4.285  50.036  1.00  0.00     0.042 C 
HETATM    5  C5  UNL     1      25.720   2.979  50.526  1.00  0.00     0.033 C 
HETATM    6  C6  UNL     1      25.020   2.594  51.652  1.00  0.00     0.126 C 
HETATM    7  N2  UNL     1      24.117   3.191  52.645  1.00  0.00    -0.227 NA
HETATM    8  C13 UNL     1      23.903   4.460  52.969  1.00  0.00     0.209 C 
HETATM    9  N3  UNL     1      23.795   5.650  52.138  1.00  0.00    -0.352 N 
HETATM   10  C14 UNL     1      26.462   4.983  49.066  1.00  0.00     0.015 C 
HETATM   11  C15 UNL     1      26.196   6.335  48.886  1.00  0.00     0.049 C 
HETATM   12  C23 UNL     1      25.328   7.438  49.425  1.00  0.00     0.130 C 
HETATM   13  H11 UNL     1      23.467   6.597  52.402  1.00  0.00     0.166 HD
ENDROOT
BRANCH   6  14
HETATM   14  N1  UNL     1      25.288   1.202  51.872  1.00  0.00    -0.341 N 
HETATM   15  H6  UNL     1      24.562   0.553  51.540  1.00  0.00     0.167 HD
BRANCH  14  16
HETATM   16  C7  UNL     1      26.502   0.765  52.522  1.00  0.00     0.035 A 
HETATM   17  C8  UNL     1      26.685  -0.609  52.351  1.00  0.00     0.032 A 
HETATM   18  C9  UNL     1      27.824  -1.170  52.930  1.00  0.00     0.046 A 
HETATM   19  C10 UNL     1      28.737  -0.419  53.641  1.00  0.00     0.138 A 
HETATM   20  F1  UNL     1      29.824  -0.980  54.188  1.00  0.00    -0.204 F 
HETATM   21  C11 UNL     1      28.502   0.932  53.775  1.00  0.00     0.074 A 
HETATM   22 CL1  UNL     1      29.598   1.985  54.659  1.00  0.00    -0.081 Cl
HETATM   23  C12 UNL     1      27.398   1.540  53.227  1.00  0.00     0.056 A 
ENDBRANCH  14  16
ENDBRANCH   6  14
BRANCH  11  24
HETATM   24  O2  UNL     1      27.009   6.844  47.854  1.00  0.00    -0.355 OA
BRANCH  24  25
HETATM   25  C16 UNL     1      28.412   6.549  47.908  1.00  0.00     0.176 C 
BRANCH  25  26
HETATM   26  C17 UNL     1      29.238   7.722  47.555  1.00  0.00     0.046 C 
BRANCH  26  27
HETATM   27  C18 UNL     1      30.512   7.402  46.881  1.00  0.00     0.119 C 
BRANCH  27  28
HETATM   28  N4  UNL     1      31.665   7.262  47.675  1.00  0.00    -0.408 N 
HETATM   29  C19 UNL     1      31.537   7.440  49.071  1.00  0.00     0.143 C 
HETATM   30  C20 UNL     1      32.061   6.149  49.726  1.00  0.00     0.187 C 
HETATM   31  O3  UNL     1      31.360   5.096  49.129  1.00  0.00    -0.388 OA
HETATM   32  C21 UNL     1      31.882   4.838  47.853  1.00  0.00     0.187 C 
HETATM   33  C22 UNL     1      32.455   6.124  47.256  1.00  0.00     0.143 C 
ENDBRANCH  27  28
ENDBRANCH  26  27
ENDBRANCH  25  26
ENDBRANCH  24  25
ENDBRANCH  11  24
BRANCH   1  34
HETATM   34  O1  UNL     1      23.811   7.694  51.593  1.00  0.00    -0.363 OA
HETATM   35  H1  UNL     1      22.860   7.519  51.875  1.00  0.00     0.217 HD
ENDBRANCH   1  34
TORSDOF 8
ENDMDL
MODEL 2
REMARK VINA RESULT:      -9.0      1.568      2.476
REMARK  8 active torsions:
REMARK  status: ('A' for Active; 'I' for Inactive)
REMARK    1  A    between atoms: O1_1  and  C1_2 
REMARK    2  A    between atoms: C6_7  and  N1_8 
REMARK    3  A    between atoms: N1_8  and  C7_9 
REMARK    4  A    between atoms: C15_21  and  O2_22 
REMARK    5  A    between atoms: O2_22  and  C16_23 
REMARK    6  A    between atoms: C16_23  and  C17_24 
REMARK    7  A    between atoms: C17_24  and  C18_25 
REMARK    8  A    between atoms: C18_25  and  N4_26 
ROOT
HETATM    1  C1  UNL     1      24.782   6.916  50.556  1.00  0.00     0.071 C 
HETATM    2  C2  UNL     1      24.316   5.703  50.764  1.00  0.00     0.040 C 
HETATM    3  C3  UNL     1      24.362   4.519  49.777  1.00  0.00     0.072 C 
HETATM    4  C4  UNL     1      25.788   4.012  50.225  1.00  0.00     0.042 C 
HETATM    5  C5  UNL     1      25.586   2.736  50.752  1.00  0.00     0.033 C 
HETATM    6  C6  UNL     1      24.762   2.473  51.829  1.00  0.00     0.126 C 
HETATM    7  N2  UNL     1      23.855   3.204  52.725  1.00  0.00    -0.227 NA
HETATM    8  C13 UNL     1      23.757   4.500  52.990  1.00  0.00     0.209 C 
HETATM    9  N3  UNL     1      23.846   5.661  52.116  1.00  0.00    -0.352 N 
HETATM   10  C14 UNL     1      26.655   4.588  49.295  1.00  0.00     0.015 C 
HETATM   11  C15 UNL     1      26.555   5.952  49.052  1.00  0.00     0.049 C 
HETATM   12  C23 UNL     1      25.775   7.164  49.483  1.00  0.00     0.130 C 
HETATM   13  H11 UNL     1      23.605   6.648  52.323  1.00  0.00     0.166 HD
ENDROOT
BRANCH   6  14
HETATM   14  N1  UNL     1      24.856   1.071  52.114  1.00  0.00    -0.341 N 
HETATM   15  H6  UNL     1      24.019   0.516  51.890  1.00  0.00     0.167 HD
BRANCH  14  16
HETATM   16  C7  UNL     1      26.056   0.500  52.679  1.00  0.00     0.035 A 
HETATM   17  C8  UNL     1      26.697   1.424  53.509  1.00  0.00     0.032 A 
HETATM   18  C9  UNL     1      27.878   1.004  54.125  1.00  0.00     0.046 A 
HETATM   19  C10 UNL     1      28.401  -0.259  53.936  1.00  0.00     0.138 A 
HETATM   20  F1  UNL     1      29.535  -0.639  54.539  1.00  0.00    -0.204 F 
HETATM   21  C11 UNL     1      27.723  -1.126  53.107  1.00  0.00     0.074 A 
HETATM   22 CL1  UNL     1      28.296  -2.757  52.795  1.00  0.00    -0.081 Cl
HETATM   23  C12 UNL     1      26.556  -0.768  52.473  1.00  0.00     0.056 A 
ENDBRANCH  14  16
ENDBRANCH   6  14
BRANCH  11  24
HETATM   24  O2  UNL     1      27.497   6.330  48.075  1.00  0.00    -0.355 OA
BRANCH  24  25
HETATM   25  C16 UNL     1      28.826   5.800  48.194  1.00  0.00     0.176 C 
BRANCH  25  26
HETATM   26  C17 UNL     1      29.822   6.647  47.506  1.00  0.00     0.046 C 
BRANCH  26  27
HETATM   27  C18 UNL     1      30.625   7.507  48.397  1.00  0.00     0.119 C 
BRANCH  27  28
HETATM   28  N4  UNL     1      30.575   8.899  48.196  1.00  0.00    -0.408 N 
HETATM   29  C19 UNL     1      30.019   9.377  46.987  1.00  0.00     0.143 C 
HETATM   30  C20 UNL     1      28.876  10.330  47.380  1.00  0.00     0.187 C 
HETATM   31  O3  UNL     1      28.047   9.611  48.247  1.00  0.00    -0.388 OA
HETATM   32  C21 UNL     1      28.631   9.546  49.521  1.00  0.00     0.187 C 
HETATM   33  C22 UNL     1      30.154   9.587  49.398  1.00  0.00     0.143 C 
ENDBRANCH  27  28
ENDBRANCH  26  27
ENDBRANCH  25  26
ENDBRANCH  24  25
ENDBRANCH  11  24
BRANCH   1  34
HETATM   34  O1  UNL     1      24.130   7.668  51.510  1.00  0.00    -0.363 OA
HETATM   35  H1  UNL     1      24.502   7.892  52.420  1.00  0.00     0.217 HD
ENDBRANCH   1  34
TORSDOF 8
ENDMDL
MODEL 3
REMARK VINA RESULT:      -9.0      2.227      2.977
REMARK  8 active torsions:
REMARK  status: ('A' for Active; 'I' for Inactive)
REMARK    1  A    between atoms: O1_1  and  C1_2 
REMARK    2  A    between atoms: C6_7  and  N1_8 
REMARK    3  A    between atoms: N1_8  and  C7_9 
REMARK    4  A    between atoms: C15_21  and  O2_22 
REMARK    5  A    between atoms: O2_22  and  C16_23 
REMARK    6  A    between atoms: C16_23  and  C17_24 
REMARK    7  A    between atoms: C17_24  and  C18_25 
REMARK    8  A    between atoms: C18_25  and  N4_26 
ROOT
HETATM    1  C1  UNL     1      26.508   7.853  49.793  1.00  0.00     0.071 C 
HETATM    2  C2  UNL     1      25.577   6.922  49.790  1.00  0.00     0.040 C 
HETATM    3  C3  UNL     1      25.325   5.879  48.682  1.00  0.00     0.072 C 
HETATM    4  C4  UNL     1      26.341   4.814  49.251  1.00  0.00     0.042 C 
HETATM    5  C5  UNL     1      25.571   3.701  49.589  1.00  0.00     0.033 C 
HETATM    6  C6  UNL     1      24.540   3.733  50.508  1.00  0.00     0.126 C 
HETATM    7  N2  UNL     1      23.853   4.715  51.357  1.00  0.00    -0.227 NA
HETATM    8  C13 UNL     1      24.225   5.923  51.761  1.00  0.00     0.209 C 
HETATM    9  N3  UNL     1      24.906   6.996  51.052  1.00  0.00    -0.352 N 
HETATM   10  C14 UNL     1      27.508   5.043  48.521  1.00  0.00     0.015 C 
HETATM   11  C15 UNL     1      27.991   6.343  48.432  1.00  0.00     0.049 C 
HETATM   12  C23 UNL     1      27.684   7.739  48.899  1.00  0.00     0.130 C 
HETATM   13  H11 UNL     1      25.038   7.983  51.343  1.00  0.00     0.166 HD
ENDROOT
BRANCH   6  14
HETATM   14  N1  UNL     1      24.030   2.398  50.632  1.00  0.00    -0.341 N 
HETATM   15  H6  UNL     1      23.319   2.129  49.939  1.00  0.00     0.167 HD
BRANCH  14  16
HETATM   16  C7  UNL     1      24.498   1.510  51.671  1.00  0.00     0.035 A 
HETATM   17  C8  UNL     1      23.429   1.058  52.449  1.00  0.00     0.032 A 
HETATM   18  C9  UNL     1      23.737   0.189  53.497  1.00  0.00     0.046 A 
HETATM   19  C10 UNL     1      25.028  -0.216  53.766  1.00  0.00     0.138 A 
HETATM   20  F1  UNL     1      25.299  -1.052  54.777  1.00  0.00    -0.204 F 
HETATM   21  C11 UNL     1      26.040   0.263  52.962  1.00  0.00     0.074 A 
HETATM   22 CL1  UNL     1      27.720  -0.186  53.212  1.00  0.00    -0.081 Cl
HETATM   23  C12 UNL     1      25.797   1.122  51.916  1.00  0.00     0.056 A 
ENDBRANCH  14  16
ENDBRANCH   6  14
BRANCH  11  24
HETATM   24  O2  UNL     1      29.157   6.362  47.641  1.00  0.00    -0.355 OA
BRANCH  24  25
HETATM   25  C16 UNL     1      30.415   6.180  48.308  1.00  0.00     0.176 C 
BRANCH  25  26
HETATM   26  C17 UNL     1      31.456   5.670  47.393  1.00  0.00     0.046 C 
BRANCH  26  27
HETATM   27  C18 UNL     1      31.562   4.198  47.336  1.00  0.00     0.119 C 
BRANCH  27  28
HETATM   28  N4  UNL     1      32.413   3.632  46.368  1.00  0.00    -0.408 N 
HETATM   29  C19 UNL     1      33.002   4.493  45.414  1.00  0.00     0.143 C 
HETATM   30  C20 UNL     1      34.524   4.291  45.523  1.00  0.00     0.187 C 
HETATM   31  O3  UNL     1      34.848   4.482  46.870  1.00  0.00    -0.388 OA
HETATM   32  C21 UNL     1      34.493   3.345  47.612  1.00  0.00     0.187 C 
HETATM   33  C22 UNL     1      33.298   2.650  46.959  1.00  0.00     0.143 C 
ENDBRANCH  27  28
ENDBRANCH  26  27
ENDBRANCH  25  26
ENDBRANCH  24  25
ENDBRANCH  11  24
BRANCH   1  34
HETATM   34  O1  UNL     1      26.049   8.748  50.736  1.00  0.00    -0.363 OA
HETATM   35  H1  UNL     1      25.162   8.683  51.209  1.00  0.00     0.217 HD
ENDBRANCH   1  34
TORSDOF 8
ENDMDL
MODEL 4
REMARK VINA RESULT:      -8.9      3.337      4.113
REMARK  8 active torsions:
REMARK  status: ('A' for Active; 'I' for Inactive)
REMARK    1  A    between atoms: O1_1  and  C1_2 
REMARK    2  A    between atoms: C6_7  and  N1_8 
REMARK    3  A    between atoms: N1_8  and  C7_9 
REMARK    4  A    between atoms: C15_21  and  O2_22 
REMARK    5  A    between atoms: O2_22  and  C16_23 
REMARK    6  A    between atoms: C16_23  and  C17_24 
REMARK    7  A    between atoms: C17_24  and  C18_25 
REMARK    8  A    between atoms: C18_25  and  N4_26 
ROOT
HETATM    1  C1  UNL     1      24.909   6.978  50.568  1.00  0.00     0.071 C 
HETATM    2  C2  UNL     1      24.348   5.800  50.746  1.00  0.00     0.040 C 
HETATM    3  C3  UNL     1      24.332   4.629  49.743  1.00  0.00     0.072 C 
HETATM    4  C4  UNL     1      25.704   4.010  50.219  1.00  0.00     0.042 C 
HETATM    5  C5  UNL     1      25.393   2.747  50.722  1.00  0.00     0.033 C 
HETATM    6  C6  UNL     1      24.524   2.533  51.773  1.00  0.00     0.126 C 
HETATM    7  N2  UNL     1      23.651   3.317  52.657  1.00  0.00    -0.227 NA
HETATM    8  C13 UNL     1      23.643   4.614  52.939  1.00  0.00     0.209 C 
HETATM    9  N3  UNL     1      23.841   5.776  52.085  1.00  0.00    -0.352 N 
HETATM   10  C14 UNL     1      26.635   4.532  49.320  1.00  0.00     0.015 C 
HETATM   11  C15 UNL     1      26.643   5.903  49.095  1.00  0.00     0.049 C 
HETATM   12  C23 UNL     1      25.945   7.164  49.525  1.00  0.00     0.130 C 
HETATM   13  H11 UNL     1      23.669   6.775  52.300  1.00  0.00     0.166 HD
ENDROOT
BRANCH   6  14
HETATM   14  N1  UNL     1      24.506   1.123  52.040  1.00  0.00    -0.341 N 
HETATM   15  H6  UNL     1      25.386   0.625  51.850  1.00  0.00     0.167 HD
BRANCH  14  16
HETATM   16  C7  UNL     1      23.319   0.470  52.539  1.00  0.00     0.035 A 
HETATM   17  C8  UNL     1      23.621  -0.310  53.659  1.00  0.00     0.032 A 
HETATM   18  C9  UNL     1      22.561  -1.003  54.248  1.00  0.00     0.046 A 
HETATM   19  C10 UNL     1      21.272  -0.933  53.762  1.00  0.00     0.138 A 
HETATM   20  F1  UNL     1      20.272  -1.606  54.345  1.00  0.00    -0.204 F 
HETATM   21  C11 UNL     1      21.037  -0.146  52.655  1.00  0.00     0.074 A 
HETATM   22 CL1  UNL     1      19.435   0.017  51.952  1.00  0.00    -0.081 Cl
HETATM   23  C12 UNL     1      22.040   0.558  52.033  1.00  0.00     0.056 A 
ENDBRANCH  14  16
ENDBRANCH   6  14
BRANCH  11  24
HETATM   24  O2  UNL     1      27.637   6.222  48.148  1.00  0.00    -0.355 OA
BRANCH  24  25
HETATM   25  C16 UNL     1      28.902   5.554  48.262  1.00  0.00     0.176 C 
BRANCH  25  26
HETATM   26  C17 UNL     1      30.003   6.354  47.688  1.00  0.00     0.046 C 
BRANCH  26  27
HETATM   27  C18 UNL     1      30.640   7.294  48.631  1.00  0.00     0.119 C 
BRANCH  27  28
HETATM   28  N4  UNL     1      30.694   8.655  48.275  1.00  0.00    -0.408 N 
HETATM   29  C19 UNL     1      30.228   9.026  46.993  1.00  0.00     0.143 C 
HETATM   30  C20 UNL     1      29.134  10.086  47.216  1.00  0.00     0.187 C 
HETATM   31  O3  UNL     1      28.219   9.522  48.111  1.00  0.00    -0.388 OA
HETATM   32  C21 UNL     1      28.738   9.566  49.414  1.00  0.00     0.187 C 
HETATM   33  C22 UNL     1      30.264   9.500  49.370  1.00  0.00     0.143 C 
ENDBRANCH  27  28
ENDBRANCH  26  27
ENDBRANCH  25  26
ENDBRANCH  24  25
ENDBRANCH  11  24
BRANCH   1  34
HETATM   34  O1  UNL     1      24.290   7.764  51.517  1.00  0.00    -0.363 OA
HETATM   35  H1  UNL     1      24.674   7.984  52.422  1.00  0.00     0.217 HD
ENDBRANCH   1  34
TORSDOF 8
ENDMDL
MODEL 5
REMARK VINA RESULT:      -8.7      2.763      3.198
REMARK  8 active torsions:
REMARK  status: ('A' for Active; 'I' for Inactive)
REMARK    1  A    between atoms: O1_1  and  C1_2 
REMARK    2  A    between atoms: C6_7  and  N1_8 
REMARK    3  A    between atoms: N1_8  and  C7_9 
REMARK    4  A    between atoms: C15_21  and  O2_22 
REMARK    5  A    between atoms: O2_22  and  C16_23 
REMARK    6  A    between atoms: C16_23  and  C17_24 
REMARK    7  A    between atoms: C17_24  and  C18_25 
REMARK    8  A    between atoms: C18_25  and  N4_26 
ROOT
HETATM    1  C1  UNL     1      24.692   6.767  50.570  1.00  0.00     0.071 C 
HETATM    2  C2  UNL     1      23.751   5.848  50.515  1.00  0.00     0.040 C 
HETATM    3  C3  UNL     1      23.531   4.826  49.382  1.00  0.00     0.072 C 
HETATM    4  C4  UNL     1      24.511   3.738  49.974  1.00  0.00     0.042 C 
HETATM    5  C5  UNL     1      23.713   2.631  50.263  1.00  0.00     0.033 C 
HETATM    6  C6  UNL     1      22.647   2.661  51.140  1.00  0.00     0.126 C 
HETATM    7  N2  UNL     1      21.938   3.639  51.977  1.00  0.00    -0.227 NA
HETATM    8  C13 UNL     1      22.309   4.836  52.414  1.00  0.00     0.209 C 
HETATM    9  N3  UNL     1      23.031   5.911  51.751  1.00  0.00    -0.352 N 
HETATM   10  C14 UNL     1      25.709   3.964  49.294  1.00  0.00     0.015 C 
HETATM   11  C15 UNL     1      26.210   5.259  49.246  1.00  0.00     0.049 C 
HETATM   12  C23 UNL     1      25.902   6.652  49.722  1.00  0.00     0.130 C 
HETATM   13  H11 UNL     1      23.163   6.891  52.062  1.00  0.00     0.166 HD
ENDROOT
BRANCH   6  14
HETATM   14  N1  UNL     1      22.116   1.331  51.222  1.00  0.00    -0.341 N 
HETATM   15  H6  UNL     1      21.533   1.037  50.427  1.00  0.00     0.167 HD
BRANCH  14  16
HETATM   16  C7  UNL     1      22.395   0.482  52.356  1.00  0.00     0.035 A 
HETATM   17  C8  UNL     1      21.228  -0.148  52.798  1.00  0.00     0.032 A 
HETATM   18  C9  UNL     1      21.350  -1.003  53.894  1.00  0.00     0.046 A 
HETATM   19  C10 UNL     1      22.557  -1.228  54.525  1.00  0.00     0.138 A 
HETATM   20  F1  UNL     1      22.650  -2.054  55.575  1.00  0.00    -0.204 F 
HETATM   21  C11 UNL     1      23.673  -0.579  54.042  1.00  0.00     0.074 A 
HETATM   22 CL1  UNL     1      25.260  -0.791  54.766  1.00  0.00    -0.081 Cl
HETATM   23  C12 UNL     1      23.613   0.275  52.966  1.00  0.00     0.056 A 
ENDBRANCH  14  16
ENDBRANCH   6  14
BRANCH  11  24
HETATM   24  O2  UNL     1      27.407   5.275  48.503  1.00  0.00    -0.355 OA
BRANCH  24  25
HETATM   25  C16 UNL     1      27.966   6.555  48.173  1.00  0.00     0.176 C 
BRANCH  25  26
HETATM   26  C17 UNL     1      29.429   6.486  47.977  1.00  0.00     0.046 C 
BRANCH  26  27
HETATM   27  C18 UNL     1      30.184   7.619  48.547  1.00  0.00     0.119 C 
BRANCH  27  28
HETATM   28  N4  UNL     1      31.375   7.339  49.242  1.00  0.00    -0.408 N 
HETATM   29  C19 UNL     1      31.725   5.984  49.443  1.00  0.00     0.143 C 
HETATM   30  C20 UNL     1      33.129   5.802  48.840  1.00  0.00     0.187 C 
HETATM   31  O3  UNL     1      33.054   6.274  47.525  1.00  0.00    -0.388 OA
HETATM   32  C21 UNL     1      33.071   7.676  47.520  1.00  0.00     0.187 C 
HETATM   33  C22 UNL     1      32.449   8.209  48.811  1.00  0.00     0.143 C 
ENDBRANCH  27  28
ENDBRANCH  26  27
ENDBRANCH  25  26
ENDBRANCH  24  25
ENDBRANCH  11  24
BRANCH   1  34
HETATM   34  O1  UNL     1      24.207   7.653  51.509  1.00  0.00    -0.363 OA
HETATM   35  H1  UNL     1      23.325   8.135  51.444  1.00  0.00     0.217 HD
ENDBRANCH   1  34
TORSDOF 8
ENDMDL
MODEL 6
REMARK VINA RESULT:      -8.6      2.280      3.444
REMARK  8 active torsions:
REMARK  status: ('A' for Active; 'I' for Inactive)
REMARK    1  A    between atoms: O1_1  and  C1_2 
REMARK    2  A    between atoms: C6_7  and  N1_8 
REMARK    3  A    between atoms: N1_8  and  C7_9 
REMARK    4  A    between atoms: C15_21  and  O2_22 
REMARK    5  A    between atoms: O2_22  and  C16_23 
REMARK    6  A    between atoms: C16_23  and  C17_24 
REMARK    7  A    between atoms: C17_24  and  C18_25 
REMARK    8  A    between atoms: C18_25  and  N4_26 
ROOT
HETATM    1  C1  UNL     1      27.512   8.856  49.682  1.00  0.00     0.071 C 
HETATM    2  C2  UNL     1      26.585   7.952  49.445  1.00  0.00     0.040 C 
HETATM    3  C3  UNL     1      26.506   7.016  48.222  1.00  0.00     0.072 C 
HETATM    4  C4  UNL     1      27.405   5.880  48.850  1.00  0.00     0.042 C 
HETATM    5  C5  UNL     1      26.578   4.762  48.958  1.00  0.00     0.033 C 
HETATM    6  C6  UNL     1      25.411   4.739  49.696  1.00  0.00     0.126 C 
HETATM    7  N2  UNL     1      24.604   5.661  50.507  1.00  0.00    -0.227 NA
HETATM    8  C13 UNL     1      24.918   6.819  51.072  1.00  0.00     0.209 C 
HETATM    9  N3  UNL     1      25.717   7.933  50.583  1.00  0.00    -0.352 N 
HETATM   10  C14 UNL     1      28.678   6.143  48.342  1.00  0.00     0.015 C 
HETATM   11  C15 UNL     1      29.182   7.433  48.451  1.00  0.00     0.049 C 
HETATM   12  C23 UNL     1      28.818   8.791  48.985  1.00  0.00     0.130 C 
HETATM   13  H11 UNL     1      25.810   8.887  50.979  1.00  0.00     0.166 HD
ENDROOT
BRANCH   6  14
HETATM   14  N1  UNL     1      24.874   3.412  49.615  1.00  0.00    -0.341 N 
HETATM   15  H6  UNL     1      24.396   3.180  48.735  1.00  0.00     0.167 HD
BRANCH  14  16
HETATM   16  C7  UNL     1      25.007   2.481  50.712  1.00  0.00     0.035 A 
HETATM   17  C8  UNL     1      23.754   2.160  51.239  1.00  0.00     0.032 A 
HETATM   18  C9  UNL     1      23.732   1.266  52.311  1.00  0.00     0.046 A 
HETATM   19  C10 UNL     1      24.883   0.715  52.838  1.00  0.00     0.138 A 
HETATM   20  F1  UNL     1      24.837  -0.141  53.866  1.00  0.00    -0.204 F 
HETATM   21  C11 UNL     1      26.089   1.071  52.274  1.00  0.00     0.074 A 
HETATM   22 CL1  UNL     1      27.617   0.432  52.863  1.00  0.00    -0.081 Cl
HETATM   23  C12 UNL     1      26.172   1.946  51.217  1.00  0.00     0.056 A 
ENDBRANCH  14  16
ENDBRANCH   6  14
BRANCH  11  24
HETATM   24  O2  UNL     1      30.462   7.492  47.864  1.00  0.00    -0.355 OA
BRANCH  24  25
HETATM   25  C16 UNL     1      31.593   7.561  48.744  1.00  0.00     0.176 C 
BRANCH  25  26
HETATM   26  C17 UNL     1      32.526   6.434  48.535  1.00  0.00     0.046 C 
BRANCH  26  27
HETATM   27  C18 UNL     1      33.233   6.450  47.239  1.00  0.00     0.119 C 
BRANCH  27  28
HETATM   28  N4  UNL     1      34.294   5.543  47.053  1.00  0.00    -0.408 N 
HETATM   29  C19 UNL     1      34.769   4.834  48.180  1.00  0.00     0.143 C 
HETATM   30  C20 UNL     1      34.659   3.338  47.832  1.00  0.00     0.187 C 
HETATM   31  O3  UNL     1      33.337   3.126  47.430  1.00  0.00    -0.388 OA
HETATM   32  C21 UNL     1      33.154   3.597  46.121  1.00  0.00     0.187 C 
HETATM   33  C22 UNL     1      34.108   4.760  45.850  1.00  0.00     0.143 C 
ENDBRANCH  27  28
ENDBRANCH  26  27
ENDBRANCH  25  26
ENDBRANCH  24  25
ENDBRANCH  11  24
BRANCH   1  34
HETATM   34  O1  UNL     1      26.914   9.677  50.615  1.00  0.00    -0.363 OA
HETATM   35  H1  UNL     1      26.820  10.676  50.528  1.00  0.00     0.217 HD
ENDBRANCH   1  34
TORSDOF 8
ENDMDL
MODEL 7
REMARK VINA RESULT:      -8.3      7.544     10.124
REMARK  8 active torsions:
REMARK  status: ('A' for Active; 'I' for Inactive)
REMARK    1  A    between atoms: O1_1  and  C1_2 
REMARK    2  A    between atoms: C6_7  and  N1_8 
REMARK    3  A    between atoms: N1_8  and  C7_9 
REMARK    4  A    between atoms: C15_21  and  O2_22 
REMARK    5  A    between atoms: O2_22  and  C16_23 
REMARK    6  A    between atoms: C16_23  and  C17_24 
REMARK    7  A    between atoms: C17_24  and  C18_25 
REMARK    8  A    between atoms: C18_25  and  N4_26 
ROOT
HETATM    1  C1  UNL     1      22.008  -0.998  54.271  1.00  0.00     0.071 C 
HETATM    2  C2  UNL     1      20.797  -0.574  53.975  1.00  0.00     0.040 C 
HETATM    3  C3  UNL     1      20.424   0.802  53.387  1.00  0.00     0.072 C 
HETATM    4  C4  UNL     1      20.605   0.370  51.879  1.00  0.00     0.042 C 
HETATM    5  C5  UNL     1      19.342   0.492  51.298  1.00  0.00     0.033 C 
HETATM    6  C6  UNL     1      18.229  -0.199  51.733  1.00  0.00     0.126 C 
HETATM    7  N2  UNL     1      17.866  -1.145  52.797  1.00  0.00    -0.227 NA
HETATM    8  C13 UNL     1      18.624  -1.922  53.561  1.00  0.00     0.209 C 
HETATM    9  N3  UNL     1      19.903  -1.667  54.208  1.00  0.00    -0.352 N 
HETATM   10  C14 UNL     1      21.899   0.788  51.566  1.00  0.00     0.015 C 
HETATM   11  C15 UNL     1      22.936   0.431  52.419  1.00  0.00     0.049 C 
HETATM   12  C23 UNL     1      23.198  -0.334  53.687  1.00  0.00     0.130 C 
HETATM   13  H11 UNL     1      20.389  -2.233  54.927  1.00  0.00     0.166 HD
ENDROOT
BRANCH   6  14
HETATM   14  N1  UNL     1      17.142   0.138  50.860  1.00  0.00    -0.341 N 
HETATM   15  H6  UNL     1      17.278  -0.106  49.869  1.00  0.00     0.167 HD
BRANCH  14  16
HETATM   16  C7  UNL     1      15.948   0.778  51.361  1.00  0.00     0.035 A 
HETATM   17  C8  UNL     1      14.824  -0.011  51.107  1.00  0.00     0.032 A 
HETATM   18  C9  UNL     1      13.594   0.488  51.538  1.00  0.00     0.046 A 
HETATM   19  C10 UNL     1      13.475   1.700  52.187  1.00  0.00     0.138 A 
HETATM   20  F1  UNL     1      12.283   2.159  52.592  1.00  0.00    -0.204 F 
HETATM   21  C11 UNL     1      14.621   2.433  52.409  1.00  0.00     0.074 A 
HETATM   22 CL1  UNL     1      14.588   3.989  53.225  1.00  0.00    -0.081 Cl
HETATM   23  C12 UNL     1      15.859   1.992  52.006  1.00  0.00     0.056 A 
ENDBRANCH  14  16
ENDBRANCH   6  14
BRANCH  11  24
HETATM   24  O2  UNL     1      24.149   0.964  51.939  1.00  0.00    -0.355 OA
BRANCH  24  25
HETATM   25  C16 UNL     1      24.684   2.112  52.614  1.00  0.00     0.176 C 
BRANCH  25  26
HETATM   26  C17 UNL     1      25.999   1.830  53.225  1.00  0.00     0.046 C 
BRANCH  26  27
HETATM   27  C18 UNL     1      26.722   0.686  52.637  1.00  0.00     0.119 C 
BRANCH  27  28
HETATM   28  N4  UNL     1      27.300  -0.253  53.513  1.00  0.00    -0.408 N 
HETATM   29  C19 UNL     1      28.090  -1.284  52.955  1.00  0.00     0.143 C 
HETATM   30  C20 UNL     1      29.469  -1.193  53.634  1.00  0.00     0.187 C 
HETATM   31  O3  UNL     1      29.898   0.128  53.471  1.00  0.00    -0.388 OA
HETATM   32  C21 UNL     1      29.230   0.963  54.379  1.00  0.00     0.187 C 
HETATM   33  C22 UNL     1      27.846   0.393  54.688  1.00  0.00     0.143 C 
ENDBRANCH  27  28
ENDBRANCH  26  27
ENDBRANCH  25  26
ENDBRANCH  24  25
ENDBRANCH  11  24
BRANCH   1  34
HETATM   34  O1  UNL     1      21.768  -2.050  55.129  1.00  0.00    -0.363 OA
HETATM   35  H1  UNL     1      22.349  -2.869  55.213  1.00  0.00     0.217 HD
ENDBRANCH   1  34
TORSDOF 8
ENDMDL
MODEL 8
REMARK VINA RESULT:      -8.3      4.861      9.484
REMARK  8 active torsions:
REMARK  status: ('A' for Active; 'I' for Inactive)
REMARK    1  A    between atoms: O1_1  and  C1_2 
REMARK    2  A    between atoms: C6_7  and  N1_8 
REMARK    3  A    between atoms: N1_8  and  C7_9 
REMARK    4  A    between atoms: C15_21  and  O2_22 
REMARK    5  A    between atoms: O2_22  and  C16_23 
REMARK    6  A    between atoms: C16_23  and  C17_24 
REMARK    7  A    between atoms: C17_24  and  C18_25 
REMARK    8  A    between atoms: C18_25  and  N4_26 
ROOT
HETATM    1  C1  UNL     1      25.958  -0.185  54.959  1.00  0.00     0.071 C 
HETATM    2  C2  UNL     1      26.487   0.189  53.812  1.00  0.00     0.040 C 
HETATM    3  C3  UNL     1      26.097  -0.322  52.411  1.00  0.00     0.072 C 
HETATM    4  C4  UNL     1      24.946   0.735  52.186  1.00  0.00     0.042 C 
HETATM    5  C5  UNL     1      25.350   1.504  51.094  1.00  0.00     0.033 C 
HETATM    6  C6  UNL     1      26.518   2.240  51.064  1.00  0.00     0.126 C 
HETATM    7  N2  UNL     1      27.681   2.495  51.925  1.00  0.00    -0.227 NA
HETATM    8  C13 UNL     1      27.850   2.314  53.229  1.00  0.00     0.209 C 
HETATM    9  N3  UNL     1      27.425   1.230  54.104  1.00  0.00    -0.352 N 
HETATM   10  C14 UNL     1      23.788   0.053  52.560  1.00  0.00     0.015 C 
HETATM   11  C15 UNL     1      23.770  -0.599  53.787  1.00  0.00     0.049 C 
HETATM   12  C23 UNL     1      24.635  -0.852  54.991  1.00  0.00     0.130 C 
HETATM   13  H11 UNL     1      27.710   1.038  55.081  1.00  0.00     0.166 HD
ENDROOT
BRANCH   6  14
HETATM   14  N1  UNL     1      26.558   2.938  49.812  1.00  0.00    -0.341 N 
HETATM   15  H6  UNL     1      26.787   2.363  48.990  1.00  0.00     0.167 HD
BRANCH  14  16
HETATM   16  C7  UNL     1      26.292   4.356  49.735  1.00  0.00     0.035 A 
HETATM   17  C8  UNL     1      27.169   4.973  48.840  1.00  0.00     0.032 A 
HETATM   18  C9  UNL     1      27.026   6.351  48.666  1.00  0.00     0.046 A 
HETATM   19  C10 UNL     1      26.070   7.085  49.337  1.00  0.00     0.138 A 
HETATM   20  F1  UNL     1      25.951   8.406  49.154  1.00  0.00    -0.204 F 
HETATM   21  C11 UNL     1      25.233   6.419  50.207  1.00  0.00     0.074 A 
HETATM   22 CL1  UNL     1      23.979   7.251  51.114  1.00  0.00    -0.081 Cl
HETATM   23  C12 UNL     1      25.327   5.064  50.418  1.00  0.00     0.056 A 
ENDBRANCH  14  16
ENDBRANCH   6  14
BRANCH  11  24
HETATM   24  O2  UNL     1      22.527  -1.238  53.966  1.00  0.00    -0.355 OA
BRANCH  24  25
HETATM   25  C16 UNL     1      21.611  -0.658  54.905  1.00  0.00     0.176 C 
BRANCH  25  26
HETATM   26  C17 UNL     1      20.828   0.444  54.307  1.00  0.00     0.046 C 
BRANCH  26  27
HETATM   27  C18 UNL     1      19.816   0.018  53.320  1.00  0.00     0.119 C 
BRANCH  27  28
HETATM   28  N4  UNL     1      19.993   0.409  51.979  1.00  0.00    -0.408 N 
HETATM   29  C19 UNL     1      18.956   0.126  51.062  1.00  0.00     0.143 C 
HETATM   30  C20 UNL     1      18.556   1.471  50.427  1.00  0.00     0.187 C 
HETATM   31  O3  UNL     1      18.277   2.337  51.490  1.00  0.00    -0.388 OA
HETATM   32  C21 UNL     1      19.475   2.792  52.061  1.00  0.00     0.187 C 
HETATM   33  C22 UNL     1      20.566   1.735  51.892  1.00  0.00     0.143 C 
ENDBRANCH  27  28
ENDBRANCH  26  27
ENDBRANCH  25  26
ENDBRANCH  24  25
ENDBRANCH  11  24
BRANCH   1  34
HETATM   34  O1  UNL     1      26.906   0.207  55.881  1.00  0.00    -0.363 OA
HETATM   35  H1  UNL     1      27.718  -0.331  56.136  1.00  0.00     0.217 HD
ENDBRANCH   1  34
TORSDOF 8
ENDMDL
MODEL 9
REMARK VINA RESULT:      -8.1      1.943      2.302
REMARK  8 active torsions:
REMARK  status: ('A' for Active; 'I' for Inactive)
REMARK    1  A    between atoms: O1_1  and  C1_2 
REMARK    2  A    between atoms: C6_7  and  N1_8 
REMARK    3  A    between atoms: N1_8  and  C7_9 
REMARK    4  A    between atoms: C15_21  and  O2_22 
REMARK    5  A    between atoms: O2_22  and  C16_23 
REMARK    6  A    between atoms: C16_23  and  C17_24 
REMARK    7  A    between atoms: C17_24  and  C18_25 
REMARK    8  A    between atoms: C18_25  and  N4_26 
ROOT
HETATM    1  C1  UNL     1      25.692   7.251  49.819  1.00  0.00     0.071 C 
HETATM    2  C2  UNL     1      25.054   6.117  50.020  1.00  0.00     0.040 C 
HETATM    3  C3  UNL     1      25.055   4.885  49.093  1.00  0.00     0.072 C 
HETATM    4  C4  UNL     1      26.346   4.230  49.723  1.00  0.00     0.042 C 
HETATM    5  C5  UNL     1      25.924   3.020  50.274  1.00  0.00     0.033 C 
HETATM    6  C6  UNL     1      24.960   2.920  51.257  1.00  0.00     0.126 C 
HETATM    7  N2  UNL     1      24.062   3.804  52.012  1.00  0.00    -0.227 NA
HETATM    8  C13 UNL     1      24.103   5.115  52.212  1.00  0.00     0.209 C 
HETATM    9  N3  UNL     1      24.437   6.207  51.309  1.00  0.00    -0.352 N 
HETATM   10  C14 UNL     1      27.377   4.644  48.878  1.00  0.00     0.015 C 
HETATM   11  C15 UNL     1      27.480   5.995  48.571  1.00  0.00     0.049 C 
HETATM   12  C23 UNL     1      26.820   7.315  48.860  1.00  0.00     0.130 C 
HETATM   13  H11 UNL     1      24.303   7.225  51.447  1.00  0.00     0.166 HD
ENDROOT
BRANCH   6  14
HETATM   14  N1  UNL     1      24.841   1.534  51.607  1.00  0.00    -0.341 N 
HETATM   15  H6  UNL     1      23.976   1.071  51.298  1.00  0.00     0.167 HD
BRANCH  14  16
HETATM   16  C7  UNL     1      25.880   0.855  52.346  1.00  0.00     0.035 A 
HETATM   17  C8  UNL     1      26.419   1.697  53.322  1.00  0.00     0.032 A 
HETATM   18  C9  UNL     1      27.439   1.169  54.116  1.00  0.00     0.046 A 
HETATM   19  C10 UNL     1      27.905  -0.120  53.959  1.00  0.00     0.138 A 
HETATM   20  F1  UNL     1      28.885  -0.605  54.733  1.00  0.00    -0.204 F 
HETATM   21  C11 UNL     1      27.333  -0.902  52.979  1.00  0.00     0.074 A 
HETATM   22 CL1  UNL     1      27.846  -2.558  52.691  1.00  0.00    -0.081 Cl
HETATM   23  C12 UNL     1      26.325  -0.436  52.168  1.00  0.00     0.056 A 
ENDBRANCH  14  16
ENDBRANCH   6  14
BRANCH  11  24
HETATM   24  O2  UNL     1      28.565   6.200  47.695  1.00  0.00    -0.355 OA
BRANCH  24  25
HETATM   25  C16 UNL     1      29.534   7.194  48.059  1.00  0.00     0.176 C 
BRANCH  25  26
HETATM   26  C17 UNL     1      30.772   7.078  47.261  1.00  0.00     0.046 C 
BRANCH  26  27
HETATM   27  C18 UNL     1      31.432   8.363  46.954  1.00  0.00     0.119 C 
BRANCH  27  28
HETATM   28  N4  UNL     1      32.413   8.833  47.847  1.00  0.00    -0.408 N 
HETATM   29  C19 UNL     1      33.159   7.881  48.578  1.00  0.00     0.143 C 
HETATM   30  C20 UNL     1      34.641   8.155  48.266  1.00  0.00     0.187 C 
HETATM   31  O3  UNL     1      34.755   8.152  46.872  1.00  0.00    -0.388 OA
HETATM   32  C21 UNL     1      34.267   9.359  46.350  1.00  0.00     0.187 C 
HETATM   33  C22 UNL     1      33.175   9.917  47.263  1.00  0.00     0.143 C 
ENDBRANCH  27  28
ENDBRANCH  26  27
ENDBRANCH  25  26
ENDBRANCH  24  25
ENDBRANCH  11  24
BRANCH   1  34
HETATM   34  O1  UNL     1      25.042   8.128  50.661  1.00  0.00    -0.363 OA
HETATM   35  H1  UNL     1      24.138   7.965  51.077  1.00  0.00     0.217 HD
ENDBRANCH   1  34
TORSDOF 8
ENDMDL
