MODEL 1
REMARK VINA RESULT:      -8.9      0.000      0.000
REMARK  1 active torsions:
REMARK  status: ('A' for Active; 'I' for Inactive)
REMARK    1  A    between atoms: C4_5  and  N2_6 
ROOT
HETATM    1  N1  UNL     1      27.151  -2.955  52.318  1.00  0.00    -0.191 NA
HETATM    2  C1  UNL     1      27.310  -1.834  52.552  1.00  0.00     0.102 C 
HETATM    3  C2  UNL     1      27.530  -0.451  52.837  1.00  0.00     0.085 A 
HETATM    4  C3  UNL     1      26.632   0.513  52.359  1.00  0.00     0.055 A 
HETATM    5  C4  UNL     1      26.710   1.888  52.554  1.00  0.00     0.033 A 
HETATM    6  C17 UNL     1      27.831   2.185  53.307  1.00  0.00     0.032 A 
HETATM    7  C18 UNL     1      28.764   1.325  53.818  1.00  0.00     0.046 A 
HETATM    8  C19 UNL     1      28.589  -0.013  53.566  1.00  0.00     0.137 A 
HETATM    9  F1  UNL     1      29.455  -0.919  54.027  1.00  0.00    -0.204 F 
ENDROOT
BRANCH   5  10
HETATM   10  N2  UNL     1      25.740   2.859  52.056  1.00  0.00    -0.359 N 
HETATM   11  C5  UNL     1      26.363   3.326  50.831  1.00  0.00     0.269 C 
HETATM   12  N3  UNL     1      25.526   4.010  49.929  1.00  0.00    -0.282 N 
HETATM   13  C6  UNL     1      25.790   4.955  49.102  1.00  0.00     0.195 A 
HETATM   14  N4  UNL     1      24.546   4.421  49.244  1.00  0.00    -0.163 NA
HETATM   15  C7  UNL     1      23.381   4.867  49.460  1.00  0.00     0.092 C 
HETATM   16  C8  UNL     1      22.726   3.594  49.456  1.00  0.00     0.048 C 
HETATM   17  C9  UNL     1      21.564   3.007  49.670  1.00  0.00     0.070 C 
HETATM   18  C10 UNL     1      20.510   3.959  50.069  1.00  0.00     0.232 C 
HETATM   19  O4  UNL     1      20.866   1.778  49.686  1.00  0.00    -0.353 OA
HETATM   20  O1  UNL     1      20.053   3.592  51.373  1.00  0.00    -0.383 OA
HETATM   21  C11 UNL     1      21.151   3.597  52.237  1.00  0.00     0.194 C 
HETATM   22  O2  UNL     1      22.137   2.648  51.819  1.00  0.00     0.000 OA
HETATM   23  C12 UNL     1      23.326   2.520  52.581  1.00  0.00    -0.032 A 
HETATM   24  O3  UNL     1      21.436   1.437  52.338  1.00  0.00     0.000 OA
HETATM   25  C13 UNL     1      22.640   1.439  53.031  1.00  0.00     0.010 A 
HETATM   26  C16 UNL     1      24.670   2.932  53.016  1.00  0.00     0.164 C 
HETATM   27  C14 UNL     1      21.121   0.303  51.534  1.00  0.00     0.029 C 
HETATM   28  C15 UNL     1      21.570   0.613  50.099  1.00  0.00     0.175 C 
ENDBRANCH   5  10
TORSDOF 1
ENDMDL
MODEL 2
REMARK VINA RESULT:      -8.8      3.164      5.041
REMARK  1 active torsions:
REMARK  status: ('A' for Active; 'I' for Inactive)
REMARK    1  A    between atoms: C4_5  and  N2_6 
ROOT
HETATM    1  N1  UNL     1      26.236  -0.861  53.979  1.00  0.00    -0.191 NA
HETATM    2  C1  UNL     1      25.092  -0.691  53.941  1.00  0.00     0.102 C 
HETATM    3  C2  UNL     1      23.679  -0.480  53.917  1.00  0.00     0.085 A 
HETATM    4  C3  UNL     1      23.111   0.333  52.927  1.00  0.00     0.055 A 
HETATM    5  C4  UNL     1      21.761   0.631  52.773  1.00  0.00     0.033 A 
HETATM    6  C17 UNL     1      21.032  -0.005  53.762  1.00  0.00     0.032 A 
HETATM    7  C18 UNL     1      21.487  -0.814  54.767  1.00  0.00     0.046 A 
HETATM    8  C19 UNL     1      22.840  -1.041  54.825  1.00  0.00     0.137 A 
HETATM    9  F1  UNL     1      23.366  -1.817  55.775  1.00  0.00    -0.204 F 
ENDROOT
BRANCH   5  10
HETATM   10  N2  UNL     1      21.204   1.467  51.714  1.00  0.00    -0.359 N 
HETATM   11  C5  UNL     1      19.967   1.942  52.305  1.00  0.00     0.269 C 
HETATM   12  N3  UNL     1      19.363   3.049  51.680  1.00  0.00    -0.282 N 
HETATM   13  C6  UNL     1      18.126   3.370  51.569  1.00  0.00     0.195 A 
HETATM   14  N4  UNL     1      19.134   4.122  51.051  1.00  0.00    -0.163 NA
HETATM   15  C7  UNL     1      19.416   4.617  49.920  1.00  0.00     0.092 C 
HETATM   16  C8  UNL     1      20.648   5.227  50.321  1.00  0.00     0.048 C 
HETATM   17  C9  UNL     1      21.697   5.881  49.861  1.00  0.00     0.070 C 
HETATM   18  C10 UNL     1      21.645   6.088  48.402  1.00  0.00     0.232 C 
HETATM   19  O4  UNL     1      22.925   6.496  50.198  1.00  0.00    -0.353 OA
HETATM   20  O1  UNL     1      22.776   5.433  47.822  1.00  0.00    -0.383 OA
HETATM   21  C11 UNL     1      22.734   4.085  48.187  1.00  0.00     0.194 C 
HETATM   22  O2  UNL     1      22.803   3.935  49.608  1.00  0.00     0.000 OA
HETATM   23  C12 UNL     1      22.769   2.629  50.157  1.00  0.00    -0.032 A 
HETATM   24  O3  UNL     1      24.273   4.164  49.729  1.00  0.00     0.000 OA
HETATM   25  C13 UNL     1      24.100   2.881  50.232  1.00  0.00     0.010 A 
HETATM   26  C16 UNL     1      22.100   1.391  50.589  1.00  0.00     0.164 C 
HETATM   27  C14 UNL     1      24.849   5.151  50.580  1.00  0.00     0.029 C 
HETATM   28  C15 UNL     1      23.698   5.920  51.245  1.00  0.00     0.175 C 
ENDBRANCH   5  10
TORSDOF 1
ENDMDL
MODEL 3
REMARK VINA RESULT:      -8.8      2.909      4.723
REMARK  1 active torsions:
REMARK  status: ('A' for Active; 'I' for Inactive)
REMARK    1  A    between atoms: C4_5  and  N2_6 
ROOT
HETATM    1  N1  UNL     1      28.584   2.613  53.994  1.00  0.00    -0.191 NA
HETATM    2  C1  UNL     1      27.553   2.138  53.770  1.00  0.00     0.102 C 
HETATM    3  C2  UNL     1      26.278   1.545  53.517  1.00  0.00     0.085 A 
HETATM    4  C3  UNL     1      25.357   2.198  52.686  1.00  0.00     0.055 A 
HETATM    5  C4  UNL     1      24.085   1.749  52.345  1.00  0.00     0.033 A 
HETATM    6  C17 UNL     1      23.844   0.533  52.958  1.00  0.00     0.032 A 
HETATM    7  C18 UNL     1      24.670  -0.182  53.781  1.00  0.00     0.046 A 
HETATM    8  C19 UNL     1      25.905   0.354  54.051  1.00  0.00     0.137 A 
HETATM    9  F1  UNL     1      26.771  -0.279  54.846  1.00  0.00    -0.204 F 
ENDROOT
BRANCH   5  10
HETATM   10  N2  UNL     1      23.161   2.450  51.457  1.00  0.00    -0.359 N 
HETATM   11  C5  UNL     1      21.940   2.488  52.241  1.00  0.00     0.269 C 
HETATM   12  N3  UNL     1      20.957   3.402  51.816  1.00  0.00    -0.282 N 
HETATM   13  C6  UNL     1      19.678   3.342  51.890  1.00  0.00     0.195 A 
HETATM   14  N4  UNL     1      20.339   4.396  51.340  1.00  0.00    -0.163 NA
HETATM   15  C7  UNL     1      20.296   5.029  50.243  1.00  0.00     0.092 C 
HETATM   16  C8  UNL     1      21.344   5.953  50.558  1.00  0.00     0.048 C 
HETATM   17  C9  UNL     1      22.080   6.922  50.049  1.00  0.00     0.070 C 
HETATM   18  C10 UNL     1      21.757   7.202  48.638  1.00  0.00     0.232 C 
HETATM   19  O4  UNL     1      23.113   7.854  50.301  1.00  0.00    -0.353 OA
HETATM   20  O1  UNL     1      22.931   6.960  47.859  1.00  0.00    -0.383 OA
HETATM   21  C11 UNL     1      23.334   5.640  48.077  1.00  0.00     0.194 C 
HETATM   22  O2  UNL     1      23.652   5.421  49.455  1.00  0.00     0.000 OA
HETATM   23  C12 UNL     1      24.077   4.132  49.860  1.00  0.00    -0.032 A 
HETATM   24  O3  UNL     1      24.994   6.074  49.424  1.00  0.00     0.000 OA
HETATM   25  C13 UNL     1      25.275   4.767  49.801  1.00  0.00     0.010 A 
HETATM   26  C16 UNL     1      23.866   2.723  50.231  1.00  0.00     0.164 C 
HETATM   27  C14 UNL     1      25.378   7.129  50.301  1.00  0.00     0.029 C 
HETATM   28  C15 UNL     1      24.164   7.468  51.179  1.00  0.00     0.175 C 
ENDBRANCH   5  10
TORSDOF 1
ENDMDL
MODEL 4
REMARK VINA RESULT:      -8.7      2.156      2.984
REMARK  1 active torsions:
REMARK  status: ('A' for Active; 'I' for Inactive)
REMARK    1  A    between atoms: C4_5  and  N2_6 
ROOT
HETATM    1  N1  UNL     1      28.338  -0.160  54.977  1.00  0.00    -0.191 NA
HETATM    2  C1  UNL     1      27.324   0.136  54.507  1.00  0.00     0.102 C 
HETATM    3  C2  UNL     1      26.059   0.494  53.945  1.00  0.00     0.085 A 
HETATM    4  C3  UNL     1      25.920   1.704  53.253  1.00  0.00     0.055 A 
HETATM    5  C4  UNL     1      24.761   2.187  52.653  1.00  0.00     0.033 A 
HETATM    6  C17 UNL     1      23.732   1.282  52.840  1.00  0.00     0.032 A 
HETATM    7  C18 UNL     1      23.764   0.082  53.496  1.00  0.00     0.046 A 
HETATM    8  C19 UNL     1      24.961  -0.297  54.051  1.00  0.00     0.137 A 
HETATM    9  F1  UNL     1      25.077  -1.453  54.710  1.00  0.00    -0.204 F 
ENDROOT
BRANCH   5  10
HETATM   10  N2  UNL     1      24.661   3.447  51.920  1.00  0.00    -0.359 N 
HETATM   11  C5  UNL     1      25.715   3.320  50.931  1.00  0.00     0.269 C 
HETATM   12  N3  UNL     1      25.658   4.211  49.842  1.00  0.00    -0.282 N 
HETATM   13  C6  UNL     1      26.598   4.732  49.143  1.00  0.00     0.195 A 
HETATM   14  N4  UNL     1      25.280   4.985  48.917  1.00  0.00    -0.163 NA
HETATM   15  C7  UNL     1      24.556   6.018  48.803  1.00  0.00     0.092 C 
HETATM   16  C8  UNL     1      23.325   5.318  48.589  1.00  0.00     0.048 C 
HETATM   17  C9  UNL     1      22.024   5.494  48.456  1.00  0.00     0.070 C 
HETATM   18  C10 UNL     1      21.627   6.911  48.558  1.00  0.00     0.232 C 
HETATM   19  O4  UNL     1      20.778   4.857  48.249  1.00  0.00    -0.353 OA
HETATM   20  O1  UNL     1      20.741   7.041  49.673  1.00  0.00    -0.383 OA
HETATM   21  C11 UNL     1      21.401   6.573  50.811  1.00  0.00     0.194 C 
HETATM   22  O2  UNL     1      21.751   5.193  50.671  1.00  0.00     0.000 OA
HETATM   23  C12 UNL     1      22.433   4.551  51.735  1.00  0.00    -0.032 A 
HETATM   24  O3  UNL     1      20.390   4.645  50.947  1.00  0.00     0.000 OA
HETATM   25  C13 UNL     1      21.174   4.093  51.952  1.00  0.00     0.010 A 
HETATM   26  C16 UNL     1      23.620   4.225  52.541  1.00  0.00     0.164 C 
HETATM   27  C14 UNL     1      19.701   3.763  50.065  1.00  0.00     0.029 C 
HETATM   28  C15 UNL     1      20.581   3.570  48.822  1.00  0.00     0.175 C 
ENDBRANCH   5  10
TORSDOF 1
ENDMDL
MODEL 5
REMARK VINA RESULT:      -8.7      3.181      4.900
REMARK  1 active torsions:
REMARK  status: ('A' for Active; 'I' for Inactive)
REMARK    1  A    between atoms: C4_5  and  N2_6 
ROOT
HETATM    1  N1  UNL     1      22.258  -1.843  55.384  1.00  0.00    -0.191 NA
HETATM    2  C1  UNL     1      22.797  -1.156  54.625  1.00  0.00     0.102 C 
HETATM    3  C2  UNL     1      23.479  -0.326  53.683  1.00  0.00     0.085 A 
HETATM    4  C3  UNL     1      22.747   0.525  52.843  1.00  0.00     0.055 A 
HETATM    5  C4  UNL     1      23.264   1.387  51.883  1.00  0.00     0.033 A 
HETATM    6  C17 UNL     1      24.643   1.289  51.868  1.00  0.00     0.032 A 
HETATM    7  C18 UNL     1      25.447   0.496  52.640  1.00  0.00     0.046 A 
HETATM    8  C19 UNL     1      24.831  -0.318  53.557  1.00  0.00     0.137 A 
HETATM    9  F1  UNL     1      25.543  -1.124  54.349  1.00  0.00    -0.204 F 
ENDROOT
BRANCH   5  10
HETATM   10  N2  UNL     1      22.467   2.276  51.041  1.00  0.00    -0.359 N 
HETATM   11  C5  UNL     1      21.254   2.444  51.819  1.00  0.00     0.269 C 
HETATM   12  N3  UNL     1      20.424   3.520  51.453  1.00  0.00    -0.282 N 
HETATM   13  C6  UNL     1      19.149   3.647  51.516  1.00  0.00     0.195 A 
HETATM   14  N4  UNL     1      19.967   4.625  51.042  1.00  0.00    -0.163 NA
HETATM   15  C7  UNL     1      20.035   5.328  49.991  1.00  0.00     0.092 C 
HETATM   16  C8  UNL     1      21.204   6.063  50.373  1.00  0.00     0.048 C 
HETATM   17  C9  UNL     1      22.084   6.942  49.935  1.00  0.00     0.070 C 
HETATM   18  C10 UNL     1      21.826   7.362  48.545  1.00  0.00     0.232 C 
HETATM   19  O4  UNL     1      23.240   7.691  50.255  1.00  0.00    -0.353 OA
HETATM   20  O1  UNL     1      22.963   6.999  47.756  1.00  0.00    -0.383 OA
HETATM   21  C11 UNL     1      23.162   5.623  47.886  1.00  0.00     0.194 C 
HETATM   22  O2  UNL     1      23.423   5.267  49.248  1.00  0.00     0.000 OA
HETATM   23  C12 UNL     1      23.647   3.904  49.565  1.00  0.00    -0.032 A 
HETATM   24  O3  UNL     1      24.848   5.713  49.267  1.00  0.00     0.000 OA
HETATM   25  C13 UNL     1      24.926   4.357  49.556  1.00  0.00     0.010 A 
HETATM   26  C16 UNL     1      23.223   2.522  49.839  1.00  0.00     0.164 C 
HETATM   27  C14 UNL     1      25.372   6.638  50.216  1.00  0.00     0.029 C 
HETATM   28  C15 UNL     1      24.209   7.095  51.109  1.00  0.00     0.175 C 
ENDBRANCH   5  10
TORSDOF 1
ENDMDL
MODEL 6
REMARK VINA RESULT:      -8.5      3.272      5.429
REMARK  1 active torsions:
REMARK  status: ('A' for Active; 'I' for Inactive)
REMARK    1  A    between atoms: C4_5  and  N2_6 
ROOT
HETATM    1  N1  UNL     1      17.861  -0.106  51.590  1.00  0.00    -0.191 NA
HETATM    2  C1  UNL     1      18.861  -0.192  52.164  1.00  0.00     0.102 C 
HETATM    3  C2  UNL     1      20.096  -0.323  52.873  1.00  0.00     0.085 A 
HETATM    4  C3  UNL     1      21.160   0.542  52.586  1.00  0.00     0.055 A 
HETATM    5  C4  UNL     1      22.414   0.541  53.187  1.00  0.00     0.033 A 
HETATM    6  C17 UNL     1      22.470  -0.463  54.137  1.00  0.00     0.032 A 
HETATM    7  C18 UNL     1      21.495  -1.354  54.490  1.00  0.00     0.046 A 
HETATM    8  C19 UNL     1      20.293  -1.263  53.832  1.00  0.00     0.137 A 
HETATM    9  F1  UNL     1      19.289  -2.096  54.115  1.00  0.00    -0.204 F 
ENDROOT
BRANCH   5  10
HETATM   10  N2  UNL     1      23.493   1.475  52.875  1.00  0.00    -0.359 N 
HETATM   11  C5  UNL     1      24.573   0.588  52.485  1.00  0.00     0.269 C 
HETATM   12  N3  UNL     1      25.644   1.181  51.789  1.00  0.00    -0.282 N 
HETATM   13  C6  UNL     1      26.892   0.885  51.774  1.00  0.00     0.195 A 
HETATM   14  N4  UNL     1      26.366   1.911  51.052  1.00  0.00    -0.163 NA
HETATM   15  C7  UNL     1      26.606   3.147  50.914  1.00  0.00     0.092 C 
HETATM   16  C8  UNL     1      25.555   3.404  49.975  1.00  0.00     0.048 C 
HETATM   17  C9  UNL     1      24.945   4.370  49.317  1.00  0.00     0.070 C 
HETATM   18  C10 UNL     1      25.500   5.703  49.619  1.00  0.00     0.232 C 
HETATM   19  O4  UNL     1      23.919   4.684  48.396  1.00  0.00    -0.353 OA
HETATM   20  O1  UNL     1      24.457   6.496  50.192  1.00  0.00    -0.383 OA
HETATM   21  C11 UNL     1      23.977   5.833  51.324  1.00  0.00     0.194 C 
HETATM   22  O2  UNL     1      23.436   4.554  50.979  1.00  0.00     0.000 OA
HETATM   23  C12 UNL     1      22.905   3.739  52.009  1.00  0.00    -0.032 A 
HETATM   24  O3  UNL     1      22.140   5.061  50.438  1.00  0.00     0.000 OA
HETATM   25  C13 UNL     1      21.755   4.239  51.490  1.00  0.00     0.010 A 
HETATM   26  C16 UNL     1      23.004   2.803  53.141  1.00  0.00     0.164 C 
HETATM   27  C14 UNL     1      21.659   4.756  49.131  1.00  0.00     0.029 C 
HETATM   28  C15 UNL     1      22.728   3.906  48.429  1.00  0.00     0.175 C 
ENDBRANCH   5  10
TORSDOF 1
ENDMDL
MODEL 7
REMARK VINA RESULT:      -8.4      3.147      4.381
REMARK  1 active torsions:
REMARK  status: ('A' for Active; 'I' for Inactive)
REMARK    1  A    between atoms: C4_5  and  N2_6 
ROOT
HETATM    1  N1  UNL     1      18.970  -0.653  53.327  1.00  0.00    -0.191 NA
HETATM    2  C1  UNL     1      20.098  -0.395  53.329  1.00  0.00     0.102 C 
HETATM    3  C2  UNL     1      21.496  -0.099  53.328  1.00  0.00     0.085 A 
HETATM    4  C3  UNL     1      21.959   1.080  52.728  1.00  0.00     0.055 A 
HETATM    5  C4  UNL     1      23.281   1.505  52.648  1.00  0.00     0.033 A 
HETATM    6  C17 UNL     1      24.103   0.576  53.259  1.00  0.00     0.032 A 
HETATM    7  C18 UNL     1      23.753  -0.598  53.868  1.00  0.00     0.046 A 
HETATM    8  C19 UNL     1      22.419  -0.920  53.890  1.00  0.00     0.137 A 
HETATM    9  F1  UNL     1      21.993  -2.048  54.464  1.00  0.00    -0.204 F 
ENDROOT
BRANCH   5  10
HETATM   10  N2  UNL     1      23.723   2.754  52.032  1.00  0.00    -0.359 N 
HETATM   11  C5  UNL     1      24.895   2.338  51.285  1.00  0.00     0.269 C 
HETATM   12  N3  UNL     1      25.354   3.232  50.299  1.00  0.00    -0.282 N 
HETATM   13  C6  UNL     1      26.540   3.461  49.870  1.00  0.00     0.195 A 
HETATM   14  N4  UNL     1      25.443   4.107  49.391  1.00  0.00    -0.163 NA
HETATM   15  C7  UNL     1      25.095   5.313  49.221  1.00  0.00     0.092 C 
HETATM   16  C8  UNL     1      23.800   5.025  48.683  1.00  0.00     0.048 C 
HETATM   17  C9  UNL     1      22.674   5.589  48.289  1.00  0.00     0.070 C 
HETATM   18  C10 UNL     1      22.691   7.056  48.437  1.00  0.00     0.232 C 
HETATM   19  O4  UNL     1      21.382   5.365  47.761  1.00  0.00    -0.353 OA
HETATM   20  O1  UNL     1      21.646   7.421  49.342  1.00  0.00    -0.383 OA
HETATM   21  C11 UNL     1      21.857   6.747  50.547  1.00  0.00     0.194 C 
HETATM   22  O2  UNL     1      21.816   5.329  50.356  1.00  0.00     0.000 OA
HETATM   23  C12 UNL     1      22.016   4.485  51.476  1.00  0.00    -0.032 A 
HETATM   24  O3  UNL     1      20.330   5.213  50.280  1.00  0.00     0.000 OA
HETATM   25  C13 UNL     1      20.664   4.424  51.374  1.00  0.00     0.010 A 
HETATM   26  C16 UNL     1      22.836   3.795  52.485  1.00  0.00     0.164 C 
HETATM   27  C14 UNL     1      19.642   4.603  49.192  1.00  0.00     0.029 C 
HETATM   28  C15 UNL     1      20.693   4.183  48.154  1.00  0.00     0.175 C 
ENDBRANCH   5  10
TORSDOF 1
ENDMDL
MODEL 8
REMARK VINA RESULT:      -8.4      2.777      5.435
REMARK  1 active torsions:
REMARK  status: ('A' for Active; 'I' for Inactive)
REMARK    1  A    between atoms: C4_5  and  N2_6 
ROOT
HETATM    1  N1  UNL     1      30.092   5.479  47.998  1.00  0.00    -0.191 NA
HETATM    2  C1  UNL     1      28.959   5.484  48.236  1.00  0.00     0.102 C 
HETATM    3  C2  UNL     1      27.557   5.502  48.509  1.00  0.00     0.085 A 
HETATM    4  C3  UNL     1      26.938   4.372  49.061  1.00  0.00     0.055 A 
HETATM    5  C4  UNL     1      25.591   4.239  49.382  1.00  0.00     0.033 A 
HETATM    6  C17 UNL     1      24.924   5.410  49.072  1.00  0.00     0.032 A 
HETATM    7  C18 UNL     1      25.432   6.561  48.535  1.00  0.00     0.046 A 
HETATM    8  C19 UNL     1      26.776   6.583  48.256  1.00  0.00     0.137 A 
HETATM    9  F1  UNL     1      27.350   7.667  47.729  1.00  0.00    -0.204 F 
ENDROOT
BRANCH   5  10
HETATM   10  N2  UNL     1      24.987   3.049  49.976  1.00  0.00    -0.359 N 
HETATM   11  C5  UNL     1      25.807   2.835  51.155  1.00  0.00     0.269 C 
HETATM   12  N3  UNL     1      25.275   1.976  52.135  1.00  0.00    -0.282 N 
HETATM   13  C6  UNL     1      25.862   1.184  52.955  1.00  0.00     0.195 A 
HETATM   14  N4  UNL     1      24.510   1.328  52.906  1.00  0.00    -0.163 NA
HETATM   15  C7  UNL     1      23.513   0.555  52.795  1.00  0.00     0.092 C 
HETATM   16  C8  UNL     1      22.517   1.583  52.828  1.00  0.00     0.048 C 
HETATM   17  C9  UNL     1      21.222   1.798  52.698  1.00  0.00     0.070 C 
HETATM   18  C10 UNL     1      20.466   0.566  52.406  1.00  0.00     0.232 C 
HETATM   19  O4  UNL     1      20.196   2.771  52.716  1.00  0.00    -0.353 OA
HETATM   20  O1  UNL     1      19.829   0.729  51.137  1.00  0.00    -0.383 OA
HETATM   21  C11 UNL     1      20.814   1.007  50.186  1.00  0.00     0.194 C 
HETATM   22  O2  UNL     1      21.507   2.217  50.504  1.00  0.00     0.000 OA
HETATM   23  C12 UNL     1      22.547   2.652  49.645  1.00  0.00    -0.032 A 
HETATM   24  O3  UNL     1      20.446   3.150  50.020  1.00  0.00     0.000 OA
HETATM   25  C13 UNL     1      21.545   3.468  49.231  1.00  0.00     0.010 A 
HETATM   26  C16 UNL     1      23.918   2.629  49.108  1.00  0.00     0.164 C 
HETATM   27  C14 UNL     1      19.873   4.176  50.825  1.00  0.00     0.029 C 
HETATM   28  C15 UNL     1      20.497   4.071  52.225  1.00  0.00     0.175 C 
ENDBRANCH   5  10
TORSDOF 1
ENDMDL
MODEL 9
REMARK VINA RESULT:      -8.2      4.086      6.901
REMARK  1 active torsions:
REMARK  status: ('A' for Active; 'I' for Inactive)
REMARK    1  A    between atoms: C4_5  and  N2_6 
ROOT
HETATM    1  N1  UNL     1      16.209   0.069  49.333  1.00  0.00    -0.191 NA
HETATM    2  C1  UNL     1      16.851  -0.148  50.270  1.00  0.00     0.102 C 
HETATM    3  C2  UNL     1      17.640  -0.439  51.426  1.00  0.00     0.085 A 
HETATM    4  C3  UNL     1      18.852   0.233  51.632  1.00  0.00     0.055 A 
HETATM    5  C4  UNL     1      19.723   0.061  52.702  1.00  0.00     0.033 A 
HETATM    6  C17 UNL     1      19.216  -0.895  53.562  1.00  0.00     0.032 A 
HETATM    7  C18 UNL     1      18.052  -1.605  53.453  1.00  0.00     0.046 A 
HETATM    8  C19 UNL     1      17.265  -1.355  52.355  1.00  0.00     0.137 A 
HETATM    9  F1  UNL     1      16.114  -2.006  52.172  1.00  0.00    -0.204 F 
ENDROOT
BRANCH   5  10
HETATM   10  N2  UNL     1      20.970   0.798  52.892  1.00  0.00    -0.359 N 
HETATM   11  C5  UNL     1      21.941  -0.266  53.069  1.00  0.00     0.269 C 
HETATM   12  N3  UNL     1      23.294   0.096  52.925  1.00  0.00    -0.282 N 
HETATM   13  C6  UNL     1      24.345  -0.370  53.493  1.00  0.00     0.195 A 
HETATM   14  N4  UNL     1      24.382   0.638  52.580  1.00  0.00    -0.163 NA
HETATM   15  C7  UNL     1      24.867   1.807  52.531  1.00  0.00     0.092 C 
HETATM   16  C8  UNL     1      24.410   2.108  51.208  1.00  0.00     0.048 C 
HETATM   17  C9  UNL     1      24.335   3.076  50.315  1.00  0.00     0.070 C 
HETATM   18  C10 UNL     1      24.915   4.343  50.798  1.00  0.00     0.232 C 
HETATM   19  O4  UNL     1      23.901   3.431  49.017  1.00  0.00    -0.353 OA
HETATM   20  O1  UNL     1      23.879   5.328  50.805  1.00  0.00    -0.383 OA
HETATM   21  C11 UNL     1      22.837   4.861  51.608  1.00  0.00     0.194 C 
HETATM   22  O2  UNL     1      22.297   3.640  51.092  1.00  0.00     0.000 OA
HETATM   23  C12 UNL     1      21.230   3.019  51.787  1.00  0.00    -0.032 A 
HETATM   24  O3  UNL     1      21.490   4.263  50.001  1.00  0.00     0.000 OA
HETATM   25  C13 UNL     1      20.540   3.617  50.783  1.00  0.00     0.010 A 
HETATM   26  C16 UNL     1      20.649   2.202  52.864  1.00  0.00     0.164 C 
HETATM   27  C14 UNL     1      21.601   3.892  48.629  1.00  0.00     0.029 C 
HETATM   28  C15 UNL     1      22.708   2.834  48.522  1.00  0.00     0.175 C 
ENDBRANCH   5  10
TORSDOF 1
ENDMDL
