MODEL 1
REMARK VINA RESULT:      -9.1      0.000      0.000
REMARK  7 active torsions:
REMARK  status: ('A' for Active; 'I' for Inactive)
REMARK       I    between atoms: C2_2  and  N1_4 
REMARK    1  A    between atoms: C6_8  and  C7_9 
REMARK    2  A    between atoms: C10_12  and  N2_13 
REMARK    3  A    between atoms: N2_13  and  S1_14 
REMARK    4  A    between atoms: S1_14  and  C11_17 
REMARK    5  A    between atoms: C20_29  and  O4_30 
REMARK    6  A    between atoms: O4_30  and  C21_31 
REMARK    7  A    between atoms: C21_31  and  N6_32 
ROOT
HETATM    1  C1  UNL     1      29.571  -1.058  53.135  1.00  0.00     0.118 C 
HETATM    2  C2  UNL     1      28.131  -1.423  53.166  1.00  0.00     0.225 C 
HETATM    3  O1  UNL     1      27.768  -2.624  53.276  1.00  0.00    -0.273 OA
HETATM    4  N1  UNL     1      27.099  -0.449  53.076  1.00  0.00    -0.272 N 
HETATM    5  C3  UNL     1      25.743  -0.875  53.111  1.00  0.00     0.116 A 
HETATM    6  C4  UNL     1      24.703  -0.060  53.034  1.00  0.00     0.013 A 
HETATM    7  C5  UNL     1      23.320  -0.515  53.073  1.00  0.00     0.047 A 
HETATM    8  C6  UNL     1      22.281   0.280  52.998  1.00  0.00     0.062 A 
HETATM    9  N4  UNL     1      22.627   1.652  52.873  1.00  0.00    -0.277 N 
HETATM   10  N5  UNL     1      23.931   2.159  52.830  1.00  0.00    -0.174 NA
HETATM   11  C18 UNL     1      24.949   1.373  52.904  1.00  0.00     0.092 A 
HETATM   12  C19 UNL     1      26.335   1.833  52.866  1.00  0.00     0.091 A 
HETATM   13  C20 UNL     1      27.307   0.945  52.949  1.00  0.00     0.155 A 
HETATM   14  H15 UNL     1      21.922   2.412  52.803  1.00  0.00     0.189 HD
ENDROOT
BRANCH   8  15
HETATM   15  C7  UNL     1      20.910  -0.162  53.035  1.00  0.00     0.010 A 
HETATM   16  C8  UNL     1      19.917   0.410  52.273  1.00  0.00     0.019 A 
HETATM   17  C9  UNL     1      18.634  -0.099  52.393  1.00  0.00     0.052 A 
HETATM   18  C10 UNL     1      18.256  -1.147  53.223  1.00  0.00     0.136 A 
HETATM   19  N3  UNL     1      19.280  -1.677  53.957  1.00  0.00    -0.242 NA
HETATM   20  C17 UNL     1      20.527  -1.198  53.855  1.00  0.00     0.132 A 
BRANCH  18  21
HETATM   21  N2  UNL     1      16.915  -1.608  53.280  1.00  0.00    -0.264 N 
HETATM   22  H8  UNL     1      16.781  -2.294  54.086  1.00  0.00     0.180 HD
BRANCH  21  23
HETATM   23  S1  UNL     1      15.574  -1.240  52.299  1.00  0.00     0.264 S 
HETATM   24  O2  UNL     1      14.530  -2.318  52.482  1.00  0.00    -0.200 OA
HETATM   25  O3  UNL     1      15.951  -1.203  50.829  1.00  0.00    -0.200 OA
BRANCH  23  26
HETATM   26  C11 UNL     1      14.796   0.265  52.667  1.00  0.00     0.079 A 
HETATM   27  C12 UNL     1      13.658   0.223  53.452  1.00  0.00     0.025 A 
HETATM   28  C13 UNL     1      12.906   1.297  53.839  1.00  0.00     0.002 A 
HETATM   29  C14 UNL     1      13.311   2.542  53.414  1.00  0.00     0.000 A 
HETATM   30  C15 UNL     1      14.451   2.668  52.617  1.00  0.00     0.002 A 
HETATM   31  C16 UNL     1      15.143   1.526  52.279  1.00  0.00     0.025 A 
ENDBRANCH  23  26
ENDBRANCH  21  23
ENDBRANCH  18  21
ENDBRANCH   8  15
BRANCH  13  32
HETATM   32  O4  UNL     1      28.606   1.422  52.909  1.00  0.00    -0.305 OA
BRANCH  32  33
HETATM   33  C21 UNL     1      28.895   2.583  53.703  1.00  0.00     0.443 C 
BRANCH  33  34
HETATM   34  N6  UNL     1      29.726   2.198  54.824  1.00  0.00     0.101 N 
HETATM   35  H19 UNL     1      29.189   1.594  55.467  1.00  0.00     0.315 HD
HETATM   36  H20 UNL     1      30.595   1.713  54.525  1.00  0.00     0.315 HD
ENDBRANCH  33  34
ENDBRANCH  32  33
ENDBRANCH  13  32
TORSDOF 7
ENDMDL
MODEL 2
REMARK VINA RESULT:      -8.8      6.889      9.676
REMARK  7 active torsions:
REMARK  status: ('A' for Active; 'I' for Inactive)
REMARK       I    between atoms: C2_2  and  N1_4 
REMARK    1  A    between atoms: C6_8  and  C7_9 
REMARK    2  A    between atoms: C10_12  and  N2_13 
REMARK    3  A    between atoms: N2_13  and  S1_14 
REMARK    4  A    between atoms: S1_14  and  C11_17 
REMARK    5  A    between atoms: C20_29  and  O4_30 
REMARK    6  A    between atoms: O4_30  and  C21_31 
REMARK    7  A    between atoms: C21_31  and  N6_32 
ROOT
HETATM    1  C1  UNL     1      35.146   3.450  46.728  1.00  0.00     0.118 C 
HETATM    2  C2  UNL     1      33.673   3.396  46.915  1.00  0.00     0.225 C 
HETATM    3  O1  UNL     1      33.024   2.347  46.659  1.00  0.00    -0.273 OA
HETATM    4  N1  UNL     1      32.927   4.510  47.389  1.00  0.00    -0.272 N 
HETATM    5  C3  UNL     1      31.520   4.384  47.541  1.00  0.00     0.116 A 
HETATM    6  C4  UNL     1      30.726   5.352  47.972  1.00  0.00     0.013 A 
HETATM    7  C5  UNL     1      29.285   5.202  48.122  1.00  0.00     0.047 A 
HETATM    8  C6  UNL     1      28.487   6.152  48.546  1.00  0.00     0.062 A 
HETATM    9  N4  UNL     1      29.163   7.362  48.853  1.00  0.00    -0.277 N 
HETATM   10  N5  UNL     1      30.542   7.576  48.733  1.00  0.00    -0.174 NA
HETATM   11  C18 UNL     1      31.321   6.639  48.315  1.00  0.00     0.092 A 
HETATM   12  C19 UNL     1      32.766   6.791  48.166  1.00  0.00     0.091 A 
HETATM   13  C20 UNL     1      33.476   5.769  47.729  1.00  0.00     0.155 A 
HETATM   14  H15 UNL     1      28.677   8.212  49.202  1.00  0.00     0.189 HD
ENDROOT
BRANCH   8  15
HETATM   15  C7  UNL     1      27.062   6.013  48.698  1.00  0.00     0.010 A 
HETATM   16  C8  UNL     1      26.449   4.809  48.962  1.00  0.00     0.019 A 
HETATM   17  C9  UNL     1      25.069   4.797  49.087  1.00  0.00     0.052 A 
HETATM   18  C10 UNL     1      24.239   5.904  48.968  1.00  0.00     0.136 A 
HETATM   19  N3  UNL     1      24.898   7.073  48.706  1.00  0.00    -0.242 NA
HETATM   20  C17 UNL     1      26.232   7.105  48.582  1.00  0.00     0.132 A 
BRANCH  18  21
HETATM   21  N2  UNL     1      22.831   5.801  49.117  1.00  0.00    -0.264 N 
HETATM   22  H8  UNL     1      22.326   6.261  48.297  1.00  0.00     0.180 HD
BRANCH  21  23
HETATM   23  S1  UNL     1      21.896   5.090  50.347  1.00  0.00     0.264 S 
HETATM   24  O2  UNL     1      20.619   4.555  49.737  1.00  0.00    -0.200 OA
HETATM   25  O3  UNL     1      21.513   6.099  51.413  1.00  0.00    -0.200 OA
BRANCH  23  26
HETATM   26  C11 UNL     1      22.652   3.752  51.152  1.00  0.00     0.079 A 
HETATM   27  C12 UNL     1      23.418   4.028  52.270  1.00  0.00     0.025 A 
HETATM   28  C13 UNL     1      24.095   3.113  53.027  1.00  0.00     0.002 A 
HETATM   29  C14 UNL     1      24.012   1.791  52.652  1.00  0.00     0.000 A 
HETATM   30  C15 UNL     1      23.256   1.432  51.533  1.00  0.00     0.002 A 
HETATM   31  C16 UNL     1      22.610   2.427  50.833  1.00  0.00     0.025 A 
ENDBRANCH  23  26
ENDBRANCH  21  23
ENDBRANCH  18  21
ENDBRANCH   8  15
BRANCH  13  32
HETATM   32  O4  UNL     1      34.842   5.955  47.601  1.00  0.00    -0.305 OA
BRANCH  32  33
HETATM   33  C21 UNL     1      35.491   6.721  48.629  1.00  0.00     0.443 C 
BRANCH  33  34
HETATM   34  N6  UNL     1      36.136   5.819  49.559  1.00  0.00     0.101 N 
HETATM   35  H19 UNL     1      35.447   5.473  50.246  1.00  0.00     0.315 HD
HETATM   36  H20 UNL     1      36.594   5.018  49.081  1.00  0.00     0.315 HD
ENDBRANCH  33  34
ENDBRANCH  32  33
ENDBRANCH  13  32
TORSDOF 7
ENDMDL
MODEL 3
REMARK VINA RESULT:      -8.8      6.191     12.114
REMARK  7 active torsions:
REMARK  status: ('A' for Active; 'I' for Inactive)
REMARK       I    between atoms: C2_2  and  N1_4 
REMARK    1  A    between atoms: C6_8  and  C7_9 
REMARK    2  A    between atoms: C10_12  and  N2_13 
REMARK    3  A    between atoms: N2_13  and  S1_14 
REMARK    4  A    between atoms: S1_14  and  C11_17 
REMARK    5  A    between atoms: C20_29  and  O4_30 
REMARK    6  A    between atoms: O4_30  and  C21_31 
REMARK    7  A    between atoms: C21_31  and  N6_32 
ROOT
HETATM    1  C1  UNL     1      24.535  -1.567  55.607  1.00  0.00     0.118 C 
HETATM    2  C2  UNL     1      25.263  -0.526  54.837  1.00  0.00     0.225 C 
HETATM    3  O1  UNL     1      26.456  -0.231  55.112  1.00  0.00    -0.273 OA
HETATM    4  N1  UNL     1      24.659   0.184  53.763  1.00  0.00    -0.272 N 
HETATM    5  C3  UNL     1      25.419   1.168  53.073  1.00  0.00     0.116 A 
HETATM    6  C4  UNL     1      24.963   1.889  52.061  1.00  0.00     0.013 A 
HETATM    7  C5  UNL     1      25.757   2.893  51.366  1.00  0.00     0.047 A 
HETATM    8  C6  UNL     1      25.318   3.613  50.363  1.00  0.00     0.062 A 
HETATM    9  N4  UNL     1      23.974   3.325  50.005  1.00  0.00    -0.277 N 
HETATM   10  N5  UNL     1      23.154   2.376  50.628  1.00  0.00    -0.174 NA
HETATM   11  C18 UNL     1      23.591   1.670  51.614  1.00  0.00     0.092 A 
HETATM   12  C19 UNL     1      22.792   0.664  52.308  1.00  0.00     0.091 A 
HETATM   13  C20 UNL     1      23.334  -0.006  53.307  1.00  0.00     0.155 A 
HETATM   14  H15 UNL     1      23.476   3.807  49.232  1.00  0.00     0.189 HD
ENDROOT
BRANCH   8  15
HETATM   15  C7  UNL     1      26.096   4.608  49.670  1.00  0.00     0.010 A 
HETATM   16  C8  UNL     1      27.251   4.312  48.983  1.00  0.00     0.019 A 
HETATM   17  C9  UNL     1      27.917   5.352  48.355  1.00  0.00     0.052 A 
HETATM   18  C10 UNL     1      27.519   6.683  48.357  1.00  0.00     0.136 A 
HETATM   19  N3  UNL     1      26.366   6.921  49.053  1.00  0.00    -0.242 NA
HETATM   20  C17 UNL     1      25.709   5.928  49.668  1.00  0.00     0.132 A 
BRANCH  18  21
HETATM   21  N2  UNL     1      28.261   7.685  47.681  1.00  0.00    -0.264 N 
HETATM   22  H8  UNL     1      27.937   7.784  46.669  1.00  0.00     0.180 HD
BRANCH  21  23
HETATM   23  S1  UNL     1      29.521   8.689  48.228  1.00  0.00     0.264 S 
HETATM   24  O2  UNL     1      29.134   9.262  49.572  1.00  0.00    -0.200 OA
HETATM   25  O3  UNL     1      29.763   9.849  47.280  1.00  0.00    -0.200 OA
BRANCH  23  26
HETATM   26  C11 UNL     1      31.042   7.887  48.456  1.00  0.00     0.079 A 
HETATM   27  C12 UNL     1      32.185   8.553  48.055  1.00  0.00     0.025 A 
HETATM   28  C13 UNL     1      33.465   8.083  48.145  1.00  0.00     0.002 A 
HETATM   29  C14 UNL     1      33.645   6.829  48.685  1.00  0.00     0.000 A 
HETATM   30  C15 UNL     1      32.539   6.092  49.114  1.00  0.00     0.002 A 
HETATM   31  C16 UNL     1      31.287   6.652  48.981  1.00  0.00     0.025 A 
ENDBRANCH  23  26
ENDBRANCH  21  23
ENDBRANCH  18  21
ENDBRANCH   8  15
BRANCH  13  32
HETATM   32  O4  UNL     1      22.543  -0.951  53.939  1.00  0.00    -0.305 OA
BRANCH  32  33
HETATM   33  C21 UNL     1      21.301  -0.490  54.494  1.00  0.00     0.443 C 
BRANCH  33  34
HETATM   34  N6  UNL     1      20.262  -1.454  54.201  1.00  0.00     0.101 N 
HETATM   35  H19 UNL     1      20.680  -2.388  54.064  1.00  0.00     0.315 HD
HETATM   36  H20 UNL     1      19.537  -1.494  54.944  1.00  0.00     0.315 HD
ENDBRANCH  33  34
ENDBRANCH  32  33
ENDBRANCH  13  32
TORSDOF 7
ENDMDL
MODEL 4
REMARK VINA RESULT:      -8.7      5.275      6.727
REMARK  7 active torsions:
REMARK  status: ('A' for Active; 'I' for Inactive)
REMARK       I    between atoms: C2_2  and  N1_4 
REMARK    1  A    between atoms: C6_8  and  C7_9 
REMARK    2  A    between atoms: C10_12  and  N2_13 
REMARK    3  A    between atoms: N2_13  and  S1_14 
REMARK    4  A    between atoms: S1_14  and  C11_17 
REMARK    5  A    between atoms: C20_29  and  O4_30 
REMARK    6  A    between atoms: O4_30  and  C21_31 
REMARK    7  A    between atoms: C21_31  and  N6_32 
ROOT
HETATM    1  C1  UNL     1      30.370   7.213  47.133  1.00  0.00     0.118 C 
HETATM    2  C2  UNL     1      29.691   6.092  47.834  1.00  0.00     0.225 C 
HETATM    3  O1  UNL     1      30.324   5.053  48.161  1.00  0.00    -0.273 OA
HETATM    4  N1  UNL     1      28.310   6.133  48.169  1.00  0.00    -0.272 N 
HETATM    5  C3  UNL     1      27.730   5.021  48.839  1.00  0.00     0.116 A 
HETATM    6  C4  UNL     1      26.458   4.948  49.199  1.00  0.00     0.013 A 
HETATM    7  C5  UNL     1      25.882   3.800  49.886  1.00  0.00     0.047 A 
HETATM    8  C6  UNL     1      24.625   3.714  50.248  1.00  0.00     0.062 A 
HETATM    9  N4  UNL     1      23.859   4.860  49.906  1.00  0.00    -0.277 N 
HETATM   10  N5  UNL     1      24.346   5.996  49.248  1.00  0.00    -0.174 NA
HETATM   11  C18 UNL     1      25.582   6.075  48.895  1.00  0.00     0.092 A 
HETATM   12  C19 UNL     1      26.158   7.228  48.206  1.00  0.00     0.091 A 
HETATM   13  C20 UNL     1      27.437   7.210  47.887  1.00  0.00     0.155 A 
HETATM   14  H15 UNL     1      22.847   4.952  50.122  1.00  0.00     0.189 HD
ENDROOT
BRANCH   8  15
HETATM   15  C7  UNL     1      24.047   2.583  50.927  1.00  0.00     0.010 A 
HETATM   16  C8  UNL     1      24.629   1.988  52.023  1.00  0.00     0.019 A 
HETATM   17  C9  UNL     1      23.981   0.906  52.595  1.00  0.00     0.052 A 
HETATM   18  C10 UNL     1      22.782   0.359  52.154  1.00  0.00     0.136 A 
HETATM   19  N3  UNL     1      22.247   0.986  51.063  1.00  0.00    -0.242 NA
HETATM   20  C17 UNL     1      22.860   2.035  50.497  1.00  0.00     0.132 A 
BRANCH  18  21
HETATM   21  N2  UNL     1      22.185  -0.753  52.804  1.00  0.00    -0.264 N 
HETATM   22  H8  UNL     1      22.639  -1.667  52.491  1.00  0.00     0.180 HD
BRANCH  21  23
HETATM   23  S1  UNL     1      20.922  -0.823  53.942  1.00  0.00     0.264 S 
HETATM   24  O2  UNL     1      20.940   0.445  54.764  1.00  0.00    -0.200 OA
HETATM   25  O3  UNL     1      21.091  -1.995  54.892  1.00  0.00    -0.200 OA
BRANCH  23  26
HETATM   26  C11 UNL     1      19.333  -0.942  53.257  1.00  0.00     0.079 A 
HETATM   27  C12 UNL     1      19.003  -0.058  52.247  1.00  0.00     0.025 A 
HETATM   28  C13 UNL     1      17.804   0.008  51.594  1.00  0.00     0.002 A 
HETATM   29  C14 UNL     1      16.826  -0.885  51.970  1.00  0.00     0.000 A 
HETATM   30  C15 UNL     1      17.083  -1.812  52.984  1.00  0.00     0.002 A 
HETATM   31  C16 UNL     1      18.324  -1.799  53.582  1.00  0.00     0.025 A 
ENDBRANCH  23  26
ENDBRANCH  21  23
ENDBRANCH  18  21
ENDBRANCH   8  15
BRANCH  13  32
HETATM   32  O4  UNL     1      27.943   8.322  47.235  1.00  0.00    -0.305 OA
BRANCH  32  33
HETATM   33  C21 UNL     1      27.671   9.601  47.830  1.00  0.00     0.443 C 
BRANCH  33  34
HETATM   34  N6  UNL     1      28.764   9.959  48.709  1.00  0.00     0.101 N 
HETATM   35  H19 UNL     1      29.369   9.138  48.867  1.00  0.00     0.315 HD
HETATM   36  H20 UNL     1      29.328  10.750  48.340  1.00  0.00     0.315 HD
ENDBRANCH  33  34
ENDBRANCH  32  33
ENDBRANCH  13  32
TORSDOF 7
ENDMDL
MODEL 5
REMARK VINA RESULT:      -8.6      6.827     11.923
REMARK  7 active torsions:
REMARK  status: ('A' for Active; 'I' for Inactive)
REMARK       I    between atoms: C2_2  and  N1_4 
REMARK    1  A    between atoms: C6_8  and  C7_9 
REMARK    2  A    between atoms: C10_12  and  N2_13 
REMARK    3  A    between atoms: N2_13  and  S1_14 
REMARK    4  A    between atoms: S1_14  and  C11_17 
REMARK    5  A    between atoms: C20_29  and  O4_30 
REMARK    6  A    between atoms: O4_30  and  C21_31 
REMARK    7  A    between atoms: C21_31  and  N6_32 
ROOT
HETATM    1  C1  UNL     1      24.570  -1.379  55.378  1.00  0.00     0.118 C 
HETATM    2  C2  UNL     1      25.342  -0.378  54.597  1.00  0.00     0.225 C 
HETATM    3  O1  UNL     1      26.549  -0.138  54.863  1.00  0.00    -0.273 OA
HETATM    4  N1  UNL     1      24.767   0.350  53.519  1.00  0.00    -0.272 N 
HETATM    5  C3  UNL     1      25.568   1.293  52.819  1.00  0.00     0.116 A 
HETATM    6  C4  UNL     1      25.140   2.027  51.803  1.00  0.00     0.013 A 
HETATM    7  C5  UNL     1      25.977   2.987  51.097  1.00  0.00     0.047 A 
HETATM    8  C6  UNL     1      25.566   3.720  50.091  1.00  0.00     0.062 A 
HETATM    9  N4  UNL     1      24.209   3.492  49.742  1.00  0.00    -0.277 N 
HETATM   10  N5  UNL     1      23.349   2.587  50.375  1.00  0.00    -0.174 NA
HETATM   11  C18 UNL     1      23.757   1.869  51.364  1.00  0.00     0.092 A 
HETATM   12  C19 UNL     1      22.916   0.906  52.070  1.00  0.00     0.091 A 
HETATM   13  C20 UNL     1      23.431   0.219  53.071  1.00  0.00     0.155 A 
HETATM   14  H15 UNL     1      23.730   3.992  48.967  1.00  0.00     0.189 HD
ENDROOT
BRANCH   8  15
HETATM   15  C7  UNL     1      26.387   4.672  49.387  1.00  0.00     0.010 A 
HETATM   16  C8  UNL     1      25.957   5.940  49.065  1.00  0.00     0.019 A 
HETATM   17  C9  UNL     1      26.835   6.769  48.385  1.00  0.00     0.052 A 
HETATM   18  C10 UNL     1      28.124   6.432  47.994  1.00  0.00     0.136 A 
HETATM   19  N3  UNL     1      28.500   5.163  48.338  1.00  0.00    -0.242 NA
HETATM   20  C17 UNL     1      27.665   4.346  48.995  1.00  0.00     0.132 A 
BRANCH  18  21
HETATM   21  N2  UNL     1      28.959   7.348  47.303  1.00  0.00    -0.264 N 
HETATM   22  H8  UNL     1      28.659   7.443  46.283  1.00  0.00     0.180 HD
BRANCH  21  23
HETATM   23  S1  UNL     1      30.290   8.259  47.844  1.00  0.00     0.264 S 
HETATM   24  O2  UNL     1      31.299   8.354  46.722  1.00  0.00    -0.200 OA
HETATM   25  O3  UNL     1      30.973   7.602  49.029  1.00  0.00    -0.200 OA
BRANCH  23  26
HETATM   26  C11 UNL     1      29.915   9.888  48.305  1.00  0.00     0.079 A 
HETATM   27  C12 UNL     1      28.585  10.267  48.298  1.00  0.00     0.025 A 
HETATM   28  C13 UNL     1      28.098  11.503  48.620  1.00  0.00     0.002 A 
HETATM   29  C14 UNL     1      29.008  12.468  48.988  1.00  0.00     0.000 A 
HETATM   30  C15 UNL     1      30.371  12.164  49.020  1.00  0.00     0.002 A 
HETATM   31  C16 UNL     1      30.764  10.889  48.677  1.00  0.00     0.025 A 
ENDBRANCH  23  26
ENDBRANCH  21  23
ENDBRANCH  18  21
ENDBRANCH   8  15
BRANCH  13  32
HETATM   32  O4  UNL     1      22.600  -0.683  53.715  1.00  0.00    -0.305 OA
BRANCH  32  33
HETATM   33  C21 UNL     1      21.353  -0.174  54.213  1.00  0.00     0.443 C 
BRANCH  33  34
HETATM   34  N6  UNL     1      20.409  -1.264  54.335  1.00  0.00     0.101 N 
HETATM   35  H19 UNL     1      20.777  -2.101  53.856  1.00  0.00     0.315 HD
HETATM   36  H20 UNL     1      20.190  -1.490  55.326  1.00  0.00     0.315 HD
ENDBRANCH  33  34
ENDBRANCH  32  33
ENDBRANCH  13  32
TORSDOF 7
ENDMDL
MODEL 6
REMARK VINA RESULT:      -8.6      5.810      7.930
REMARK  7 active torsions:
REMARK  status: ('A' for Active; 'I' for Inactive)
REMARK       I    between atoms: C2_2  and  N1_4 
REMARK    1  A    between atoms: C6_8  and  C7_9 
REMARK    2  A    between atoms: C10_12  and  N2_13 
REMARK    3  A    between atoms: N2_13  and  S1_14 
REMARK    4  A    between atoms: S1_14  and  C11_17 
REMARK    5  A    between atoms: C20_29  and  O4_30 
REMARK    6  A    between atoms: O4_30  and  C21_31 
REMARK    7  A    between atoms: C21_31  and  N6_32 
ROOT
HETATM    1  C1  UNL     1      32.536   6.445  47.310  1.00  0.00     0.118 C 
HETATM    2  C2  UNL     1      31.336   5.647  47.673  1.00  0.00     0.225 C 
HETATM    3  O1  UNL     1      31.397   4.393  47.776  1.00  0.00    -0.273 OA
HETATM    4  N1  UNL     1      30.071   6.249  47.920  1.00  0.00    -0.272 N 
HETATM    5  C3  UNL     1      28.967   5.420  48.260  1.00  0.00     0.116 A 
HETATM    6  C4  UNL     1      27.747   5.868  48.510  1.00  0.00     0.013 A 
HETATM    7  C5  UNL     1      26.629   5.002  48.858  1.00  0.00     0.047 A 
HETATM    8  C6  UNL     1      25.416   5.432  49.108  1.00  0.00     0.062 A 
HETATM    9  N4  UNL     1      25.284   6.842  49.008  1.00  0.00    -0.277 N 
HETATM   10  N5  UNL     1      26.314   7.733  48.679  1.00  0.00    -0.174 NA
HETATM   11  C18 UNL     1      27.504   7.305  48.434  1.00  0.00     0.092 A 
HETATM   12  C19 UNL     1      28.624   8.175  48.086  1.00  0.00     0.091 A 
HETATM   13  C20 UNL     1      29.805   7.637  47.854  1.00  0.00     0.155 A 
HETATM   14  H15 UNL     1      24.389   7.343  49.175  1.00  0.00     0.189 HD
ENDROOT
BRANCH   8  15
HETATM   15  C7  UNL     1      24.304   4.584  49.453  1.00  0.00     0.010 A 
HETATM   16  C8  UNL     1      24.384   3.210  49.465  1.00  0.00     0.019 A 
HETATM   17  C9  UNL     1      23.249   2.497  49.813  1.00  0.00     0.052 A 
HETATM   18  C10 UNL     1      22.021   3.051  50.155  1.00  0.00     0.136 A 
HETATM   19  N3  UNL     1      21.997   4.418  50.127  1.00  0.00    -0.242 NA
HETATM   20  C17 UNL     1      23.085   5.125  49.792  1.00  0.00     0.132 A 
BRANCH  18  21
HETATM   21  N2  UNL     1      20.908   2.242  50.503  1.00  0.00    -0.264 N 
HETATM   22  H8  UNL     1      20.493   1.772  49.640  1.00  0.00     0.180 HD
BRANCH  21  23
HETATM   23  S1  UNL     1      20.189   1.939  52.015  1.00  0.00     0.264 S 
HETATM   24  O2  UNL     1      18.821   1.338  51.789  1.00  0.00    -0.200 OA
HETATM   25  O3  UNL     1      20.009   3.217  52.814  1.00  0.00    -0.200 OA
BRANCH  23  26
HETATM   26  C11 UNL     1      21.055   0.822  53.020  1.00  0.00     0.079 A 
HETATM   27  C12 UNL     1      22.308   0.417  52.597  1.00  0.00     0.025 A 
HETATM   28  C13 UNL     1      23.133  -0.459  53.245  1.00  0.00     0.002 A 
HETATM   29  C14 UNL     1      22.685  -0.994  54.432  1.00  0.00     0.000 A 
HETATM   30  C15 UNL     1      21.429  -0.633  54.927  1.00  0.00     0.002 A 
HETATM   31  C16 UNL     1      20.671   0.258  54.201  1.00  0.00     0.025 A 
ENDBRANCH  23  26
ENDBRANCH  21  23
ENDBRANCH  18  21
ENDBRANCH   8  15
BRANCH  13  32
HETATM   32  O4  UNL     1      30.841   8.496  47.526  1.00  0.00    -0.305 OA
BRANCH  32  33
HETATM   33  C21 UNL     1      31.051   9.619  48.398  1.00  0.00     0.443 C 
BRANCH  33  34
HETATM   34  N6  UNL     1      31.214   9.143  49.755  1.00  0.00     0.101 N 
HETATM   35  H19 UNL     1      30.573   9.652  50.384  1.00  0.00     0.315 HD
HETATM   36  H20 UNL     1      31.054   8.119  49.838  1.00  0.00     0.315 HD
ENDBRANCH  33  34
ENDBRANCH  32  33
ENDBRANCH  13  32
TORSDOF 7
ENDMDL
MODEL 7
REMARK VINA RESULT:      -8.6      6.435     12.551
REMARK  7 active torsions:
REMARK  status: ('A' for Active; 'I' for Inactive)
REMARK       I    between atoms: C2_2  and  N1_4 
REMARK    1  A    between atoms: C6_8  and  C7_9 
REMARK    2  A    between atoms: C10_12  and  N2_13 
REMARK    3  A    between atoms: N2_13  and  S1_14 
REMARK    4  A    between atoms: S1_14  and  C11_17 
REMARK    5  A    between atoms: C20_29  and  O4_30 
REMARK    6  A    between atoms: O4_30  and  C21_31 
REMARK    7  A    between atoms: C21_31  and  N6_32 
ROOT
HETATM    1  C1  UNL     1      22.350  -1.233  54.053  1.00  0.00     0.118 C 
HETATM    2  C2  UNL     1      23.401  -0.342  53.494  1.00  0.00     0.225 C 
HETATM    3  O1  UNL     1      24.582  -0.378  53.931  1.00  0.00    -0.273 OA
HETATM    4  N1  UNL     1      23.133   0.584  52.449  1.00  0.00    -0.272 N 
HETATM    5  C3  UNL     1      24.189   1.405  51.967  1.00  0.00     0.116 A 
HETATM    6  C4  UNL     1      24.056   2.300  51.001  1.00  0.00     0.013 A 
HETATM    7  C5  UNL     1      25.151   3.132  50.519  1.00  0.00     0.047 A 
HETATM    8  C6  UNL     1      25.034   4.022  49.565  1.00  0.00     0.062 A 
HETATM    9  N4  UNL     1      23.722   4.108  49.030  1.00  0.00    -0.277 N 
HETATM   10  N5  UNL     1      22.624   3.342  49.443  1.00  0.00    -0.174 NA
HETATM   11  C18 UNL     1      22.745   2.468  50.382  1.00  0.00     0.092 A 
HETATM   12  C19 UNL     1      21.645   1.636  50.863  1.00  0.00     0.091 A 
HETATM   13  C20 UNL     1      21.873   0.770  51.830  1.00  0.00     0.155 A 
HETATM   14  H15 UNL     1      23.460   4.764  48.267  1.00  0.00     0.189 HD
ENDROOT
BRANCH   8  15
HETATM   15  C7  UNL     1      26.111   4.848  49.082  1.00  0.00     0.010 A 
HETATM   16  C8  UNL     1      25.950   6.175  48.753  1.00  0.00     0.019 A 
HETATM   17  C9  UNL     1      27.059   6.870  48.299  1.00  0.00     0.052 A 
HETATM   18  C10 UNL     1      28.334   6.342  48.144  1.00  0.00     0.136 A 
HETATM   19  N3  UNL     1      28.439   5.022  48.485  1.00  0.00    -0.242 NA
HETATM   20  C17 UNL     1      27.377   4.333  48.926  1.00  0.00     0.132 A 
BRANCH  18  21
HETATM   21  N2  UNL     1      29.417   7.130  47.675  1.00  0.00    -0.264 N 
HETATM   22  H8  UNL     1      29.078   7.879  46.995  1.00  0.00     0.180 HD
BRANCH  21  23
HETATM   23  S1  UNL     1      31.080   7.049  48.027  1.00  0.00     0.264 S 
HETATM   24  O2  UNL     1      31.249   6.720  49.493  1.00  0.00    -0.200 OA
HETATM   25  O3  UNL     1      31.771   8.375  47.766  1.00  0.00    -0.200 OA
BRANCH  23  26
HETATM   26  C11 UNL     1      31.950   5.834  47.147  1.00  0.00     0.079 A 
HETATM   27  C12 UNL     1      31.608   4.513  47.371  1.00  0.00     0.025 A 
HETATM   28  C13 UNL     1      32.183   3.421  46.782  1.00  0.00     0.002 A 
HETATM   29  C14 UNL     1      33.198   3.647  45.880  1.00  0.00     0.000 A 
HETATM   30  C15 UNL     1      33.601   4.955  45.599  1.00  0.00     0.002 A 
HETATM   31  C16 UNL     1      32.960   5.990  46.244  1.00  0.00     0.025 A 
ENDBRANCH  23  26
ENDBRANCH  21  23
ENDBRANCH  18  21
ENDBRANCH   8  15
BRANCH  13  32
HETATM   32  O4  UNL     1      20.804  -0.000  52.257  1.00  0.00    -0.305 OA
BRANCH  32  33
HETATM   33  C21 UNL     1      19.501   0.386  51.792  1.00  0.00     0.443 C 
BRANCH  33  34
HETATM   34  N6  UNL     1      18.520  -0.551  52.296  1.00  0.00     0.101 N 
HETATM   35  H19 UNL     1      18.335  -0.362  53.294  1.00  0.00     0.315 HD
HETATM   36  H20 UNL     1      17.631  -0.521  51.758  1.00  0.00     0.315 HD
ENDBRANCH  33  34
ENDBRANCH  32  33
ENDBRANCH  13  32
TORSDOF 7
ENDMDL
MODEL 8
REMARK VINA RESULT:      -8.6      2.079      3.406
REMARK  7 active torsions:
REMARK  status: ('A' for Active; 'I' for Inactive)
REMARK       I    between atoms: C2_2  and  N1_4 
REMARK    1  A    between atoms: C6_8  and  C7_9 
REMARK    2  A    between atoms: C10_12  and  N2_13 
REMARK    3  A    between atoms: N2_13  and  S1_14 
REMARK    4  A    between atoms: S1_14  and  C11_17 
REMARK    5  A    between atoms: C20_29  and  O4_30 
REMARK    6  A    between atoms: O4_30  and  C21_31 
REMARK    7  A    between atoms: C21_31  and  N6_32 
ROOT
HETATM    1  C1  UNL     1      26.723   2.089  51.681  1.00  0.00     0.118 C 
HETATM    2  C2  UNL     1      25.258   2.021  51.443  1.00  0.00     0.225 C 
HETATM    3  O1  UNL     1      24.711   2.729  50.557  1.00  0.00    -0.273 OA
HETATM    4  N1  UNL     1      24.408   1.161  52.191  1.00  0.00    -0.272 N 
HETATM    5  C3  UNL     1      23.015   1.151  51.907  1.00  0.00     0.116 A 
HETATM    6  C4  UNL     1      22.130   0.394  52.538  1.00  0.00     0.013 A 
HETATM    7  C5  UNL     1      20.706   0.397  52.232  1.00  0.00     0.047 A 
HETATM    8  C6  UNL     1      19.820  -0.346  52.848  1.00  0.00     0.062 A 
HETATM    9  N4  UNL     1      20.379  -1.170  53.860  1.00  0.00    -0.277 N 
HETATM   10  N5  UNL     1      21.735  -1.224  54.207  1.00  0.00    -0.174 NA
HETATM   11  C18 UNL     1      22.602  -0.491  53.598  1.00  0.00     0.092 A 
HETATM   12  C19 UNL     1      24.029  -0.497  53.907  1.00  0.00     0.091 A 
HETATM   13  C20 UNL     1      24.835   0.292  53.223  1.00  0.00     0.155 A 
HETATM   14  H15 UNL     1      19.813  -1.819  54.442  1.00  0.00     0.189 HD
ENDROOT
BRANCH   8  15
HETATM   15  C7  UNL     1      18.410  -0.349  52.552  1.00  0.00     0.010 A 
HETATM   16  C8  UNL     1      17.556  -1.340  52.981  1.00  0.00     0.019 A 
HETATM   17  C9  UNL     1      16.218  -1.237  52.634  1.00  0.00     0.052 A 
HETATM   18  C10 UNL     1      15.656  -0.213  51.883  1.00  0.00     0.136 A 
HETATM   19  N3  UNL     1      16.547   0.743  51.484  1.00  0.00    -0.242 NA
HETATM   20  C17 UNL     1      17.845   0.661  51.809  1.00  0.00     0.132 A 
BRANCH  18  21
HETATM   21  N2  UNL     1      14.270  -0.186  51.578  1.00  0.00    -0.264 N 
HETATM   22  H8  UNL     1      14.096  -0.482  50.568  1.00  0.00     0.180 HD
BRANCH  21  23
HETATM   23  S1  UNL     1      12.931   0.230  52.542  1.00  0.00     0.264 S 
HETATM   24  O2  UNL     1      12.903  -0.680  53.749  1.00  0.00    -0.200 OA
HETATM   25  O3  UNL     1      11.624   0.047  51.793  1.00  0.00    -0.200 OA
BRANCH  23  26
HETATM   26  C11 UNL     1      12.951   1.853  53.152  1.00  0.00     0.079 A 
HETATM   27  C12 UNL     1      11.948   2.221  54.029  1.00  0.00     0.025 A 
HETATM   28  C13 UNL     1      11.791   3.451  54.605  1.00  0.00     0.002 A 
HETATM   29  C14 UNL     1      12.715   4.422  54.289  1.00  0.00     0.000 A 
HETATM   30  C15 UNL     1      13.760   4.128  53.410  1.00  0.00     0.002 A 
HETATM   31  C16 UNL     1      13.833   2.858  52.881  1.00  0.00     0.025 A 
ENDBRANCH  23  26
ENDBRANCH  21  23
ENDBRANCH  18  21
ENDBRANCH   8  15
BRANCH  13  32
HETATM   32  O4  UNL     1      26.181   0.258  53.547  1.00  0.00    -0.305 OA
BRANCH  32  33
HETATM   33  C21 UNL     1      26.510   0.180  54.943  1.00  0.00     0.443 C 
BRANCH  33  34
HETATM   34  N6  UNL     1      27.905  -0.176  55.084  1.00  0.00     0.101 N 
HETATM   35  H19 UNL     1      28.497   0.652  54.910  1.00  0.00     0.315 HD
HETATM   36  H20 UNL     1      28.121  -0.576  56.019  1.00  0.00     0.315 HD
ENDBRANCH  33  34
ENDBRANCH  32  33
ENDBRANCH  13  32
TORSDOF 7
ENDMDL
MODEL 9
REMARK VINA RESULT:      -8.3      7.850     11.550
REMARK  7 active torsions:
REMARK  status: ('A' for Active; 'I' for Inactive)
REMARK       I    between atoms: C2_2  and  N1_4 
REMARK    1  A    between atoms: C6_8  and  C7_9 
REMARK    2  A    between atoms: C10_12  and  N2_13 
REMARK    3  A    between atoms: N2_13  and  S1_14 
REMARK    4  A    between atoms: S1_14  and  C11_17 
REMARK    5  A    between atoms: C20_29  and  O4_30 
REMARK    6  A    between atoms: O4_30  and  C21_31 
REMARK    7  A    between atoms: C21_31  and  N6_32 
ROOT
HETATM    1  C1  UNL     1      32.751  11.234  46.580  1.00  0.00     0.118 C 
HETATM    2  C2  UNL     1      32.102  10.049  47.199  1.00  0.00     0.225 C 
HETATM    3  O1  UNL     1      32.779   9.193  47.827  1.00  0.00    -0.273 OA
HETATM    4  N1  UNL     1      30.701   9.824  47.119  1.00  0.00    -0.272 N 
HETATM    5  C3  UNL     1      30.152   8.666  47.735  1.00  0.00     0.116 A 
HETATM    6  C4  UNL     1      28.865   8.354  47.724  1.00  0.00     0.013 A 
HETATM    7  C5  UNL     1      28.322   7.163  48.363  1.00  0.00     0.047 A 
HETATM    8  C6  UNL     1      27.051   6.841  48.359  1.00  0.00     0.062 A 
HETATM    9  N4  UNL     1      26.234   7.773  47.666  1.00  0.00    -0.277 N 
HETATM   10  N5  UNL     1      26.688   8.936  47.031  1.00  0.00    -0.174 NA
HETATM   11  C18 UNL     1      27.938   9.247  47.037  1.00  0.00     0.092 A 
HETATM   12  C19 UNL     1      28.480  10.442  46.397  1.00  0.00     0.091 A 
HETATM   13  C20 UNL     1      29.778  10.670  46.461  1.00  0.00     0.155 A 
HETATM   14  H15 UNL     1      25.205   7.666  47.571  1.00  0.00     0.189 HD
ENDROOT
BRANCH   8  15
HETATM   15  C7  UNL     1      26.505   5.666  48.988  1.00  0.00     0.010 A 
HETATM   16  C8  UNL     1      27.162   4.457  49.018  1.00  0.00     0.019 A 
HETATM   17  C9  UNL     1      26.538   3.395  49.652  1.00  0.00     0.052 A 
HETATM   18  C10 UNL     1      25.293   3.441  50.267  1.00  0.00     0.136 A 
HETATM   19  N3  UNL     1      24.684   4.664  50.208  1.00  0.00    -0.242 NA
HETATM   20  C17 UNL     1      25.272   5.703  49.598  1.00  0.00     0.132 A 
BRANCH  18  21
HETATM   21  N2  UNL     1      24.730   2.302  50.898  1.00  0.00    -0.264 N 
HETATM   22  H8  UNL     1      24.125   1.747  50.216  1.00  0.00     0.180 HD
BRANCH  21  23
HETATM   23  S1  UNL     1      24.877   1.734  52.495  1.00  0.00     0.264 S 
HETATM   24  O2  UNL     1      23.801   0.701  52.742  1.00  0.00    -0.200 OA
HETATM   25  O3  UNL     1      24.688   2.851  53.505  1.00  0.00    -0.200 OA
BRANCH  23  26
HETATM   26  C11 UNL     1      26.389   0.965  52.856  1.00  0.00     0.079 A 
HETATM   27  C12 UNL     1      27.422   1.764  53.310  1.00  0.00     0.025 A 
HETATM   28  C13 UNL     1      28.681   1.344  53.636  1.00  0.00     0.002 A 
HETATM   29  C14 UNL     1      28.958   0.002  53.504  1.00  0.00     0.000 A 
HETATM   30  C15 UNL     1      27.966  -0.871  53.051  1.00  0.00     0.002 A 
HETATM   31  C16 UNL     1      26.726  -0.352  52.747  1.00  0.00     0.025 A 
ENDBRANCH  23  26
ENDBRANCH  21  23
ENDBRANCH  18  21
ENDBRANCH   8  15
BRANCH  13  32
HETATM   32  O4  UNL     1      30.252  11.814  45.840  1.00  0.00    -0.305 OA
BRANCH  32  33
HETATM   33  C21 UNL     1      29.440  12.994  45.950  1.00  0.00     0.443 C 
BRANCH  33  34
HETATM   34  N6  UNL     1      29.902  13.787  47.069  1.00  0.00     0.101 N 
HETATM   35  H19 UNL     1      30.933  13.831  47.065  1.00  0.00     0.315 HD
HETATM   36  H20 UNL     1      29.505  14.747  47.066  1.00  0.00     0.315 HD
ENDBRANCH  33  34
ENDBRANCH  32  33
ENDBRANCH  13  32
TORSDOF 7
ENDMDL
