MODEL 1
REMARK VINA RESULT:      -8.0      0.000      0.000
REMARK  1 active torsions:
REMARK  status: ('A' for Active; 'I' for Inactive)
REMARK    1  A    between atoms: C6_7  and  O1_8 
ROOT
HETATM    1  N1  UNL     1      27.139   3.340  50.649  1.00  0.00    -0.191 NA
HETATM    2  C1  UNL     1      26.577   2.410  51.114  1.00  0.00     0.101 C 
HETATM    3  C2  UNL     1      25.915   1.267  51.674  1.00  0.00     0.070 C 
HETATM    4  C3  UNL     1      26.843   0.315  51.758  1.00  0.00     0.002 C 
HETATM    5  C4  UNL     1      26.814  -1.112  52.254  1.00  0.00     0.058 C 
HETATM    6  C5  UNL     1      26.391  -1.024  53.700  1.00  0.00     0.009 C 
HETATM    7  C6  UNL     1      25.139  -0.803  54.060  1.00  0.00     0.046 C 
HETATM    8  C7  UNL     1      23.774  -0.571  53.478  1.00  0.00     0.131 C 
HETATM    9  C8  UNL     1      23.666   0.677  52.711  1.00  0.00     0.082 C 
HETATM   10  C9  UNL     1      24.499   1.432  51.984  1.00  0.00     0.079 C 
HETATM   11  N2  UNL     1      24.256   2.639  51.325  1.00  0.00    -0.383 N 
HETATM   12  C10 UNL     1      22.864   2.967  51.519  1.00  0.00     0.147 C 
HETATM   13  C11 UNL     1      21.971   2.104  50.762  1.00  0.00    -0.007 C 
HETATM   14  C12 UNL     1      21.080   1.222  50.270  1.00  0.00    -0.003 C 
HETATM   15  C13 UNL     1      20.242   0.279  51.054  1.00  0.00    -0.001 C 
HETATM   16  C14 UNL     1      20.280   0.147  52.366  1.00  0.00     0.021 C 
HETATM   17  C15 UNL     1      21.166   0.898  53.343  1.00  0.00     0.247 C 
HETATM   18 CL1  UNL     1      20.768   0.359  55.008  1.00  0.00    -0.090 Cl
HETATM   19  O2  UNL     1      22.434   0.774  53.006  1.00  0.00    -0.328 OA
HETATM   20  H8  UNL     1      24.870   3.248  50.786  1.00  0.00     0.160 HD
ENDROOT
BRANCH   7  21
HETATM   21  O1  UNL     1      25.160  -0.794  55.472  1.00  0.00    -0.365 OA
HETATM   22  H5  UNL     1      24.373  -0.338  55.906  1.00  0.00     0.217 HD
ENDBRANCH   7  21
TORSDOF 1
ENDMDL
MODEL 2
REMARK VINA RESULT:      -7.7      2.958      5.663
REMARK  1 active torsions:
REMARK  status: ('A' for Active; 'I' for Inactive)
REMARK    1  A    between atoms: C6_7  and  O1_8 
ROOT
HETATM    1  N1  UNL     1      20.427   1.510  52.043  1.00  0.00    -0.191 NA
HETATM    2  C1  UNL     1      21.515   1.696  51.618  1.00  0.00     0.101 C 
HETATM    3  C2  UNL     1      22.825   1.929  51.082  1.00  0.00     0.070 C 
HETATM    4  C3  UNL     1      22.633   2.441  49.867  1.00  0.00     0.002 C 
HETATM    5  C4  UNL     1      23.579   2.906  48.784  1.00  0.00     0.058 C 
HETATM    6  C5  UNL     1      24.395   4.009  49.411  1.00  0.00     0.009 C 
HETATM    7  C6  UNL     1      25.380   3.767  50.259  1.00  0.00     0.046 C 
HETATM    8  C7  UNL     1      26.096   2.632  50.933  1.00  0.00     0.131 C 
HETATM    9  C8  UNL     1      25.249   1.868  51.858  1.00  0.00     0.082 C 
HETATM   10  C9  UNL     1      23.946   1.571  51.944  1.00  0.00     0.079 C 
HETATM   11  N2  UNL     1      23.264   0.844  52.922  1.00  0.00    -0.383 N 
HETATM   12  C10 UNL     1      24.239   0.389  53.884  1.00  0.00     0.147 C 
HETATM   13  C11 UNL     1      25.094  -0.666  53.363  1.00  0.00    -0.007 C 
HETATM   14  C12 UNL     1      26.056  -1.483  52.891  1.00  0.00    -0.003 C 
HETATM   15  C13 UNL     1      27.481  -1.133  52.661  1.00  0.00    -0.001 C 
HETATM   16  C14 UNL     1      28.006   0.061  52.858  1.00  0.00     0.021 C 
HETATM   17  C15 UNL     1      27.297   1.313  53.341  1.00  0.00     0.247 C 
HETATM   18 CL1  UNL     1      28.499   2.637  53.476  1.00  0.00    -0.090 Cl
HETATM   19  O2  UNL     1      26.258   1.580  52.575  1.00  0.00    -0.328 OA
HETATM   20  H8  UNL     1      22.275   0.622  53.030  1.00  0.00     0.160 HD
ENDROOT
BRANCH   7  21
HETATM   21  O1  UNL     1      25.882   5.039  50.609  1.00  0.00    -0.365 OA
HETATM   22  H5  UNL     1      26.226   5.588  49.837  1.00  0.00     0.217 HD
ENDBRANCH   7  21
TORSDOF 1
ENDMDL
MODEL 3
REMARK VINA RESULT:      -7.5      2.738      5.049
REMARK  1 active torsions:
REMARK  status: ('A' for Active; 'I' for Inactive)
REMARK    1  A    between atoms: C6_7  and  O1_8 
ROOT
HETATM    1  N1  UNL     1      25.119  -1.167  55.091  1.00  0.00    -0.191 NA
HETATM    2  C1  UNL     1      24.455  -0.587  54.303  1.00  0.00     0.101 C 
HETATM    3  C2  UNL     1      23.634   0.096  53.345  1.00  0.00     0.070 C 
HETATM    4  C3  UNL     1      22.562  -0.675  53.171  1.00  0.00     0.002 C 
HETATM    5  C4  UNL     1      21.325  -0.542  52.312  1.00  0.00     0.058 C 
HETATM    6  C5  UNL     1      20.663   0.737  52.762  1.00  0.00     0.009 C 
HETATM    7  C6  UNL     1      21.114   1.930  52.413  1.00  0.00     0.046 C 
HETATM    8  C7  UNL     1      22.206   2.585  51.617  1.00  0.00     0.131 C 
HETATM    9  C8  UNL     1      23.552   2.346  52.157  1.00  0.00     0.082 C 
HETATM   10  C9  UNL     1      24.149   1.368  52.849  1.00  0.00     0.079 C 
HETATM   11  N2  UNL     1      25.457   1.294  53.332  1.00  0.00    -0.383 N 
HETATM   12  C10 UNL     1      26.141   2.495  52.919  1.00  0.00     0.147 C 
HETATM   13  C11 UNL     1      26.421   2.521  51.492  1.00  0.00    -0.007 C 
HETATM   14  C12 UNL     1      26.523   2.719  50.164  1.00  0.00    -0.003 C 
HETATM   15  C13 UNL     1      25.769   3.710  49.355  1.00  0.00    -0.001 C 
HETATM   16  C14 UNL     1      24.850   4.529  49.830  1.00  0.00     0.021 C 
HETATM   17  C15 UNL     1      24.362   4.636  51.262  1.00  0.00     0.247 C 
HETATM   18 CL1  UNL     1      23.139   5.946  51.355  1.00  0.00    -0.090 Cl
HETATM   19  O2  UNL     1      23.953   3.462  51.701  1.00  0.00    -0.328 OA
HETATM   20  H8  UNL     1      25.934   0.578  53.880  1.00  0.00     0.160 HD
ENDROOT
BRANCH   7  21
HETATM   21  O1  UNL     1      20.233   2.848  53.024  1.00  0.00    -0.365 OA
HETATM   22  H5  UNL     1      19.862   2.554  53.914  1.00  0.00     0.217 HD
ENDBRANCH   7  21
TORSDOF 1
ENDMDL
MODEL 4
REMARK VINA RESULT:      -7.3      2.906      4.455
REMARK  1 active torsions:
REMARK  status: ('A' for Active; 'I' for Inactive)
REMARK    1  A    between atoms: C6_7  and  O1_8 
ROOT
HETATM    1  N1  UNL     1      20.771  -1.606  54.054  1.00  0.00    -0.191 NA
HETATM    2  C1  UNL     1      21.781  -1.009  53.906  1.00  0.00     0.101 C 
HETATM    3  C2  UNL     1      23.016  -0.298  53.746  1.00  0.00     0.070 C 
HETATM    4  C3  UNL     1      23.871  -0.859  54.601  1.00  0.00     0.002 C 
HETATM    5  C4  UNL     1      25.322  -0.594  54.931  1.00  0.00     0.058 C 
HETATM    6  C5  UNL     1      26.070  -0.794  53.636  1.00  0.00     0.009 C 
HETATM    7  C6  UNL     1      26.058   0.102  52.665  1.00  0.00     0.046 C 
HETATM    8  C7  UNL     1      25.491   1.449  52.317  1.00  0.00     0.131 C 
HETATM    9  C8  UNL     1      24.026   1.460  52.206  1.00  0.00     0.082 C 
HETATM   10  C9  UNL     1      23.017   0.777  52.760  1.00  0.00     0.079 C 
HETATM   11  N2  UNL     1      21.644   0.878  52.526  1.00  0.00    -0.383 N 
HETATM   12  C10 UNL     1      21.444   1.927  51.556  1.00  0.00     0.147 C 
HETATM   13  C11 UNL     1      21.685   3.253  52.102  1.00  0.00    -0.007 C 
HETATM   14  C12 UNL     1      22.095   4.483  52.466  1.00  0.00    -0.003 C 
HETATM   15  C13 UNL     1      23.291   5.205  51.961  1.00  0.00    -0.001 C 
HETATM   16  C14 UNL     1      24.155   4.716  51.092  1.00  0.00     0.021 C 
HETATM   17  C15 UNL     1      24.133   3.348  50.438  1.00  0.00     0.247 C 
HETATM   18 CL1  UNL     1      25.520   3.230  49.306  1.00  0.00    -0.090 Cl
HETATM   19  O2  UNL     1      24.079   2.399  51.352  1.00  0.00    -0.328 OA
HETATM   20  H8  UNL     1      20.854   0.360  52.911  1.00  0.00     0.160 HD
ENDROOT
BRANCH   7  21
HETATM   21  O1  UNL     1      26.865  -0.450  51.647  1.00  0.00    -0.365 OA
HETATM   22  H5  UNL     1      27.297  -1.332  51.876  1.00  0.00     0.217 HD
ENDBRANCH   7  21
TORSDOF 1
ENDMDL
MODEL 5
REMARK VINA RESULT:      -7.3      2.396      3.280
REMARK  1 active torsions:
REMARK  status: ('A' for Active; 'I' for Inactive)
REMARK    1  A    between atoms: C6_7  and  O1_8 
ROOT
HETATM    1  N1  UNL     1      27.024   2.168  54.129  1.00  0.00    -0.191 NA
HETATM    2  C1  UNL     1      25.981   1.751  53.760  1.00  0.00     0.101 C 
HETATM    3  C2  UNL     1      24.722   1.222  53.320  1.00  0.00     0.070 C 
HETATM    4  C3  UNL     1      24.692  -0.041  53.743  1.00  0.00     0.002 C 
HETATM    5  C4  UNL     1      23.666  -1.144  53.621  1.00  0.00     0.058 C 
HETATM    6  C5  UNL     1      22.423  -0.610  54.289  1.00  0.00     0.009 C 
HETATM    7  C6  UNL     1      21.633   0.278  53.712  1.00  0.00     0.046 C 
HETATM    8  C7  UNL     1      21.492   1.076  52.447  1.00  0.00     0.131 C 
HETATM    9  C8  UNL     1      22.569   2.053  52.243  1.00  0.00     0.082 C 
HETATM   10  C9  UNL     1      23.862   2.140  52.580  1.00  0.00     0.079 C 
HETATM   11  N2  UNL     1      24.775   3.169  52.339  1.00  0.00    -0.383 N 
HETATM   12  C10 UNL     1      24.088   4.192  51.588  1.00  0.00     0.147 C 
HETATM   13  C11 UNL     1      23.817   3.796  50.215  1.00  0.00    -0.007 C 
HETATM   14  C12 UNL     1      23.342   3.427  49.010  1.00  0.00    -0.003 C 
HETATM   15  C13 UNL     1      21.919   3.195  48.652  1.00  0.00    -0.001 C 
HETATM   16  C14 UNL     1      20.905   3.285  49.491  1.00  0.00     0.021 C 
HETATM   17  C15 UNL     1      20.958   3.627  50.968  1.00  0.00     0.247 C 
HETATM   18 CL1  UNL     1      19.283   3.657  51.610  1.00  0.00    -0.090 Cl
HETATM   19  O2  UNL     1      21.783   2.816  51.601  1.00  0.00    -0.328 OA
HETATM   20  H8  UNL     1      25.754   3.277  52.601  1.00  0.00     0.160 HD
ENDROOT
BRANCH   7  21
HETATM   21  O1  UNL     1      20.601   0.512  54.645  1.00  0.00    -0.365 OA
HETATM   22  H5  UNL     1      20.084   1.366  54.503  1.00  0.00     0.217 HD
ENDBRANCH   7  21
TORSDOF 1
ENDMDL
MODEL 6
REMARK VINA RESULT:      -7.2      2.028      4.666
REMARK  1 active torsions:
REMARK  status: ('A' for Active; 'I' for Inactive)
REMARK    1  A    between atoms: C6_7  and  O1_8 
ROOT
HETATM    1  N1  UNL     1      27.259   4.085  49.077  1.00  0.00    -0.191 NA
HETATM    2  C1  UNL     1      26.407   3.874  49.869  1.00  0.00     0.101 C 
HETATM    3  C2  UNL     1      25.366   3.644  50.828  1.00  0.00     0.070 C 
HETATM    4  C3  UNL     1      24.670   4.778  50.888  1.00  0.00     0.002 C 
HETATM    5  C4  UNL     1      23.460   5.204  51.686  1.00  0.00     0.058 C 
HETATM    6  C5  UNL     1      22.365   4.241  51.297  1.00  0.00     0.009 C 
HETATM    7  C6  UNL     1      22.314   3.003  51.756  1.00  0.00     0.046 C 
HETATM    8  C7  UNL     1      23.053   2.053  52.655  1.00  0.00     0.131 C 
HETATM    9  C8  UNL     1      24.397   1.710  52.172  1.00  0.00     0.082 C 
HETATM   10  C9  UNL     1      25.340   2.321  51.444  1.00  0.00     0.079 C 
HETATM   11  N2  UNL     1      26.585   1.847  51.027  1.00  0.00    -0.383 N 
HETATM   12  C10 UNL     1      26.745   0.517  51.563  1.00  0.00     0.147 C 
HETATM   13  C11 UNL     1      26.962   0.511  53.000  1.00  0.00    -0.007 C 
HETATM   14  C12 UNL     1      26.952   0.408  54.344  1.00  0.00    -0.003 C 
HETATM   15  C13 UNL     1      25.857  -0.145  55.181  1.00  0.00    -0.001 C 
HETATM   16  C14 UNL     1      24.704  -0.588  54.719  1.00  0.00     0.021 C 
HETATM   17  C15 UNL     1      24.243  -0.626  53.274  1.00  0.00     0.247 C 
HETATM   18 CL1  UNL     1      22.612  -1.373  53.212  1.00  0.00    -0.090 Cl
HETATM   19  O2  UNL     1      24.328   0.571  52.729  1.00  0.00    -0.328 OA
HETATM   20  H8  UNL     1      27.313   2.274  50.455  1.00  0.00     0.160 HD
ENDROOT
BRANCH   7  21
HETATM   21  O1  UNL     1      21.161   2.441  51.168  1.00  0.00    -0.365 OA
HETATM   22  H5  UNL     1      21.259   2.186  50.197  1.00  0.00     0.217 HD
ENDBRANCH   7  21
TORSDOF 1
ENDMDL
MODEL 7
REMARK VINA RESULT:      -6.9      1.682      2.231
REMARK  1 active torsions:
REMARK  status: ('A' for Active; 'I' for Inactive)
REMARK    1  A    between atoms: C6_7  and  O1_8 
ROOT
HETATM    1  N1  UNL     1      24.427   6.250  50.814  1.00  0.00    -0.191 NA
HETATM    2  C1  UNL     1      24.450   5.087  51.027  1.00  0.00     0.101 C 
HETATM    3  C2  UNL     1      24.500   3.675  51.275  1.00  0.00     0.070 C 
HETATM    4  C3  UNL     1      25.709   3.280  50.876  1.00  0.00     0.002 C 
HETATM    5  C4  UNL     1      26.402   1.937  50.863  1.00  0.00     0.058 C 
HETATM    6  C5  UNL     1      26.437   1.491  52.303  1.00  0.00     0.009 C 
HETATM    7  C6  UNL     1      25.374   1.010  52.923  1.00  0.00     0.046 C 
HETATM    8  C7  UNL     1      23.923   0.696  52.692  1.00  0.00     0.131 C 
HETATM    9  C8  UNL     1      23.101   1.882  52.418  1.00  0.00     0.082 C 
HETATM   10  C9  UNL     1      23.302   3.081  51.858  1.00  0.00     0.079 C 
HETATM   11  N2  UNL     1      22.412   4.144  51.692  1.00  0.00    -0.383 N 
HETATM   12  C10 UNL     1      21.135   3.727  52.217  1.00  0.00     0.147 C 
HETATM   13  C11 UNL     1      20.476   2.739  51.378  1.00  0.00    -0.007 C 
HETATM   14  C12 UNL     1      19.906   1.676  50.777  1.00  0.00    -0.003 C 
HETATM   15  C13 UNL     1      19.793   0.302  51.329  1.00  0.00    -0.001 C 
HETATM   16  C14 UNL     1      20.275  -0.085  52.494  1.00  0.00     0.021 C 
HETATM   17  C15 UNL     1      21.038   0.754  53.501  1.00  0.00     0.247 C 
HETATM   18 CL1  UNL     1      21.411  -0.265  54.930  1.00  0.00    -0.090 Cl
HETATM   19  O2  UNL     1      22.084   1.320  52.933  1.00  0.00    -0.328 OA
HETATM   20  H8  UNL     1      22.539   5.074  51.293  1.00  0.00     0.160 HD
ENDROOT
BRANCH   7  21
HETATM   21  O1  UNL     1      25.815   0.712  54.230  1.00  0.00    -0.365 OA
HETATM   22  H5  UNL     1      26.664   0.171  54.281  1.00  0.00     0.217 HD
ENDBRANCH   7  21
TORSDOF 1
ENDMDL
MODEL 8
REMARK VINA RESULT:      -6.9      3.112      4.981
REMARK  1 active torsions:
REMARK  status: ('A' for Active; 'I' for Inactive)
REMARK    1  A    between atoms: C6_7  and  O1_8 
ROOT
HETATM    1  N1  UNL     1      18.207  -0.482  51.603  1.00  0.00    -0.191 NA
HETATM    2  C1  UNL     1      19.229  -0.126  52.080  1.00  0.00     0.101 C 
HETATM    3  C2  UNL     1      20.463   0.294  52.679  1.00  0.00     0.070 C 
HETATM    4  C3  UNL     1      20.549  -0.368  53.831  1.00  0.00     0.002 C 
HETATM    5  C4  UNL     1      21.586  -0.392  54.931  1.00  0.00     0.058 C 
HETATM    6  C5  UNL     1      22.863  -0.845  54.267  1.00  0.00     0.009 C 
HETATM    7  C6  UNL     1      23.590  -0.044  53.508  1.00  0.00     0.046 C 
HETATM    8  C7  UNL     1      23.623   1.361  52.979  1.00  0.00     0.131 C 
HETATM    9  C8  UNL     1      22.514   1.673  52.068  1.00  0.00     0.082 C 
HETATM   10  C9  UNL     1      21.247   1.265  51.924  1.00  0.00     0.079 C 
HETATM   11  N2  UNL     1      20.299   1.636  50.968  1.00  0.00    -0.383 N 
HETATM   12  C10 UNL     1      20.908   2.625  50.113  1.00  0.00     0.147 C 
HETATM   13  C11 UNL     1      21.087   3.908  50.774  1.00  0.00    -0.007 C 
HETATM   14  C12 UNL     1      21.480   5.048  51.373  1.00  0.00    -0.003 C 
HETATM   15  C13 UNL     1      22.878   5.459  51.665  1.00  0.00    -0.001 C 
HETATM   16  C14 UNL     1      23.948   4.733  51.403  1.00  0.00     0.021 C 
HETATM   17  C15 UNL     1      23.995   3.354  50.773  1.00  0.00     0.247 C 
HETATM   18 CL1  UNL     1      25.712   2.859  50.605  1.00  0.00    -0.090 Cl
HETATM   19  O2  UNL     1      23.236   2.512  51.445  1.00  0.00    -0.328 OA
HETATM   20  H8  UNL     1      19.339   1.328  50.815  1.00  0.00     0.160 HD
ENDROOT
BRANCH   7  21
HETATM   21  O1  UNL     1      24.683  -0.832  53.086  1.00  0.00    -0.365 OA
HETATM   22  H5  UNL     1      24.718  -1.016  52.096  1.00  0.00     0.217 HD
ENDBRANCH   7  21
TORSDOF 1
ENDMDL
MODEL 9
REMARK VINA RESULT:      -6.9      3.386      5.934
REMARK  1 active torsions:
REMARK  status: ('A' for Active; 'I' for Inactive)
REMARK    1  A    between atoms: C6_7  and  O1_8 
ROOT
HETATM    1  N1  UNL     1      27.677   6.753  48.268  1.00  0.00    -0.191 NA
HETATM    2  C1  UNL     1      26.750   6.509  48.960  1.00  0.00     0.101 C 
HETATM    3  C2  UNL     1      25.622   6.238  49.804  1.00  0.00     0.070 C 
HETATM    4  C3  UNL     1      25.076   7.423  50.070  1.00  0.00     0.002 C 
HETATM    5  C4  UNL     1      23.876   7.845  50.886  1.00  0.00     0.058 C 
HETATM    6  C5  UNL     1      22.697   7.143  50.257  1.00  0.00     0.009 C 
HETATM    7  C6  UNL     1      22.455   5.858  50.443  1.00  0.00     0.046 C 
HETATM    8  C7  UNL     1      23.000   4.652  51.155  1.00  0.00     0.131 C 
HETATM    9  C8  UNL     1      24.320   4.229  50.670  1.00  0.00     0.082 C 
HETATM   10  C9  UNL     1      25.383   4.835  50.127  1.00  0.00     0.079 C 
HETATM   11  N2  UNL     1      26.584   4.285  49.675  1.00  0.00    -0.383 N 
HETATM   12  C10 UNL     1      26.533   2.865  49.926  1.00  0.00     0.147 C 
HETATM   13  C11 UNL     1      26.645   2.540  51.339  1.00  0.00    -0.007 C 
HETATM   14  C12 UNL     1      26.526   2.169  52.629  1.00  0.00    -0.003 C 
HETATM   15  C13 UNL     1      25.311   1.619  53.284  1.00  0.00    -0.001 C 
HETATM   16  C14 UNL     1      24.147   1.444  52.689  1.00  0.00     0.021 C 
HETATM   17  C15 UNL     1      23.789   1.763  51.249  1.00  0.00     0.247 C 
HETATM   18 CL1  UNL     1      22.085   1.281  50.962  1.00  0.00    -0.090 Cl
HETATM   19  O2  UNL     1      24.066   3.021  50.972  1.00  0.00    -0.328 OA
HETATM   20  H8  UNL     1      27.399   4.713  49.237  1.00  0.00     0.160 HD
ENDROOT
BRANCH   7  21
HETATM   21  O1  UNL     1      21.284   5.593  49.701  1.00  0.00    -0.365 OA
HETATM   22  H5  UNL     1      21.237   6.050  48.803  1.00  0.00     0.217 HD
ENDBRANCH   7  21
TORSDOF 1
ENDMDL
