MODEL 1
REMARK VINA RESULT:      -8.2      0.000      0.000
REMARK  8 active torsions:
REMARK  status: ('A' for Active; 'I' for Inactive)
REMARK    1  A    between atoms: N1_1  and  C1_2 
REMARK    2  A    between atoms: C1_2  and  C2_3 
REMARK    3  A    between atoms: C2_3  and  C3_6 
REMARK    4  A    between atoms: N3_8  and  C5_9 
REMARK    5  A    between atoms: C7_11  and  C8_12 
REMARK    6  A    between atoms: C8_12  and  N4_13 
REMARK    7  A    between atoms: C14_19  and  C15_20 
REMARK    8  A    between atoms: C19_24  and  O1_25 
ROOT
HETATM    1  C3  UNL     1      26.555   1.356  52.040  1.00  0.00     0.019 A 
HETATM    2  C4  UNL     1      26.495   2.320  51.059  1.00  0.00     0.105 A 
HETATM    3  N3  UNL     1      25.235   2.666  50.749  1.00  0.00    -0.360 N 
HETATM    4  C13 UNL     1      24.447   1.916  51.542  1.00  0.00     0.104 A 
HETATM    5  C14 UNL     1      25.241   1.093  52.356  1.00  0.00     0.003 A 
ENDROOT
BRANCH   3   6
HETATM    6  C5  UNL     1      24.947   3.683  49.730  1.00  0.00     0.089 C 
HETATM    7  C6  UNL     1      26.183   4.346  49.185  1.00  0.00     0.032 C 
HETATM    8  C7  UNL     1      25.651   5.673  49.592  1.00  0.00     0.018 C 
HETATM    9  C12 UNL     1      24.524   4.982  50.332  1.00  0.00     0.032 C 
BRANCH   8  10
HETATM   10  C8  UNL     1      25.075   6.512  48.503  1.00  0.00     0.277 C 
BRANCH  10  11
HETATM   11  N4  UNL     1      25.651   7.813  48.318  1.00  0.00     0.088 N 
HETATM   12  C9  UNL     1      26.194   8.091  46.993  1.00  0.00     0.274 C 
HETATM   13  C10 UNL     1      27.582   7.757  47.391  1.00  0.00     0.060 C 
HETATM   14  C11 UNL     1      27.042   7.858  48.791  1.00  0.00     0.274 C 
ENDBRANCH  10  11
ENDBRANCH   8  10
ENDBRANCH   3   6
BRANCH   1  15
HETATM   15  C2  UNL     1      27.663   0.677  52.692  1.00  0.00     0.083 C 
HETATM   16  N2  UNL     1      27.838  -0.592  52.649  1.00  0.00    -0.209 NA
HETATM   17 BR1  UNL     1      29.279  -1.448  53.491  1.00  0.00     0.074 Br
BRANCH  15  18
HETATM   18  C1  UNL     1      28.567   1.609  53.403  1.00  0.00     0.327 C 
BRANCH  18  19
HETATM   19  N1  UNL     1      27.817   2.578  54.143  1.00  0.00     0.084 N 
HETATM   20  H1  UNL     1      27.102   2.152  54.741  1.00  0.00     0.313 HD
HETATM   21  H2  UNL     1      27.492   3.322  53.502  1.00  0.00     0.313 HD
ENDBRANCH  18  19
ENDBRANCH  15  18
ENDBRANCH   1  15
BRANCH   5  22
HETATM   22  C15 UNL     1      24.534   0.245  53.305  1.00  0.00    -0.021 A 
HETATM   23  C16 UNL     1      23.185  -0.035  53.059  1.00  0.00     0.012 A 
HETATM   24  C17 UNL     1      22.383  -0.807  53.896  1.00  0.00     0.004 A 
HETATM   25  C18 UNL     1      23.000  -1.308  55.030  1.00  0.00     0.036 A 
HETATM   26  C19 UNL     1      24.320  -1.077  55.342  1.00  0.00     0.066 A 
HETATM   27  C20 UNL     1      25.045  -0.303  54.461  1.00  0.00     0.049 A 
BRANCH  26  28
HETATM   28  O1  UNL     1      24.955  -1.562  56.459  1.00  0.00    -0.361 OA
HETATM   29  H24 UNL     1      24.463  -2.050  57.188  1.00  0.00     0.217 HD
ENDBRANCH  26  28
ENDBRANCH   5  22
TORSDOF 8
ENDMDL
MODEL 2
REMARK VINA RESULT:      -8.2      2.219      3.650
REMARK  8 active torsions:
REMARK  status: ('A' for Active; 'I' for Inactive)
REMARK    1  A    between atoms: N1_1  and  C1_2 
REMARK    2  A    between atoms: C1_2  and  C2_3 
REMARK    3  A    between atoms: C2_3  and  C3_6 
REMARK    4  A    between atoms: N3_8  and  C5_9 
REMARK    5  A    between atoms: C7_11  and  C8_12 
REMARK    6  A    between atoms: C8_12  and  N4_13 
REMARK    7  A    between atoms: C14_19  and  C15_20 
REMARK    8  A    between atoms: C19_24  and  O1_25 
ROOT
HETATM    1  C3  UNL     1      24.790   0.913  52.372  1.00  0.00     0.019 A 
HETATM    2  C4  UNL     1      24.353   1.894  51.511  1.00  0.00     0.105 A 
HETATM    3  N3  UNL     1      25.351   2.438  50.795  1.00  0.00    -0.360 N 
HETATM    4  C13 UNL     1      26.469   1.802  51.191  1.00  0.00     0.104 A 
HETATM    5  C14 UNL     1      26.150   0.848  52.171  1.00  0.00     0.003 A 
ENDROOT
BRANCH   3   6
HETATM    6  C5  UNL     1      25.101   3.499  49.812  1.00  0.00     0.089 C 
HETATM    7  C6  UNL     1      26.361   4.129  49.282  1.00  0.00     0.032 C 
HETATM    8  C7  UNL     1      25.886   5.462  49.736  1.00  0.00     0.018 C 
HETATM    9  C12 UNL     1      24.735   4.793  50.460  1.00  0.00     0.032 C 
BRANCH   8  10
HETATM   10  C8  UNL     1      25.340   6.360  48.680  1.00  0.00     0.277 C 
BRANCH  10  11
HETATM   11  N4  UNL     1      25.949   7.653  48.555  1.00  0.00     0.088 N 
HETATM   12  C9  UNL     1      26.333   8.053  47.205  1.00  0.00     0.274 C 
HETATM   13  C10 UNL     1      27.743   7.632  47.383  1.00  0.00     0.060 C 
HETATM   14  C11 UNL     1      27.389   7.601  48.845  1.00  0.00     0.274 C 
ENDBRANCH  10  11
ENDBRANCH   8  10
ENDBRANCH   3   6
BRANCH   1  15
HETATM   15  C2  UNL     1      24.104   0.060  53.329  1.00  0.00     0.083 C 
HETATM   16  N2  UNL     1      24.638  -0.353  54.418  1.00  0.00    -0.209 NA
HETATM   17 BR1  UNL     1      23.733  -1.447  55.643  1.00  0.00     0.074 Br
BRANCH  15  18
HETATM   18  C1  UNL     1      22.723  -0.272  52.911  1.00  0.00     0.327 C 
BRANCH  18  19
HETATM   19  N1  UNL     1      21.787   0.654  53.472  1.00  0.00     0.084 N 
HETATM   20  H1  UNL     1      21.908   0.777  54.482  1.00  0.00     0.313 HD
HETATM   21  H2  UNL     1      20.833   0.412  53.152  1.00  0.00     0.313 HD
ENDBRANCH  18  19
ENDBRANCH  15  18
ENDBRANCH   1  15
BRANCH   5  22
HETATM   22  C15 UNL     1      27.254   0.043  52.674  1.00  0.00    -0.021 A 
HETATM   23  C16 UNL     1      28.326   0.704  53.284  1.00  0.00     0.012 A 
HETATM   24  C17 UNL     1      29.456   0.062  53.784  1.00  0.00     0.004 A 
HETATM   25  C18 UNL     1      29.478  -1.316  53.648  1.00  0.00     0.036 A 
HETATM   26  C19 UNL     1      28.465  -2.037  53.060  1.00  0.00     0.066 A 
HETATM   27  C20 UNL     1      27.381  -1.326  52.591  1.00  0.00     0.049 A 
BRANCH  26  28
HETATM   28  O1  UNL     1      28.462  -3.402  52.914  1.00  0.00    -0.361 OA
HETATM   29  H24 UNL     1      27.614  -3.943  52.919  1.00  0.00     0.217 HD
ENDBRANCH  26  28
ENDBRANCH   5  22
TORSDOF 8
ENDMDL
MODEL 3
REMARK VINA RESULT:      -7.7      4.294      8.811
REMARK  8 active torsions:
REMARK  status: ('A' for Active; 'I' for Inactive)
REMARK    1  A    between atoms: N1_1  and  C1_2 
REMARK    2  A    between atoms: C1_2  and  C2_3 
REMARK    3  A    between atoms: C2_3  and  C3_6 
REMARK    4  A    between atoms: N3_8  and  C5_9 
REMARK    5  A    between atoms: C7_11  and  C8_12 
REMARK    6  A    between atoms: C8_12  and  N4_13 
REMARK    7  A    between atoms: C14_19  and  C15_20 
REMARK    8  A    between atoms: C19_24  and  O1_25 
ROOT
HETATM    1  C3  UNL     1      24.055   4.992  49.985  1.00  0.00     0.019 A 
HETATM    2  C4  UNL     1      23.610   3.860  50.630  1.00  0.00     0.105 A 
HETATM    3  N3  UNL     1      24.581   2.950  50.810  1.00  0.00    -0.360 N 
HETATM    4  C13 UNL     1      25.690   3.493  50.272  1.00  0.00     0.104 A 
HETATM    5  C14 UNL     1      25.392   4.762  49.753  1.00  0.00     0.003 A 
ENDROOT
BRANCH   3   6
HETATM    6  C5  UNL     1      24.321   1.672  51.484  1.00  0.00     0.089 C 
HETATM    7  C6  UNL     1      22.858   1.327  51.560  1.00  0.00     0.032 C 
HETATM    8  C7  UNL     1      22.957   1.236  53.040  1.00  0.00     0.018 C 
HETATM    9  C12 UNL     1      24.362   1.799  52.970  1.00  0.00     0.032 C 
BRANCH   8  10
HETATM   10  C8  UNL     1      23.012  -0.139  53.613  1.00  0.00     0.277 C 
BRANCH  10  11
HETATM   11  N4  UNL     1      22.009  -0.475  54.581  1.00  0.00     0.088 N 
HETATM   12  C9  UNL     1      21.200  -1.652  54.284  1.00  0.00     0.274 C 
HETATM   13  C10 UNL     1      20.088  -0.857  53.710  1.00  0.00     0.060 C 
HETATM   14  C11 UNL     1      20.778   0.303  54.375  1.00  0.00     0.274 C 
ENDBRANCH  10  11
ENDBRANCH   8  10
ENDBRANCH   3   6
BRANCH   1  15
HETATM   15  C2  UNL     1      23.394   6.220  49.574  1.00  0.00     0.083 C 
HETATM   16  N2  UNL     1      23.241   6.565  48.350  1.00  0.00    -0.209 NA
HETATM   17 BR1  UNL     1      22.378   8.151  47.841  1.00  0.00     0.074 Br
BRANCH  15  18
HETATM   18  C1  UNL     1      22.912   7.021  50.722  1.00  0.00     0.327 C 
BRANCH  18  19
HETATM   19  N1  UNL     1      24.007   7.646  51.400  1.00  0.00     0.084 N 
HETATM   20  H1  UNL     1      23.990   7.485  52.412  1.00  0.00     0.313 HD
HETATM   21  H2  UNL     1      24.081   8.631  51.095  1.00  0.00     0.313 HD
ENDBRANCH  18  19
ENDBRANCH  15  18
ENDBRANCH   1  15
BRANCH   5  22
HETATM   22  C15 UNL     1      26.504   5.500  49.170  1.00  0.00    -0.021 A 
HETATM   23  C16 UNL     1      27.616   4.775  48.729  1.00  0.00     0.012 A 
HETATM   24  C17 UNL     1      28.757   5.353  48.179  1.00  0.00     0.004 A 
HETATM   25  C18 UNL     1      28.746   6.735  48.080  1.00  0.00     0.036 A 
HETATM   26  C19 UNL     1      27.692   7.517  48.491  1.00  0.00     0.066 A 
HETATM   27  C20 UNL     1      26.600   6.867  49.025  1.00  0.00     0.049 A 
BRANCH  26  28
HETATM   28  O1  UNL     1      27.656   8.887  48.403  1.00  0.00    -0.361 OA
HETATM   29  H24 UNL     1      27.485   9.473  49.203  1.00  0.00     0.217 HD
ENDBRANCH  26  28
ENDBRANCH   5  22
TORSDOF 8
ENDMDL
MODEL 4
REMARK VINA RESULT:      -7.6      4.051      7.598
REMARK  8 active torsions:
REMARK  status: ('A' for Active; 'I' for Inactive)
REMARK    1  A    between atoms: N1_1  and  C1_2 
REMARK    2  A    between atoms: C1_2  and  C2_3 
REMARK    3  A    between atoms: C2_3  and  C3_6 
REMARK    4  A    between atoms: N3_8  and  C5_9 
REMARK    5  A    between atoms: C7_11  and  C8_12 
REMARK    6  A    between atoms: C8_12  and  N4_13 
REMARK    7  A    between atoms: C14_19  and  C15_20 
REMARK    8  A    between atoms: C19_24  and  O1_25 
ROOT
HETATM    1  C3  UNL     1      23.566   2.481  52.119  1.00  0.00     0.019 A 
HETATM    2  C4  UNL     1      22.249   2.189  52.391  1.00  0.00     0.105 A 
HETATM    3  N3  UNL     1      22.108   1.100  53.165  1.00  0.00    -0.360 N 
HETATM    4  C13 UNL     1      23.359   0.665  53.409  1.00  0.00     0.104 A 
HETATM    5  C14 UNL     1      24.285   1.505  52.772  1.00  0.00     0.003 A 
ENDROOT
BRANCH   3   6
HETATM    6  C5  UNL     1      20.785   0.618  53.578  1.00  0.00     0.089 C 
HETATM    7  C6  UNL     1      20.562  -0.840  53.278  1.00  0.00     0.032 C 
HETATM    8  C7  UNL     1      19.362  -0.490  52.474  1.00  0.00     0.018 C 
HETATM    9  C12 UNL     1      19.721   0.977  52.595  1.00  0.00     0.032 C 
BRANCH   8  10
HETATM   10  C8  UNL     1      18.042  -0.723  53.126  1.00  0.00     0.277 C 
BRANCH  10  11
HETATM   11  N4  UNL     1      16.956  -1.102  52.269  1.00  0.00     0.088 N 
HETATM   12  C9  UNL     1      16.900  -0.433  50.973  1.00  0.00     0.274 C 
HETATM   13  C10 UNL     1      15.916   0.576  51.433  1.00  0.00     0.060 C 
HETATM   14  C11 UNL     1      15.729  -0.361  52.595  1.00  0.00     0.274 C 
ENDBRANCH  10  11
ENDBRANCH   8  10
ENDBRANCH   3   6
BRANCH   1  15
HETATM   15  C2  UNL     1      24.207   3.531  51.344  1.00  0.00     0.083 C 
HETATM   16  N2  UNL     1      25.130   3.312  50.483  1.00  0.00    -0.209 NA
HETATM   17 BR1  UNL     1      25.938   4.681  49.488  1.00  0.00     0.074 Br
BRANCH  15  18
HETATM   18  C1  UNL     1      23.672   4.876  51.654  1.00  0.00     0.327 C 
BRANCH  18  19
HETATM   19  N1  UNL     1      23.986   5.250  53.000  1.00  0.00     0.084 N 
HETATM   20  H1  UNL     1      24.846   5.803  53.067  1.00  0.00     0.313 HD
HETATM   21  H2  UNL     1      23.931   4.416  53.608  1.00  0.00     0.313 HD
ENDBRANCH  18  19
ENDBRANCH  15  18
ENDBRANCH   1  15
BRANCH   5  22
HETATM   22  C15 UNL     1      25.692   1.189  52.976  1.00  0.00    -0.021 A 
HETATM   23  C16 UNL     1      26.140  -0.085  52.609  1.00  0.00     0.012 A 
HETATM   24  C17 UNL     1      27.450  -0.529  52.773  1.00  0.00     0.004 A 
HETATM   25  C18 UNL     1      28.330   0.380  53.338  1.00  0.00     0.036 A 
HETATM   26  C19 UNL     1      27.965   1.649  53.725  1.00  0.00     0.066 A 
HETATM   27  C20 UNL     1      26.650   2.011  53.528  1.00  0.00     0.049 A 
BRANCH  26  28
HETATM   28  O1  UNL     1      28.817   2.568  54.286  1.00  0.00    -0.361 OA
HETATM   29  H24 UNL     1      28.485   3.363  54.806  1.00  0.00     0.217 HD
ENDBRANCH  26  28
ENDBRANCH   5  22
TORSDOF 8
ENDMDL
MODEL 5
REMARK VINA RESULT:      -7.5      1.820      2.314
REMARK  8 active torsions:
REMARK  status: ('A' for Active; 'I' for Inactive)
REMARK    1  A    between atoms: N1_1  and  C1_2 
REMARK    2  A    between atoms: C1_2  and  C2_3 
REMARK    3  A    between atoms: C2_3  and  C3_6 
REMARK    4  A    between atoms: N3_8  and  C5_9 
REMARK    5  A    between atoms: C7_11  and  C8_12 
REMARK    6  A    between atoms: C8_12  and  N4_13 
REMARK    7  A    between atoms: C14_19  and  C15_20 
REMARK    8  A    between atoms: C19_24  and  O1_25 
ROOT
HETATM    1  C3  UNL     1      25.668   1.232  52.222  1.00  0.00     0.019 A 
HETATM    2  C4  UNL     1      25.863   2.405  51.529  1.00  0.00     0.105 A 
HETATM    3  N3  UNL     1      24.724   3.090  51.338  1.00  0.00    -0.360 N 
HETATM    4  C13 UNL     1      23.757   2.354  51.917  1.00  0.00     0.104 A 
HETATM    5  C14 UNL     1      24.315   1.193  52.475  1.00  0.00     0.003 A 
ENDROOT
BRANCH   3   6
HETATM    6  C5  UNL     1      24.711   4.374  50.626  1.00  0.00     0.089 C 
HETATM    7  C6  UNL     1      23.342   4.994  50.543  1.00  0.00     0.032 C 
HETATM    8  C7  UNL     1      23.444   5.020  49.060  1.00  0.00     0.018 C 
HETATM    9  C12 UNL     1      24.714   4.198  49.144  1.00  0.00     0.032 C 
BRANCH   8  10
HETATM   10  C8  UNL     1      23.760   6.341  48.446  1.00  0.00     0.277 C 
BRANCH  10  11
HETATM   11  N4  UNL     1      22.695   6.997  47.744  1.00  0.00     0.088 N 
HETATM   12  C9  UNL     1      21.790   6.130  46.998  1.00  0.00     0.274 C 
HETATM   13  C10 UNL     1      22.496   6.345  45.712  1.00  0.00     0.060 C 
HETATM   14  C11 UNL     1      23.140   7.497  46.435  1.00  0.00     0.274 C 
ENDBRANCH  10  11
ENDBRANCH   8  10
ENDBRANCH   3   6
BRANCH   1  15
HETATM   15  C2  UNL     1      26.571   0.179  52.657  1.00  0.00     0.083 C 
HETATM   16  N2  UNL     1      26.520  -1.024  52.215  1.00  0.00    -0.209 NA
HETATM   17 BR1  UNL     1      27.700  -2.366  52.785  1.00  0.00     0.074 Br
BRANCH  15  18
HETATM   18  C1  UNL     1      27.556   0.647  53.658  1.00  0.00     0.327 C 
BRANCH  18  19
HETATM   19  N1  UNL     1      26.954   0.749  54.953  1.00  0.00     0.084 N 
HETATM   20  H1  UNL     1      27.349   1.510  55.514  1.00  0.00     0.313 HD
HETATM   21  H2  UNL     1      26.935  -0.185  55.396  1.00  0.00     0.313 HD
ENDBRANCH  18  19
ENDBRANCH  15  18
ENDBRANCH   1  15
BRANCH   5  22
HETATM   22  C15 UNL     1      23.398   0.307  53.179  1.00  0.00    -0.021 A 
HETATM   23  C16 UNL     1      22.077   0.232  52.723  1.00  0.00     0.012 A 
HETATM   24  C17 UNL     1      21.091  -0.551  53.316  1.00  0.00     0.004 A 
HETATM   25  C18 UNL     1      21.485  -1.285  54.423  1.00  0.00     0.036 A 
HETATM   26  C19 UNL     1      22.764  -1.263  54.931  1.00  0.00     0.066 A 
HETATM   27  C20 UNL     1      23.681  -0.462  54.286  1.00  0.00     0.049 A 
BRANCH  26  28
HETATM   28  O1  UNL     1      23.181  -1.980  56.025  1.00  0.00    -0.361 OA
HETATM   29  H24 UNL     1      23.839  -2.738  55.954  1.00  0.00     0.217 HD
ENDBRANCH  26  28
ENDBRANCH   5  22
TORSDOF 8
ENDMDL
MODEL 6
REMARK VINA RESULT:      -7.3      3.045      3.922
REMARK  8 active torsions:
REMARK  status: ('A' for Active; 'I' for Inactive)
REMARK    1  A    between atoms: N1_1  and  C1_2 
REMARK    2  A    between atoms: C1_2  and  C2_3 
REMARK    3  A    between atoms: C2_3  and  C3_6 
REMARK    4  A    between atoms: N3_8  and  C5_9 
REMARK    5  A    between atoms: C7_11  and  C8_12 
REMARK    6  A    between atoms: C8_12  and  N4_13 
REMARK    7  A    between atoms: C14_19  and  C15_20 
REMARK    8  A    between atoms: C19_24  and  O1_25 
ROOT
HETATM    1  C3  UNL     1      24.872   3.043  51.052  1.00  0.00     0.019 A 
HETATM    2  C4  UNL     1      24.978   3.971  50.041  1.00  0.00     0.105 A 
HETATM    3  N3  UNL     1      26.245   4.144  49.627  1.00  0.00    -0.360 N 
HETATM    4  C13 UNL     1      26.989   3.313  50.380  1.00  0.00     0.104 A 
HETATM    5  C14 UNL     1      26.162   2.616  51.274  1.00  0.00     0.003 A 
ENDROOT
BRANCH   3   6
HETATM    6  C5  UNL     1      26.578   5.086  48.551  1.00  0.00     0.089 C 
HETATM    7  C6  UNL     1      28.053   5.365  48.440  1.00  0.00     0.032 C 
HETATM    8  C7  UNL     1      27.791   6.817  48.619  1.00  0.00     0.018 C 
HETATM    9  C12 UNL     1      26.346   6.505  48.951  1.00  0.00     0.032 C 
BRANCH   8  10
HETATM   10  C8  UNL     1      27.838   7.651  47.384  1.00  0.00     0.277 C 
BRANCH  10  11
HETATM   11  N4  UNL     1      28.766   8.744  47.379  1.00  0.00     0.088 N 
HETATM   12  C9  UNL     1      29.216   9.196  46.067  1.00  0.00     0.274 C 
HETATM   13  C10 UNL     1      30.467   8.402  46.119  1.00  0.00     0.060 C 
HETATM   14  C11 UNL     1      30.146   8.280  47.584  1.00  0.00     0.274 C 
ENDBRANCH  10  11
ENDBRANCH   8  10
ENDBRANCH   3   6
BRANCH   1  15
HETATM   15  C2  UNL     1      23.742   2.530  51.808  1.00  0.00     0.083 C 
HETATM   16  N2  UNL     1      23.344   1.313  51.748  1.00  0.00    -0.209 NA
HETATM   17 BR1  UNL     1      21.887   0.669  52.738  1.00  0.00     0.074 Br
BRANCH  15  18
HETATM   18  C1  UNL     1      23.106   3.563  52.658  1.00  0.00     0.327 C 
BRANCH  18  19
HETATM   19  N1  UNL     1      24.092   4.281  53.406  1.00  0.00     0.084 N 
HETATM   20  H1  UNL     1      24.211   5.246  53.081  1.00  0.00     0.313 HD
HETATM   21  H2  UNL     1      24.953   3.712  53.474  1.00  0.00     0.313 HD
ENDBRANCH  18  19
ENDBRANCH  15  18
ENDBRANCH   1  15
BRANCH   5  22
HETATM   22  C15 UNL     1      26.817   1.641  52.135  1.00  0.00    -0.021 A 
HETATM   23  C16 UNL     1      26.626   0.283  51.856  1.00  0.00     0.012 A 
HETATM   24  C17 UNL     1      27.169  -0.753  52.612  1.00  0.00     0.004 A 
HETATM   25  C18 UNL     1      27.939  -0.370  53.697  1.00  0.00     0.036 A 
HETATM   26  C19 UNL     1      28.172   0.943  54.037  1.00  0.00     0.066 A 
HETATM   27  C20 UNL     1      27.599   1.908  53.238  1.00  0.00     0.049 A 
BRANCH  26  28
HETATM   28  O1  UNL     1      28.932   1.349  55.107  1.00  0.00    -0.361 OA
HETATM   29  H24 UNL     1      29.021   0.798  55.943  1.00  0.00     0.217 HD
ENDBRANCH  26  28
ENDBRANCH   5  22
TORSDOF 8
ENDMDL
MODEL 7
REMARK VINA RESULT:      -7.2      4.080      8.489
REMARK  8 active torsions:
REMARK  status: ('A' for Active; 'I' for Inactive)
REMARK    1  A    between atoms: N1_1  and  C1_2 
REMARK    2  A    between atoms: C1_2  and  C2_3 
REMARK    3  A    between atoms: C2_3  and  C3_6 
REMARK    4  A    between atoms: N3_8  and  C5_9 
REMARK    5  A    between atoms: C7_11  and  C8_12 
REMARK    6  A    between atoms: C8_12  and  N4_13 
REMARK    7  A    between atoms: C14_19  and  C15_20 
REMARK    8  A    between atoms: C19_24  and  O1_25 
ROOT
HETATM    1  C3  UNL     1      23.910   4.451  49.668  1.00  0.00     0.019 A 
HETATM    2  C4  UNL     1      23.916   3.225  50.293  1.00  0.00     0.105 A 
HETATM    3  N3  UNL     1      25.103   2.933  50.850  1.00  0.00    -0.360 N 
HETATM    4  C13 UNL     1      25.896   3.988  50.588  1.00  0.00     0.104 A 
HETATM    5  C14 UNL     1      25.180   4.948  49.855  1.00  0.00     0.003 A 
ENDROOT
BRANCH   3   6
HETATM    6  C5  UNL     1      25.322   1.673  51.572  1.00  0.00     0.089 C 
HETATM    7  C6  UNL     1      25.333   1.839  53.068  1.00  0.00     0.032 C 
HETATM    8  C7  UNL     1      26.693   1.244  53.124  1.00  0.00     0.018 C 
HETATM    9  C12 UNL     1      26.764   1.289  51.611  1.00  0.00     0.032 C 
BRANCH   8  10
HETATM   10  C8  UNL     1      26.774  -0.174  53.573  1.00  0.00     0.277 C 
BRANCH  10  11
HETATM   11  N4  UNL     1      27.902  -0.531  54.385  1.00  0.00     0.088 N 
HETATM   12  C9  UNL     1      28.904   0.510  54.582  1.00  0.00     0.274 C 
HETATM   13  C10 UNL     1      29.780   0.000  53.500  1.00  0.00     0.060 C 
HETATM   14  C11 UNL     1      28.928  -1.235  53.602  1.00  0.00     0.274 C 
ENDBRANCH  10  11
ENDBRANCH   8  10
ENDBRANCH   3   6
BRANCH   1  15
HETATM   15  C2  UNL     1      22.887   5.185  48.940  1.00  0.00     0.083 C 
HETATM   16  N2  UNL     1      22.641   5.007  47.695  1.00  0.00    -0.209 NA
HETATM   17 BR1  UNL     1      21.311   5.960  46.776  1.00  0.00     0.074 Br
BRANCH  15  18
HETATM   18  C1  UNL     1      22.160   6.152  49.794  1.00  0.00     0.327 C 
BRANCH  18  19
HETATM   19  N1  UNL     1      21.121   5.498  50.529  1.00  0.00     0.084 N 
HETATM   20  H1  UNL     1      20.643   4.775  49.981  1.00  0.00     0.313 HD
HETATM   21  H2  UNL     1      20.517   6.209  50.974  1.00  0.00     0.313 HD
ENDBRANCH  18  19
ENDBRANCH  15  18
ENDBRANCH   1  15
BRANCH   5  22
HETATM   22  C15 UNL     1      25.892   6.176  49.527  1.00  0.00    -0.021 A 
HETATM   23  C16 UNL     1      26.773   6.155  48.441  1.00  0.00     0.012 A 
HETATM   24  C17 UNL     1      27.537   7.246  48.034  1.00  0.00     0.004 A 
HETATM   25  C18 UNL     1      27.383   8.402  48.780  1.00  0.00     0.036 A 
HETATM   26  C19 UNL     1      26.538   8.502  49.861  1.00  0.00     0.066 A 
HETATM   27  C20 UNL     1      25.817   7.376  50.199  1.00  0.00     0.049 A 
BRANCH  26  28
HETATM   28  O1  UNL     1      26.367   9.636  50.617  1.00  0.00    -0.361 OA
HETATM   29  H24 UNL     1      25.616   9.734  51.279  1.00  0.00     0.217 HD
ENDBRANCH  26  28
ENDBRANCH   5  22
TORSDOF 8
ENDMDL
MODEL 8
REMARK VINA RESULT:      -7.2      4.504      9.166
REMARK  8 active torsions:
REMARK  status: ('A' for Active; 'I' for Inactive)
REMARK    1  A    between atoms: N1_1  and  C1_2 
REMARK    2  A    between atoms: C1_2  and  C2_3 
REMARK    3  A    between atoms: C2_3  and  C3_6 
REMARK    4  A    between atoms: N3_8  and  C5_9 
REMARK    5  A    between atoms: C7_11  and  C8_12 
REMARK    6  A    between atoms: C8_12  and  N4_13 
REMARK    7  A    between atoms: C14_19  and  C15_20 
REMARK    8  A    between atoms: C19_24  and  O1_25 
ROOT
HETATM    1  C3  UNL     1      27.430   7.156  48.607  1.00  0.00     0.019 A 
HETATM    2  C4  UNL     1      26.367   6.367  48.985  1.00  0.00     0.105 A 
HETATM    3  N3  UNL     1      26.662   5.056  48.967  1.00  0.00    -0.360 N 
HETATM    4  C13 UNL     1      27.946   4.980  48.570  1.00  0.00     0.104 A 
HETATM    5  C14 UNL     1      28.449   6.270  48.341  1.00  0.00     0.003 A 
ENDROOT
BRANCH   3   6
HETATM    6  C5  UNL     1      25.670   4.041  49.341  1.00  0.00     0.089 C 
HETATM    7  C6  UNL     1      24.775   4.472  50.472  1.00  0.00     0.032 C 
HETATM    8  C7  UNL     1      25.194   3.281  51.256  1.00  0.00     0.018 C 
HETATM    9  C12 UNL     1      26.251   2.979  50.214  1.00  0.00     0.032 C 
BRANCH   8  10
HETATM   10  C8  UNL     1      24.223   2.151  51.305  1.00  0.00     0.277 C 
BRANCH  10  11
HETATM   11  N4  UNL     1      23.717   1.791  52.599  1.00  0.00     0.088 N 
HETATM   12  C9  UNL     1      23.800   0.377  52.947  1.00  0.00     0.274 C 
HETATM   13  C10 UNL     1      22.398   0.102  52.549  1.00  0.00     0.060 C 
HETATM   14  C11 UNL     1      22.259   1.600  52.573  1.00  0.00     0.274 C 
ENDBRANCH  10  11
ENDBRANCH   8  10
ENDBRANCH   3   6
BRANCH   1  15
HETATM   15  C2  UNL     1      27.594   8.594  48.472  1.00  0.00     0.083 C 
HETATM   16  N2  UNL     1      27.090   9.276  47.510  1.00  0.00    -0.209 NA
HETATM   17 BR1  UNL     1      27.308  11.133  47.358  1.00  0.00     0.074 Br
BRANCH  15  18
HETATM   18  C1  UNL     1      28.399   9.184  49.565  1.00  0.00     0.327 C 
BRANCH  18  19
HETATM   19  N1  UNL     1      27.632   9.268  50.771  1.00  0.00     0.084 N 
HETATM   20  H1  UNL     1      27.534   8.363  51.242  1.00  0.00     0.313 HD
HETATM   21  H2  UNL     1      26.755   9.783  50.584  1.00  0.00     0.313 HD
ENDBRANCH  18  19
ENDBRANCH  15  18
ENDBRANCH   1  15
BRANCH   5  22
HETATM   22  C15 UNL     1      29.848   6.359  47.943  1.00  0.00    -0.021 A 
HETATM   23  C16 UNL     1      30.159   7.089  46.791  1.00  0.00     0.012 A 
HETATM   24  C17 UNL     1      31.447   7.232  46.282  1.00  0.00     0.004 A 
HETATM   25  C18 UNL     1      32.452   6.597  46.993  1.00  0.00     0.036 A 
HETATM   26  C19 UNL     1      32.226   5.861  48.134  1.00  0.00     0.066 A 
HETATM   27  C20 UNL     1      30.922   5.768  48.571  1.00  0.00     0.049 A 
BRANCH  26  28
HETATM   28  O1  UNL     1      33.203   5.222  48.857  1.00  0.00    -0.361 OA
HETATM   29  H24 UNL     1      33.033   4.840  49.771  1.00  0.00     0.217 HD
ENDBRANCH  26  28
ENDBRANCH   5  22
TORSDOF 8
ENDMDL
MODEL 9
REMARK VINA RESULT:      -7.1      4.662      9.141
REMARK  8 active torsions:
REMARK  status: ('A' for Active; 'I' for Inactive)
REMARK    1  A    between atoms: N1_1  and  C1_2 
REMARK    2  A    between atoms: C1_2  and  C2_3 
REMARK    3  A    between atoms: C2_3  and  C3_6 
REMARK    4  A    between atoms: N3_8  and  C5_9 
REMARK    5  A    between atoms: C7_11  and  C8_12 
REMARK    6  A    between atoms: C8_12  and  N4_13 
REMARK    7  A    between atoms: C14_19  and  C15_20 
REMARK    8  A    between atoms: C19_24  and  O1_25 
ROOT
HETATM    1  C3  UNL     1      29.449   5.837  48.327  1.00  0.00     0.019 A 
HETATM    2  C4  UNL     1      28.362   5.023  48.554  1.00  0.00     0.105 A 
HETATM    3  N3  UNL     1      27.208   5.706  48.626  1.00  0.00    -0.360 N 
HETATM    4  C13 UNL     1      27.540   6.998  48.443  1.00  0.00     0.104 A 
HETATM    5  C14 UNL     1      28.926   7.108  48.254  1.00  0.00     0.003 A 
ENDROOT
BRANCH   3   6
HETATM    6  C5  UNL     1      25.927   5.027  48.857  1.00  0.00     0.089 C 
HETATM    7  C6  UNL     1      25.219   5.498  50.099  1.00  0.00     0.032 C 
HETATM    8  C7  UNL     1      25.202   4.105  50.617  1.00  0.00     0.018 C 
HETATM    9  C12 UNL     1      26.105   3.681  49.477  1.00  0.00     0.032 C 
BRANCH   8  10
HETATM   10  C8  UNL     1      23.905   3.378  50.506  1.00  0.00     0.277 C 
BRANCH  10  11
HETATM   11  N4  UNL     1      23.347   2.866  51.725  1.00  0.00     0.088 N 
HETATM   12  C9  UNL     1      24.304   2.493  52.761  1.00  0.00     0.274 C 
HETATM   13  C10 UNL     1      24.286   1.058  52.390  1.00  0.00     0.060 C 
HETATM   14  C11 UNL     1      23.049   1.430  51.619  1.00  0.00     0.274 C 
ENDBRANCH  10  11
ENDBRANCH   8  10
ENDBRANCH   3   6
BRANCH   1  15
HETATM   15  C2  UNL     1      30.870   5.570  48.177  1.00  0.00     0.083 C 
HETATM   16  N2  UNL     1      31.356   4.822  47.257  1.00  0.00    -0.209 NA
HETATM   17 BR1  UNL     1      33.194   4.496  47.077  1.00  0.00     0.074 Br
BRANCH  15  18
HETATM   18  C1  UNL     1      31.692   6.259  49.197  1.00  0.00     0.327 C 
BRANCH  18  19
HETATM   19  N1  UNL     1      31.528   5.646  50.480  1.00  0.00     0.084 N 
HETATM   20  H1  UNL     1      30.606   5.213  50.597  1.00  0.00     0.313 HD
HETATM   21  H2  UNL     1      31.818   6.312  51.217  1.00  0.00     0.313 HD
ENDBRANCH  18  19
ENDBRANCH  15  18
ENDBRANCH   1  15
BRANCH   5  22
HETATM   22  C15 UNL     1      29.440   8.447  47.999  1.00  0.00    -0.021 A 
HETATM   23  C16 UNL     1      29.657   8.827  46.671  1.00  0.00     0.012 A 
HETATM   24  C17 UNL     1      30.170  10.064  46.286  1.00  0.00     0.004 A 
HETATM   25  C18 UNL     1      30.468  10.940  47.316  1.00  0.00     0.036 A 
HETATM   26  C19 UNL     1      30.283  10.640  48.646  1.00  0.00     0.066 A 
HETATM   27  C20 UNL     1      29.772   9.395  48.942  1.00  0.00     0.049 A 
BRANCH  26  28
HETATM   28  O1  UNL     1      30.570  11.491  49.685  1.00  0.00    -0.361 OA
HETATM   29  H24 UNL     1      31.393  11.387  50.255  1.00  0.00     0.217 HD
ENDBRANCH  26  28
ENDBRANCH   5  22
TORSDOF 8
ENDMDL
