MODEL 1
REMARK VINA RESULT:      -7.9      0.000      0.000
REMARK  5 active torsions:
REMARK  status: ('A' for Active; 'I' for Inactive)
REMARK    1  A    between atoms: O1_2  and  C2_3 
REMARK    2  A    between atoms: C2_3  and  C3_4 
REMARK    3  A    between atoms: C3_4  and  O2_5 
REMARK    4  A    between atoms: C10_15  and  N3_16 
REMARK    5  A    between atoms: N3_16  and  C11_17 
ROOT
HETATM    1  C3  UNL     1      27.268   0.889  53.542  1.00  0.00     0.144 A 
HETATM    2  C5  UNL     1      26.203   1.350  53.097  1.00  0.00    -0.001 A 
HETATM    3  C6  UNL     1      25.559   0.409  53.733  1.00  0.00     0.060 A 
HETATM    4  C7  UNL     1      25.019  -0.343  54.240  1.00  0.00     0.022 C 
HETATM    5  O3  UNL     1      24.267  -1.344  54.908  1.00  0.00    -0.246 OA
HETATM    6  C8  UNL     1      22.798  -0.906  54.428  1.00  0.00     0.210 A 
HETATM    7  N1  UNL     1      21.728  -1.606  54.708  1.00  0.00    -0.215 NA
HETATM    8  C9  UNL     1      20.516  -1.215  54.286  1.00  0.00     0.238 A 
HETATM    9  N2  UNL     1      20.434  -0.104  53.579  1.00  0.00    -0.222 NA
HETATM   10  C10 UNL     1      21.368   0.723  53.201  1.00  0.00     0.160 A 
HETATM   11  C17 UNL     1      22.615   0.326  53.635  1.00  0.00     0.129 A 
HETATM   12  N4  UNL     1      23.642   1.334  53.193  1.00  0.00    -0.379 N 
HETATM   13  C18 UNL     1      24.880   1.784  52.645  1.00  0.00     0.159 C 
HETATM   14  H15 UNL     1      23.042   2.193  53.462  1.00  0.00     0.160 HD
ENDROOT
BRANCH  10  15
HETATM   15  N3  UNL     1      21.287   1.882  52.424  1.00  0.00    -0.339 N 
HETATM   16  H10 UNL     1      21.108   2.850  52.737  1.00  0.00     0.167 HD
BRANCH  15  17
HETATM   17  C11 UNL     1      21.491   1.906  51.026  1.00  0.00     0.035 A 
HETATM   18  C12 UNL     1      21.245   0.830  50.211  1.00  0.00     0.029 A 
HETATM   19  C13 UNL     1      21.451   0.820  48.854  1.00  0.00     0.004 A 
HETATM   20  C14 UNL     1      21.937   1.933  48.202  1.00  0.00     0.019 A 
HETATM   21  C15 UNL     1      22.200   3.043  48.972  1.00  0.00     0.013 A 
HETATM   22 BR1  UNL     1      22.877   4.627  48.151  1.00  0.00    -0.051 Br
HETATM   23  C16 UNL     1      21.971   2.985  50.325  1.00  0.00     0.048 A 
ENDBRANCH  15  17
ENDBRANCH  10  15
BRANCH   1  24
HETATM   24  C2  UNL     1      27.945  -0.110  54.354  1.00  0.00     0.215 C 
BRANCH  24  25
HETATM   25  O1  UNL     1      28.423  -1.169  53.564  1.00  0.00    -0.392 OA
HETATM   26  C1  UNL     1      29.810  -1.149  53.681  1.00  0.00     0.201 C 
ENDBRANCH  24  25
ENDBRANCH   1  24
BRANCH   1  27
HETATM   27  O2  UNL     1      28.120   1.810  52.937  1.00  0.00    -0.372 OA
HETATM   28  C4  UNL     1      29.055   2.511  53.736  1.00  0.00     0.203 C 
ENDBRANCH   1  27
TORSDOF 5
ENDMDL
MODEL 2
REMARK VINA RESULT:      -7.8      3.206      4.724
REMARK  5 active torsions:
REMARK  status: ('A' for Active; 'I' for Inactive)
REMARK    1  A    between atoms: O1_2  and  C2_3 
REMARK    2  A    between atoms: C2_3  and  C3_4 
REMARK    3  A    between atoms: C3_4  and  O2_5 
REMARK    4  A    between atoms: C10_15  and  N3_16 
REMARK    5  A    between atoms: N3_16  and  C11_17 
ROOT
HETATM    1  C3  UNL     1      26.475  -0.079  53.132  1.00  0.00     0.144 A 
HETATM    2  C5  UNL     1      25.286  -0.373  53.348  1.00  0.00    -0.001 A 
HETATM    3  C6  UNL     1      24.942   0.806  52.903  1.00  0.00     0.060 A 
HETATM    4  C7  UNL     1      24.641   1.753  52.547  1.00  0.00     0.022 C 
HETATM    5  O3  UNL     1      24.208   3.019  52.076  1.00  0.00    -0.246 OA
HETATM    6  C8  UNL     1      22.627   2.832  52.293  1.00  0.00     0.210 A 
HETATM    7  N1  UNL     1      21.770   3.801  52.092  1.00  0.00    -0.215 NA
HETATM    8  C9  UNL     1      20.456   3.612  52.290  1.00  0.00     0.238 A 
HETATM    9  N2  UNL     1      20.053   2.422  52.691  1.00  0.00    -0.222 NA
HETATM   10  C10 UNL     1      20.740   1.343  52.943  1.00  0.00     0.160 A 
HETATM   11  C17 UNL     1      22.090   1.531  52.739  1.00  0.00     0.129 A 
HETATM   12  N4  UNL     1      22.821   0.244  53.017  1.00  0.00    -0.379 N 
HETATM   13  C18 UNL     1      23.852  -0.583  53.552  1.00  0.00     0.159 C 
HETATM   14  H15 UNL     1      22.109  -0.376  52.490  1.00  0.00     0.160 HD
ENDROOT
BRANCH  10  15
HETATM   15  N3  UNL     1      20.318   0.092  53.402  1.00  0.00    -0.339 N 
HETATM   16  H10 UNL     1      20.785  -0.530  54.083  1.00  0.00     0.167 HD
BRANCH  15  17
HETATM   17  C11 UNL     1      19.106  -0.520  53.013  1.00  0.00     0.035 A 
HETATM   18  C12 UNL     1      18.212   0.062  52.150  1.00  0.00     0.029 A 
HETATM   19  C13 UNL     1      17.019  -0.501  51.770  1.00  0.00     0.004 A 
HETATM   20  C14 UNL     1      16.632  -1.734  52.250  1.00  0.00     0.019 A 
HETATM   21  C15 UNL     1      17.494  -2.365  53.118  1.00  0.00     0.013 A 
HETATM   22 BR1  UNL     1      17.035  -4.074  53.832  1.00  0.00    -0.051 Br
HETATM   23  C16 UNL     1      18.670  -1.745  53.457  1.00  0.00     0.048 A 
ENDBRANCH  15  17
ENDBRANCH  10  15
BRANCH   1  24
HETATM   24  C2  UNL     1      27.447   0.892  52.657  1.00  0.00     0.215 C 
BRANCH  24  25
HETATM   25  O1  UNL     1      28.549   0.976  53.524  1.00  0.00    -0.392 OA
HETATM   26  C1  UNL     1      28.703   2.324  53.833  1.00  0.00     0.201 C 
ENDBRANCH  24  25
ENDBRANCH   1  24
BRANCH   1  27
HETATM   27  O2  UNL     1      27.030  -1.279  53.571  1.00  0.00    -0.372 OA
HETATM   28  C4  UNL     1      27.215  -2.332  52.644  1.00  0.00     0.203 C 
ENDBRANCH   1  27
TORSDOF 5
ENDMDL
MODEL 3
REMARK VINA RESULT:      -7.7      4.773      6.892
REMARK  5 active torsions:
REMARK  status: ('A' for Active; 'I' for Inactive)
REMARK    1  A    between atoms: O1_2  and  C2_3 
REMARK    2  A    between atoms: C2_3  and  C3_4 
REMARK    3  A    between atoms: C3_4  and  O2_5 
REMARK    4  A    between atoms: C10_15  and  N3_16 
REMARK    5  A    between atoms: N3_16  and  C11_17 
ROOT
HETATM    1  C3  UNL     1      27.927   5.703  48.544  1.00  0.00     0.144 A 
HETATM    2  C5  UNL     1      27.276   4.713  48.920  1.00  0.00    -0.001 A 
HETATM    3  C6  UNL     1      26.299   5.514  49.251  1.00  0.00     0.060 A 
HETATM    4  C7  UNL     1      25.498   6.144  49.524  1.00  0.00     0.022 C 
HETATM    5  O3  UNL     1      24.405   6.965  49.904  1.00  0.00    -0.246 OA
HETATM    6  C8  UNL     1      23.417   5.821  50.449  1.00  0.00     0.210 A 
HETATM    7  N1  UNL     1      22.273   6.094  51.023  1.00  0.00    -0.215 NA
HETATM    8  C9  UNL     1      21.475   5.114  51.474  1.00  0.00     0.238 A 
HETATM    9  N2  UNL     1      21.877   3.866  51.321  1.00  0.00    -0.222 NA
HETATM   10  C10 UNL     1      22.966   3.395  50.783  1.00  0.00     0.160 A 
HETATM   11  C17 UNL     1      23.788   4.398  50.316  1.00  0.00     0.129 A 
HETATM   12  N4  UNL     1      25.010   3.788  49.682  1.00  0.00    -0.379 N 
HETATM   13  C18 UNL     1      26.401   3.642  49.400  1.00  0.00     0.159 C 
HETATM   14  H15 UNL     1      24.460   3.024  49.150  1.00  0.00     0.160 HD
ENDROOT
BRANCH  10  15
HETATM   15  N3  UNL     1      23.410   2.075  50.651  1.00  0.00    -0.339 N 
HETATM   16  H10 UNL     1      23.590   1.546  49.782  1.00  0.00     0.167 HD
BRANCH  15  17
HETATM   17  C11 UNL     1      23.733   1.242  51.744  1.00  0.00     0.035 A 
HETATM   18  C12 UNL     1      25.020   1.016  52.164  1.00  0.00     0.029 A 
HETATM   19  C13 UNL     1      25.364   0.198  53.211  1.00  0.00     0.004 A 
HETATM   20  C14 UNL     1      24.400  -0.473  53.932  1.00  0.00     0.019 A 
HETATM   21  C15 UNL     1      23.090  -0.281  53.555  1.00  0.00     0.013 A 
HETATM   22 BR1  UNL     1      21.693  -1.174  54.499  1.00  0.00    -0.051 Br
HETATM   23  C16 UNL     1      22.816   0.551  52.499  1.00  0.00     0.048 A 
ENDBRANCH  15  17
ENDBRANCH  10  15
BRANCH   1  24
HETATM   24  C2  UNL     1      28.002   7.143  48.361  1.00  0.00     0.215 C 
BRANCH  24  25
HETATM   25  O1  UNL     1      27.699   7.506  47.038  1.00  0.00    -0.392 OA
HETATM   26  C1  UNL     1      27.342   8.851  47.073  1.00  0.00     0.201 C 
ENDBRANCH  24  25
ENDBRANCH   1  24
BRANCH   1  27
HETATM   27  O2  UNL     1      29.067   5.013  48.136  1.00  0.00    -0.372 OA
HETATM   28  C4  UNL     1      30.326   5.655  48.218  1.00  0.00     0.203 C 
ENDBRANCH   1  27
TORSDOF 5
ENDMDL
MODEL 4
REMARK VINA RESULT:      -7.7      3.852      5.668
REMARK  5 active torsions:
REMARK  status: ('A' for Active; 'I' for Inactive)
REMARK    1  A    between atoms: O1_2  and  C2_3 
REMARK    2  A    between atoms: C2_3  and  C3_4 
REMARK    3  A    between atoms: C3_4  and  O2_5 
REMARK    4  A    between atoms: C10_15  and  N3_16 
REMARK    5  A    between atoms: N3_16  and  C11_17 
ROOT
HETATM    1  C3  UNL     1      24.217   0.241  53.273  1.00  0.00     0.144 A 
HETATM    2  C5  UNL     1      24.623   1.377  52.976  1.00  0.00    -0.001 A 
HETATM    3  C6  UNL     1      23.413   1.682  52.592  1.00  0.00     0.060 A 
HETATM    4  C7  UNL     1      22.442   1.949  52.277  1.00  0.00     0.022 C 
HETATM    5  O3  UNL     1      21.147   2.336  51.844  1.00  0.00    -0.246 OA
HETATM    6  C8  UNL     1      21.481   3.841  51.392  1.00  0.00     0.210 A 
HETATM    7  N1  UNL     1      20.599   4.611  50.806  1.00  0.00    -0.215 NA
HETATM    8  C9  UNL     1      20.913   5.862  50.434  1.00  0.00     0.238 A 
HETATM    9  N2  UNL     1      22.137   6.293  50.677  1.00  0.00    -0.222 NA
HETATM   10  C10 UNL     1      23.144   5.688  51.242  1.00  0.00     0.160 A 
HETATM   11  C17 UNL     1      22.825   4.404  51.627  1.00  0.00     0.129 A 
HETATM   12  N4  UNL     1      24.017   3.774  52.298  1.00  0.00    -0.379 N 
HETATM   13  C18 UNL     1      24.964   2.745  52.581  1.00  0.00     0.159 C 
HETATM   14  H15 UNL     1      24.257   4.647  52.888  1.00  0.00     0.160 HD
ENDROOT
BRANCH  10  15
HETATM   15  N3  UNL     1      24.450   6.131  51.469  1.00  0.00    -0.339 N 
HETATM   16  H10 UNL     1      24.917   6.307  52.374  1.00  0.00     0.167 HD
BRANCH  15  17
HETATM   17  C11 UNL     1      25.386   6.377  50.440  1.00  0.00     0.035 A 
HETATM   18  C12 UNL     1      25.878   5.393  49.620  1.00  0.00     0.029 A 
HETATM   19  C13 UNL     1      26.801   5.599  48.625  1.00  0.00     0.004 A 
HETATM   20  C14 UNL     1      27.310   6.857  48.380  1.00  0.00     0.019 A 
HETATM   21  C15 UNL     1      26.850   7.883  49.173  1.00  0.00     0.013 A 
HETATM   22 BR1  UNL     1      27.503   9.655  48.904  1.00  0.00    -0.051 Br
HETATM   23  C16 UNL     1      25.926   7.606  50.151  1.00  0.00     0.048 A 
ENDBRANCH  15  17
ENDBRANCH  10  15
BRANCH   1  24
HETATM   24  C2  UNL     1      23.113  -0.702  53.348  1.00  0.00     0.215 C 
BRANCH  24  25
HETATM   25  O1  UNL     1      22.834  -1.057  54.679  1.00  0.00    -0.392 OA
HETATM   26  C1  UNL     1      21.553  -0.585  54.949  1.00  0.00     0.201 C 
ENDBRANCH  24  25
ENDBRANCH   1  24
BRANCH   1  27
HETATM   27  O2  UNL     1      25.434  -0.264  53.724  1.00  0.00    -0.372 OA
HETATM   28  C4  UNL     1      26.282  -0.935  52.809  1.00  0.00     0.203 C 
ENDBRANCH   1  27
TORSDOF 5
ENDMDL
MODEL 5
REMARK VINA RESULT:      -7.6      4.195      5.736
REMARK  5 active torsions:
REMARK  status: ('A' for Active; 'I' for Inactive)
REMARK    1  A    between atoms: O1_2  and  C2_3 
REMARK    2  A    between atoms: C2_3  and  C3_4 
REMARK    3  A    between atoms: C3_4  and  O2_5 
REMARK    4  A    between atoms: C10_15  and  N3_16 
REMARK    5  A    between atoms: N3_16  and  C11_17 
ROOT
HETATM    1  C3  UNL     1      26.402  -0.024  53.607  1.00  0.00     0.144 A 
HETATM    2  C5  UNL     1      26.798   0.939  52.929  1.00  0.00    -0.001 A 
HETATM    3  C6  UNL     1      25.601   1.039  52.418  1.00  0.00     0.060 A 
HETATM    4  C7  UNL     1      24.640   1.138  51.993  1.00  0.00     0.022 C 
HETATM    5  O3  UNL     1      23.359   1.294  51.403  1.00  0.00    -0.246 OA
HETATM    6  C8  UNL     1      23.682   2.541  50.443  1.00  0.00     0.210 A 
HETATM    7  N1  UNL     1      22.813   3.012  49.585  1.00  0.00    -0.215 NA
HETATM    8  C9  UNL     1      23.118   4.052  48.793  1.00  0.00     0.238 A 
HETATM    9  N2  UNL     1      24.320   4.586  48.905  1.00  0.00    -0.222 NA
HETATM   10  C10 UNL     1      25.312   4.266  49.688  1.00  0.00     0.160 A 
HETATM   11  C17 UNL     1      25.002   3.200  50.504  1.00  0.00     0.129 A 
HETATM   12  N4  UNL     1      26.174   2.900  51.401  1.00  0.00    -0.379 N 
HETATM   13  C18 UNL     1      27.129   2.081  52.074  1.00  0.00     0.159 C 
HETATM   14  H15 UNL     1      26.369   3.937  51.639  1.00  0.00     0.160 HD
ENDROOT
BRANCH  10  15
HETATM   15  N3  UNL     1      26.597   4.808  49.783  1.00  0.00    -0.339 N 
HETATM   16  H10 UNL     1      27.387   4.480  50.363  1.00  0.00     0.167 HD
BRANCH  15  17
HETATM   17  C11 UNL     1      27.040   5.916  49.028  1.00  0.00     0.035 A 
HETATM   18  C12 UNL     1      28.153   5.884  48.226  1.00  0.00     0.029 A 
HETATM   19  C13 UNL     1      28.617   6.951  47.497  1.00  0.00     0.004 A 
HETATM   20  C14 UNL     1      27.967   8.167  47.528  1.00  0.00     0.019 A 
HETATM   21  C15 UNL     1      26.843   8.254  48.316  1.00  0.00     0.013 A 
HETATM   22 BR1  UNL     1      25.885   9.902  48.418  1.00  0.00    -0.051 Br
HETATM   23  C16 UNL     1      26.434   7.149  49.020  1.00  0.00     0.048 A 
ENDBRANCH  15  17
ENDBRANCH  10  15
BRANCH   1  24
HETATM   24  C2  UNL     1      25.315  -0.914  53.982  1.00  0.00     0.215 C 
BRANCH  24  25
HETATM   25  O1  UNL     1      25.255  -1.087  55.375  1.00  0.00    -0.392 OA
HETATM   26  C1  UNL     1      23.919  -1.326  55.683  1.00  0.00     0.201 C 
ENDBRANCH  24  25
ENDBRANCH   1  24
BRANCH   1  27
HETATM   27  O2  UNL     1      27.608  -0.286  54.254  1.00  0.00    -0.372 OA
HETATM   28  C4  UNL     1      28.665  -0.881  53.525  1.00  0.00     0.203 C 
ENDBRANCH   1  27
TORSDOF 5
ENDMDL
MODEL 6
REMARK VINA RESULT:      -7.6      3.817      7.268
REMARK  5 active torsions:
REMARK  status: ('A' for Active; 'I' for Inactive)
REMARK    1  A    between atoms: O1_2  and  C2_3 
REMARK    2  A    between atoms: C2_3  and  C3_4 
REMARK    3  A    between atoms: C3_4  and  O2_5 
REMARK    4  A    between atoms: C10_15  and  N3_16 
REMARK    5  A    between atoms: N3_16  and  C11_17 
ROOT
HETATM    1  C3  UNL     1      19.565   3.296  51.001  1.00  0.00     0.144 A 
HETATM    2  C5  UNL     1      20.781   3.065  51.107  1.00  0.00    -0.001 A 
HETATM    3  C6  UNL     1      20.503   2.151  51.998  1.00  0.00     0.060 A 
HETATM    4  C7  UNL     1      20.301   1.407  52.719  1.00  0.00     0.022 C 
HETATM    5  O3  UNL     1      20.060   0.404  53.693  1.00  0.00    -0.246 OA
HETATM    6  C8  UNL     1      21.580  -0.030  53.978  1.00  0.00     0.210 A 
HETATM    7  N1  UNL     1      21.903  -0.889  54.911  1.00  0.00    -0.215 NA
HETATM    8  C9  UNL     1      23.185  -1.224  55.128  1.00  0.00     0.238 A 
HETATM    9  N2  UNL     1      24.109  -0.663  54.372  1.00  0.00    -0.222 NA
HETATM   10  C10 UNL     1      23.992   0.202  53.404  1.00  0.00     0.160 A 
HETATM   11  C17 UNL     1      22.678   0.548  53.177  1.00  0.00     0.129 A 
HETATM   12  N4  UNL     1      22.609   1.523  52.032  1.00  0.00    -0.379 N 
HETATM   13  C18 UNL     1      22.179   2.691  51.335  1.00  0.00     0.159 C 
HETATM   14  H15 UNL     1      23.311   0.982  51.414  1.00  0.00     0.160 HD
ENDROOT
BRANCH  10  15
HETATM   15  N3  UNL     1      24.973   0.823  52.626  1.00  0.00    -0.339 N 
HETATM   16  H10 UNL     1      24.858   1.309  51.721  1.00  0.00     0.167 HD
BRANCH  15  17
HETATM   17  C11 UNL     1      26.331   0.920  53.003  1.00  0.00     0.035 A 
HETATM   18  C12 UNL     1      26.938   2.106  53.333  1.00  0.00     0.029 A 
HETATM   19  C13 UNL     1      28.258   2.232  53.685  1.00  0.00     0.004 A 
HETATM   20  C14 UNL     1      29.088   1.131  53.730  1.00  0.00     0.019 A 
HETATM   21  C15 UNL     1      28.530  -0.085  53.410  1.00  0.00     0.013 A 
HETATM   22 BR1  UNL     1      29.608  -1.659  53.444  1.00  0.00    -0.051 Br
HETATM   23  C16 UNL     1      27.203  -0.140  53.066  1.00  0.00     0.048 A 
ENDBRANCH  15  17
ENDBRANCH  10  15
BRANCH   1  24
HETATM   24  C2  UNL     1      18.203   2.991  51.409  1.00  0.00     0.215 C 
BRANCH  24  25
HETATM   25  O1  UNL     1      17.604   4.090  52.047  1.00  0.00    -0.392 OA
HETATM   26  C1  UNL     1      16.232   3.855  52.026  1.00  0.00     0.201 C 
ENDBRANCH  24  25
ENDBRANCH   1  24
BRANCH   1  27
HETATM   27  O2  UNL     1      19.665   4.303  50.043  1.00  0.00    -0.372 OA
HETATM   28  C4  UNL     1      19.827   3.945  48.683  1.00  0.00     0.203 C 
ENDBRANCH   1  27
TORSDOF 5
ENDMDL
MODEL 7
REMARK VINA RESULT:      -7.5      4.039      6.113
REMARK  5 active torsions:
REMARK  status: ('A' for Active; 'I' for Inactive)
REMARK    1  A    between atoms: O1_2  and  C2_3 
REMARK    2  A    between atoms: C2_3  and  C3_4 
REMARK    3  A    between atoms: C3_4  and  O2_5 
REMARK    4  A    between atoms: C10_15  and  N3_16 
REMARK    5  A    between atoms: N3_16  and  C11_17 
ROOT
HETATM    1  C3  UNL     1      23.818   0.272  53.097  1.00  0.00     0.144 A 
HETATM    2  C5  UNL     1      24.330   1.328  52.688  1.00  0.00    -0.001 A 
HETATM    3  C6  UNL     1      23.413   1.381  51.759  1.00  0.00     0.060 A 
HETATM    4  C7  UNL     1      22.682   1.444  51.001  1.00  0.00     0.022 C 
HETATM    5  O3  UNL     1      21.713   1.554  49.970  1.00  0.00    -0.246 OA
HETATM    6  C8  UNL     1      22.232   2.914  49.290  1.00  0.00     0.210 A 
HETATM    7  N1  UNL     1      21.707   3.397  48.193  1.00  0.00    -0.215 NA
HETATM    8  C9  UNL     1      22.170   4.533  47.648  1.00  0.00     0.238 A 
HETATM    9  N2  UNL     1      23.169   5.149  48.251  1.00  0.00    -0.222 NA
HETATM   10  C10 UNL     1      23.819   4.833  49.336  1.00  0.00     0.160 A 
HETATM   11  C17 UNL     1      23.346   3.668  49.900  1.00  0.00     0.129 A 
HETATM   12  N4  UNL     1      24.114   3.376  51.162  1.00  0.00    -0.379 N 
HETATM   13  C18 UNL     1      24.828   2.573  52.101  1.00  0.00     0.159 C 
HETATM   14  H15 UNL     1      24.084   4.396  51.520  1.00  0.00     0.160 HD
ENDROOT
BRANCH  10  15
HETATM   15  N3  UNL     1      24.900   5.465  49.956  1.00  0.00    -0.339 N 
HETATM   16  H10 UNL     1      24.976   5.787  50.935  1.00  0.00     0.167 HD
BRANCH  15  17
HETATM   17  C11 UNL     1      26.128   5.733  49.313  1.00  0.00     0.035 A 
HETATM   18  C12 UNL     1      27.038   4.757  48.991  1.00  0.00     0.029 A 
HETATM   19  C13 UNL     1      28.246   4.990  48.383  1.00  0.00     0.004 A 
HETATM   20  C14 UNL     1      28.635   6.269  48.045  1.00  0.00     0.019 A 
HETATM   21  C15 UNL     1      27.759   7.287  48.344  1.00  0.00     0.013 A 
HETATM   22 BR1  UNL     1      28.219   9.088  47.912  1.00  0.00    -0.051 Br
HETATM   23  C16 UNL     1      26.567   6.984  48.953  1.00  0.00     0.048 A 
ENDBRANCH  15  17
ENDBRANCH  10  15
BRANCH   1  24
HETATM   24  C2  UNL     1      22.779  -0.737  52.965  1.00  0.00     0.215 C 
BRANCH  24  25
HETATM   25  O1  UNL     1      22.340  -1.185  54.222  1.00  0.00    -0.392 OA
HETATM   26  C1  UNL     1      21.286  -0.353  54.588  1.00  0.00     0.201 C 
ENDBRANCH  24  25
ENDBRANCH   1  24
BRANCH   1  27
HETATM   27  O2  UNL     1      24.708   0.045  54.145  1.00  0.00    -0.372 OA
HETATM   28  C4  UNL     1      25.918  -0.641  53.882  1.00  0.00     0.203 C 
ENDBRANCH   1  27
TORSDOF 5
ENDMDL
MODEL 8
REMARK VINA RESULT:      -7.4      3.226      6.404
REMARK  5 active torsions:
REMARK  status: ('A' for Active; 'I' for Inactive)
REMARK    1  A    between atoms: O1_2  and  C2_3 
REMARK    2  A    between atoms: C2_3  and  C3_4 
REMARK    3  A    between atoms: C3_4  and  O2_5 
REMARK    4  A    between atoms: C10_15  and  N3_16 
REMARK    5  A    between atoms: N3_16  and  C11_17 
ROOT
HETATM    1  C3  UNL     1      18.223  -0.375  52.507  1.00  0.00     0.144 A 
HETATM    2  C5  UNL     1      19.286   0.117  52.091  1.00  0.00    -0.001 A 
HETATM    3  C6  UNL     1      19.915  -0.487  53.063  1.00  0.00     0.060 A 
HETATM    4  C7  UNL     1      20.443  -0.966  53.841  1.00  0.00     0.022 C 
HETATM    5  O3  UNL     1      21.180  -1.596  54.877  1.00  0.00    -0.246 OA
HETATM    6  C8  UNL     1      22.644  -1.051  54.502  1.00  0.00     0.210 A 
HETATM    7  N1  UNL     1      23.693  -1.280  55.251  1.00  0.00    -0.215 NA
HETATM    8  C9  UNL     1      24.901  -0.804  54.912  1.00  0.00     0.238 A 
HETATM    9  N2  UNL     1      25.001  -0.098  53.801  1.00  0.00    -0.222 NA
HETATM   10  C10 UNL     1      24.088   0.235  52.933  1.00  0.00     0.160 A 
HETATM   11  C17 UNL     1      22.846  -0.254  53.276  1.00  0.00     0.129 A 
HETATM   12  N4  UNL     1      21.845   0.138  52.221  1.00  0.00    -0.379 N 
HETATM   13  C18 UNL     1      20.605   0.627  51.714  1.00  0.00     0.159 C 
HETATM   14  H15 UNL     1      22.494  -0.107  51.391  1.00  0.00     0.160 HD
ENDROOT
BRANCH  10  15
HETATM   15  N3  UNL     1      24.185   1.011  51.774  1.00  0.00    -0.339 N 
HETATM   16  H10 UNL     1      24.344   0.694  50.804  1.00  0.00     0.167 HD
BRANCH  15  17
HETATM   17  C11 UNL     1      24.029   2.415  51.755  1.00  0.00     0.035 A 
HETATM   18  C12 UNL     1      23.810   3.164  52.883  1.00  0.00     0.029 A 
HETATM   19  C13 UNL     1      23.637   4.526  52.892  1.00  0.00     0.004 A 
HETATM   20  C14 UNL     1      23.674   5.252  51.720  1.00  0.00     0.019 A 
HETATM   21  C15 UNL     1      23.892   4.550  50.557  1.00  0.00     0.013 A 
HETATM   22 BR1  UNL     1      23.956   5.477  48.890  1.00  0.00    -0.051 Br
HETATM   23  C16 UNL     1      24.057   3.189  50.620  1.00  0.00     0.048 A 
ENDBRANCH  15  17
ENDBRANCH  10  15
BRANCH   1  24
HETATM   24  C2  UNL     1      17.539  -1.213  53.479  1.00  0.00     0.215 C 
BRANCH  24  25
HETATM   25  O1  UNL     1      16.947  -2.328  52.863  1.00  0.00    -0.392 OA
HETATM   26  C1  UNL     1      17.360  -3.442  53.589  1.00  0.00     0.201 C 
ENDBRANCH  24  25
ENDBRANCH   1  24
BRANCH   1  27
HETATM   27  O2  UNL     1      17.386   0.188  51.546  1.00  0.00    -0.372 OA
HETATM   28  C4  UNL     1      17.543  -0.189  50.191  1.00  0.00     0.203 C 
ENDBRANCH   1  27
TORSDOF 5
ENDMDL
MODEL 9
REMARK VINA RESULT:      -7.4      5.908      8.069
REMARK  5 active torsions:
REMARK  status: ('A' for Active; 'I' for Inactive)
REMARK    1  A    between atoms: O1_2  and  C2_3 
REMARK    2  A    between atoms: C2_3  and  C3_4 
REMARK    3  A    between atoms: C3_4  and  O2_5 
REMARK    4  A    between atoms: C10_15  and  N3_16 
REMARK    5  A    between atoms: N3_16  and  C11_17 
ROOT
HETATM    1  C3  UNL     1      29.752   7.111  47.732  1.00  0.00     0.144 A 
HETATM    2  C5  UNL     1      29.043   6.143  48.055  1.00  0.00    -0.001 A 
HETATM    3  C6  UNL     1      28.177   6.979  48.562  1.00  0.00     0.060 A 
HETATM    4  C7  UNL     1      27.464   7.637  48.977  1.00  0.00     0.022 C 
HETATM    5  O3  UNL     1      26.490   8.497  49.545  1.00  0.00    -0.246 OA
HETATM    6  C8  UNL     1      25.446   7.385  50.048  1.00  0.00     0.210 A 
HETATM    7  N1  UNL     1      24.384   7.684  50.753  1.00  0.00    -0.215 NA
HETATM    8  C9  UNL     1      23.536   6.728  51.164  1.00  0.00     0.238 A 
HETATM    9  N2  UNL     1      23.803   5.478  50.836  1.00  0.00    -0.222 NA
HETATM   10  C10 UNL     1      24.795   4.983  50.150  1.00  0.00     0.160 A 
HETATM   11  C17 UNL     1      25.667   5.961  49.724  1.00  0.00     0.129 A 
HETATM   12  N4  UNL     1      26.769   5.330  48.916  1.00  0.00    -0.379 N 
HETATM   13  C18 UNL     1      28.112   5.100  48.492  1.00  0.00     0.159 C 
HETATM   14  H15 UNL     1      26.107   4.684  48.355  1.00  0.00     0.160 HD
ENDROOT
BRANCH  10  15
HETATM   15  N3  UNL     1      25.098   3.656  49.832  1.00  0.00    -0.339 N 
HETATM   16  H10 UNL     1      25.221   3.235  48.896  1.00  0.00     0.167 HD
BRANCH  15  17
HETATM   17  C11 UNL     1      25.335   2.651  50.796  1.00  0.00     0.035 A 
HETATM   18  C12 UNL     1      26.592   2.247  51.168  1.00  0.00     0.029 A 
HETATM   19  C13 UNL     1      26.851   1.261  52.088  1.00  0.00     0.004 A 
HETATM   20  C14 UNL     1      25.823   0.591  52.717  1.00  0.00     0.019 A 
HETATM   21  C15 UNL     1      24.540   0.958  52.382  1.00  0.00     0.013 A 
HETATM   22 BR1  UNL     1      23.059   0.080  53.204  1.00  0.00    -0.051 Br
HETATM   23  C16 UNL     1      24.352   1.952  51.454  1.00  0.00     0.048 A 
ENDBRANCH  15  17
ENDBRANCH  10  15
BRANCH   1  24
HETATM   24  C2  UNL     1      29.949   8.551  47.705  1.00  0.00     0.215 C 
BRANCH  24  25
HETATM   25  O1  UNL     1      30.882   8.957  48.674  1.00  0.00    -0.392 OA
HETATM   26  C1  UNL     1      30.386  10.134  49.226  1.00  0.00     0.201 C 
ENDBRANCH  24  25
ENDBRANCH   1  24
BRANCH   1  27
HETATM   27  O2  UNL     1      30.784   6.380  47.147  1.00  0.00    -0.372 OA
HETATM   28  C4  UNL     1      31.694   5.685  47.980  1.00  0.00     0.203 C 
ENDBRANCH   1  27
TORSDOF 5
ENDMDL
