MODEL 1
REMARK VINA RESULT:      -7.7      0.000      0.000
REMARK  5 active torsions:
REMARK  status: ('A' for Active; 'I' for Inactive)
REMARK    1  A    between atoms: O1_2  and  C2_3 
REMARK    2  A    between atoms: C4_5  and  N1_6 
REMARK    3  A    between atoms: N1_6  and  C5_7 
REMARK    4  A    between atoms: C9_13  and  O2_14 
REMARK    5  A    between atoms: C11_16  and  O3_17 
ROOT
HETATM    1  C5  UNL     1      23.372  -0.381  53.619  1.00  0.00     0.142 A 
HETATM    2  N2  UNL     1      22.888  -1.106  54.665  1.00  0.00    -0.224 NA
HETATM    3  C6  UNL     1      23.750  -1.439  55.658  1.00  0.00     0.236 A 
HETATM    4  N3  UNL     1      25.034  -1.092  55.644  1.00  0.00    -0.241 NA
HETATM    5  C7  UNL     1      25.553  -0.369  54.614  1.00  0.00     0.075 A 
HETATM    6  C8  UNL     1      26.898  -0.005  54.575  1.00  0.00     0.072 A 
HETATM    7  C9  UNL     1      27.359   0.714  53.489  1.00  0.00     0.103 A 
HETATM    8  C11 UNL     1      26.484   1.069  52.449  1.00  0.00     0.102 A 
HETATM    9  C13 UNL     1      25.177   0.672  52.567  1.00  0.00     0.057 A 
HETATM   10  C14 UNL     1      24.681  -0.040  53.630  1.00  0.00     0.042 A 
ENDROOT
BRANCH   1  11
HETATM   11  N1  UNL     1      22.404  -0.078  52.691  1.00  0.00    -0.340 N 
HETATM   12  H5  UNL     1      21.597  -0.148  53.380  1.00  0.00     0.167 HD
BRANCH  11  13
HETATM   13  C4  UNL     1      21.428   0.229  51.747  1.00  0.00     0.032 C 
HETATM   14  C3  UNL     1      20.053  -0.110  52.219  1.00  0.00     0.065 C 
HETATM   15  C2  UNL     1      18.828   0.201  51.792  1.00  0.00     0.070 C 
HETATM   16  C18 UNL     1      18.654   1.050  50.605  1.00  0.00     0.033 C 
HETATM   17  C17 UNL     1      19.495   1.457  49.639  1.00  0.00    -0.020 C 
HETATM   18  C16 UNL     1      20.932   1.205  49.399  1.00  0.00     0.056 C 
HETATM   19  C15 UNL     1      21.683   0.765  50.576  1.00  0.00     0.006 C 
BRANCH  15  20
HETATM   20  O1  UNL     1      17.593  -0.122  52.252  1.00  0.00    -0.356 OA
HETATM   21  C1  UNL     1      17.343  -1.199  53.084  1.00  0.00     0.210 C 
ENDBRANCH  15  20
ENDBRANCH  11  13
ENDBRANCH   1  11
BRANCH   8  22
HETATM   22  O3  UNL     1      27.110   1.787  51.444  1.00  0.00    -0.353 OA
HETATM   23  C12 UNL     1      26.386   2.804  50.744  1.00  0.00     0.210 C 
ENDBRANCH   8  22
BRANCH   7  24
HETATM   24  O2  UNL     1      28.691   1.090  53.423  1.00  0.00    -0.353 OA
HETATM   25  C10 UNL     1      29.787   0.240  53.580  1.00  0.00     0.210 C 
ENDBRANCH   7  24
TORSDOF 5
ENDMDL
MODEL 2
REMARK VINA RESULT:      -7.6      2.481      7.188
REMARK  5 active torsions:
REMARK  status: ('A' for Active; 'I' for Inactive)
REMARK    1  A    between atoms: O1_2  and  C2_3 
REMARK    2  A    between atoms: C4_5  and  N1_6 
REMARK    3  A    between atoms: N1_6  and  C5_7 
REMARK    4  A    between atoms: C9_13  and  O2_14 
REMARK    5  A    between atoms: C11_16  and  O3_17 
ROOT
HETATM    1  C5  UNL     1      23.099  -0.220  53.529  1.00  0.00     0.142 A 
HETATM    2  N2  UNL     1      22.518  -1.288  54.144  1.00  0.00    -0.224 NA
HETATM    3  C6  UNL     1      21.171  -1.271  54.304  1.00  0.00     0.236 A 
HETATM    4  N3  UNL     1      20.409  -0.262  53.890  1.00  0.00    -0.241 NA
HETATM    5  C7  UNL     1      20.955   0.821  53.273  1.00  0.00     0.075 A 
HETATM    6  C8  UNL     1      20.175   1.894  52.844  1.00  0.00     0.072 A 
HETATM    7  C9  UNL     1      20.801   2.968  52.240  1.00  0.00     0.103 A 
HETATM    8  C11 UNL     1      22.194   2.973  52.066  1.00  0.00     0.102 A 
HETATM    9  C13 UNL     1      22.885   1.878  52.517  1.00  0.00     0.057 A 
HETATM   10  C14 UNL     1      22.301   0.792  53.118  1.00  0.00     0.042 A 
ENDROOT
BRANCH   1  11
HETATM   11  N1  UNL     1      24.460  -0.361  53.398  1.00  0.00    -0.340 N 
HETATM   12  H5  UNL     1      24.687   0.599  53.793  1.00  0.00     0.167 HD
BRANCH  11  13
HETATM   13  C4  UNL     1      25.837  -0.510  53.262  1.00  0.00     0.032 C 
HETATM   14  C3  UNL     1      26.581   0.737  53.607  1.00  0.00     0.065 C 
HETATM   15  C2  UNL     1      27.864   1.009  53.851  1.00  0.00     0.070 C 
HETATM   16  C18 UNL     1      28.869  -0.062  53.794  1.00  0.00     0.033 C 
HETATM   17  C17 UNL     1      28.843  -1.317  53.312  1.00  0.00    -0.020 C 
HETATM   18  C16 UNL     1      27.783  -2.108  52.652  1.00  0.00     0.056 C 
HETATM   19  C15 UNL     1      26.422  -1.623  52.882  1.00  0.00     0.006 C 
BRANCH  15  20
HETATM   20  O1  UNL     1      28.507   2.160  54.171  1.00  0.00    -0.356 OA
HETATM   21  C1  UNL     1      29.800   2.206  54.661  1.00  0.00     0.210 C 
ENDBRANCH  15  20
ENDBRANCH  11  13
ENDBRANCH   1  11
BRANCH   8  22
HETATM   22  O3  UNL     1      22.653   4.122  51.445  1.00  0.00    -0.353 OA
HETATM   23  C12 UNL     1      23.530   5.007  52.151  1.00  0.00     0.210 C 
ENDBRANCH   8  22
BRANCH   7  24
HETATM   24  O2  UNL     1      20.051   4.049  51.803  1.00  0.00    -0.353 OA
HETATM   25  C10 UNL     1      19.141   4.036  50.744  1.00  0.00     0.210 C 
ENDBRANCH   7  24
TORSDOF 5
ENDMDL
MODEL 3
REMARK VINA RESULT:      -7.5      2.078      3.429
REMARK  5 active torsions:
REMARK  status: ('A' for Active; 'I' for Inactive)
REMARK    1  A    between atoms: O1_2  and  C2_3 
REMARK    2  A    between atoms: C4_5  and  N1_6 
REMARK    3  A    between atoms: N1_6  and  C5_7 
REMARK    4  A    between atoms: C9_13  and  O2_14 
REMARK    5  A    between atoms: C11_16  and  O3_17 
ROOT
HETATM    1  C5  UNL     1      24.459   1.940  51.169  1.00  0.00     0.142 A 
HETATM    2  N2  UNL     1      24.789   2.954  50.321  1.00  0.00    -0.224 NA
HETATM    3  C6  UNL     1      26.077   3.379  50.312  1.00  0.00     0.236 A 
HETATM    4  N3  UNL     1      27.015   2.851  51.094  1.00  0.00    -0.241 NA
HETATM    5  C7  UNL     1      26.722   1.838  51.954  1.00  0.00     0.075 A 
HETATM    6  C8  UNL     1      27.688   1.280  52.790  1.00  0.00     0.072 A 
HETATM    7  C9  UNL     1      27.314   0.265  53.650  1.00  0.00     0.103 A 
HETATM    8  C11 UNL     1      25.986  -0.190  53.677  1.00  0.00     0.102 A 
HETATM    9  C13 UNL     1      25.100   0.413  52.822  1.00  0.00     0.057 A 
HETATM   10  C14 UNL     1      25.433   1.421  51.952  1.00  0.00     0.042 A 
ENDROOT
BRANCH   1  11
HETATM   11  N1  UNL     1      23.138   1.575  51.069  1.00  0.00    -0.340 N 
HETATM   12  H5  UNL     1      22.905   1.809  52.080  1.00  0.00     0.167 HD
BRANCH  11  13
HETATM   13  C4  UNL     1      21.800   1.204  50.963  1.00  0.00     0.032 C 
HETATM   14  C3  UNL     1      21.356   0.345  52.099  1.00  0.00     0.065 C 
HETATM   15  C2  UNL     1      20.162  -0.047  52.547  1.00  0.00     0.070 C 
HETATM   16  C18 UNL     1      18.937   0.386  51.860  1.00  0.00     0.033 C 
HETATM   17  C17 UNL     1      18.712   0.960  50.666  1.00  0.00    -0.020 C 
HETATM   18  C16 UNL     1      19.619   1.382  49.577  1.00  0.00     0.056 C 
HETATM   19  C15 UNL     1      21.013   1.573  49.979  1.00  0.00     0.006 C 
BRANCH  15  20
HETATM   20  O1  UNL     1      19.793  -0.827  53.594  1.00  0.00    -0.356 OA
HETATM   21  C1  UNL     1      20.672  -1.630  54.299  1.00  0.00     0.210 C 
ENDBRANCH  15  20
ENDBRANCH  11  13
ENDBRANCH   1  11
BRANCH   8  22
HETATM   22  O3  UNL     1      25.786  -1.208  54.594  1.00  0.00    -0.353 OA
HETATM   23  C12 UNL     1      24.626  -1.189  55.433  1.00  0.00     0.210 C 
ENDBRANCH   8  22
BRANCH   7  24
HETATM   24  O2  UNL     1      28.253  -0.309  54.492  1.00  0.00    -0.353 OA
HETATM   25  C10 UNL     1      29.535  -0.722  54.125  1.00  0.00     0.210 C 
ENDBRANCH   7  24
TORSDOF 5
ENDMDL
MODEL 4
REMARK VINA RESULT:      -7.4      1.762      7.191
REMARK  5 active torsions:
REMARK  status: ('A' for Active; 'I' for Inactive)
REMARK    1  A    between atoms: O1_2  and  C2_3 
REMARK    2  A    between atoms: C4_5  and  N1_6 
REMARK    3  A    between atoms: N1_6  and  C5_7 
REMARK    4  A    between atoms: C9_13  and  O2_14 
REMARK    5  A    between atoms: C11_16  and  O3_17 
ROOT
HETATM    1  C5  UNL     1      22.441   0.129  53.128  1.00  0.00     0.142 A 
HETATM    2  N2  UNL     1      23.140  -0.474  54.129  1.00  0.00    -0.224 NA
HETATM    3  C6  UNL     1      22.479  -1.352  54.925  1.00  0.00     0.236 A 
HETATM    4  N3  UNL     1      21.190  -1.638  54.767  1.00  0.00    -0.241 NA
HETATM    5  C7  UNL     1      20.459  -1.053  53.779  1.00  0.00     0.075 A 
HETATM    6  C8  UNL     1      19.103  -1.329  53.604  1.00  0.00     0.072 A 
HETATM    7  C9  UNL     1      18.421  -0.685  52.590  1.00  0.00     0.103 A 
HETATM    8  C11 UNL     1      19.085   0.229  51.756  1.00  0.00     0.102 A 
HETATM    9  C13 UNL     1      20.418   0.442  51.995  1.00  0.00     0.057 A 
HETATM   10  C14 UNL     1      21.131  -0.180  52.990  1.00  0.00     0.042 A 
ENDROOT
BRANCH   1  11
HETATM   11  N1  UNL     1      23.219   0.972  52.372  1.00  0.00    -0.340 N 
HETATM   12  H5  UNL     1      22.486   1.114  51.615  1.00  0.00     0.167 HD
BRANCH  11  13
HETATM   13  C4  UNL     1      24.012   1.826  51.611  1.00  0.00     0.032 C 
HETATM   14  C3  UNL     1      25.402   1.936  52.141  1.00  0.00     0.065 C 
HETATM   15  C2  UNL     1      26.543   2.420  51.647  1.00  0.00     0.070 C 
HETATM   16  C18 UNL     1      26.574   3.007  50.300  1.00  0.00     0.033 C 
HETATM   17  C17 UNL     1      25.609   3.398  49.450  1.00  0.00    -0.020 C 
HETATM   18  C16 UNL     1      24.133   3.384  49.544  1.00  0.00     0.056 C 
HETATM   19  C15 UNL     1      23.590   2.460  50.540  1.00  0.00     0.006 C 
BRANCH  15  20
HETATM   20  O1  UNL     1      27.797   2.497  52.158  1.00  0.00    -0.356 OA
HETATM   21  C1  UNL     1      28.217   1.788  53.271  1.00  0.00     0.210 C 
ENDBRANCH  15  20
ENDBRANCH  11  13
ENDBRANCH   1  11
BRANCH   8  22
HETATM   22  O3  UNL     1      18.253   0.780  50.795  1.00  0.00    -0.353 OA
HETATM   23  C12 UNL     1      17.783   2.123  50.951  1.00  0.00     0.210 C 
ENDBRANCH   8  22
BRANCH   7  24
HETATM   24  O2  UNL     1      17.073  -0.940  52.393  1.00  0.00    -0.353 OA
HETATM   25  C10 UNL     1      16.409  -2.123  52.724  1.00  0.00     0.210 C 
ENDBRANCH   7  24
TORSDOF 5
ENDMDL
MODEL 5
REMARK VINA RESULT:      -7.3      3.197      6.372
REMARK  5 active torsions:
REMARK  status: ('A' for Active; 'I' for Inactive)
REMARK    1  A    between atoms: O1_2  and  C2_3 
REMARK    2  A    between atoms: C4_5  and  N1_6 
REMARK    3  A    between atoms: N1_6  and  C5_7 
REMARK    4  A    between atoms: C9_13  and  O2_14 
REMARK    5  A    between atoms: C11_16  and  O3_17 
ROOT
HETATM    1  C5  UNL     1      25.610   1.463  51.855  1.00  0.00     0.142 A 
HETATM    2  N2  UNL     1      26.761   0.744  51.974  1.00  0.00    -0.224 NA
HETATM    3  C6  UNL     1      26.716  -0.410  52.685  1.00  0.00     0.236 A 
HETATM    4  N3  UNL     1      25.605  -0.857  53.265  1.00  0.00    -0.241 NA
HETATM    5  C7  UNL     1      24.437  -0.165  53.168  1.00  0.00     0.075 A 
HETATM    6  C8  UNL     1      23.265  -0.609  53.779  1.00  0.00     0.072 A 
HETATM    7  C9  UNL     1      22.121   0.155  53.652  1.00  0.00     0.103 A 
HETATM    8  C11 UNL     1      22.145   1.355  52.922  1.00  0.00     0.102 A 
HETATM    9  C13 UNL     1      23.338   1.718  52.353  1.00  0.00     0.057 A 
HETATM   10  C14 UNL     1      24.495   0.986  52.454  1.00  0.00     0.042 A 
ENDROOT
BRANCH   1  11
HETATM   11  N1  UNL     1      25.769   2.594  51.091  1.00  0.00    -0.340 N 
HETATM   12  H5  UNL     1      26.323   3.122  51.830  1.00  0.00     0.167 HD
BRANCH  11  13
HETATM   13  C4  UNL     1      25.927   3.738  50.313  1.00  0.00     0.032 C 
HETATM   14  C3  UNL     1      24.824   4.722  50.518  1.00  0.00     0.065 C 
HETATM   15  C2  UNL     1      24.662   6.007  50.194  1.00  0.00     0.070 C 
HETATM   16  C18 UNL     1      25.721   6.725  49.472  1.00  0.00     0.033 C 
HETATM   17  C17 UNL     1      26.823   6.317  48.819  1.00  0.00    -0.020 C 
HETATM   18  C16 UNL     1      27.397   4.976  48.577  1.00  0.00     0.056 C 
HETATM   19  C15 UNL     1      26.936   3.936  49.496  1.00  0.00     0.006 C 
BRANCH  15  20
HETATM   20  O1  UNL     1      23.643   6.877  50.404  1.00  0.00    -0.356 OA
HETATM   21  C1  UNL     1      22.308   6.510  50.401  1.00  0.00     0.210 C 
ENDBRANCH  15  20
ENDBRANCH  11  13
ENDBRANCH   1  11
BRANCH   8  22
HETATM   22  O3  UNL     1      20.916   1.991  52.896  1.00  0.00    -0.353 OA
HETATM   23  C12 UNL     1      20.782   3.248  52.224  1.00  0.00     0.210 C 
ENDBRANCH   8  22
BRANCH   7  24
HETATM   24  O2  UNL     1      20.941  -0.262  54.247  1.00  0.00    -0.353 OA
HETATM   25  C10 UNL     1      20.375  -1.533  54.136  1.00  0.00     0.210 C 
ENDBRANCH   7  24
TORSDOF 5
ENDMDL
MODEL 6
REMARK VINA RESULT:      -7.3      2.463      4.954
REMARK  5 active torsions:
REMARK  status: ('A' for Active; 'I' for Inactive)
REMARK    1  A    between atoms: O1_2  and  C2_3 
REMARK    2  A    between atoms: C4_5  and  N1_6 
REMARK    3  A    between atoms: N1_6  and  C5_7 
REMARK    4  A    between atoms: C9_13  and  O2_14 
REMARK    5  A    between atoms: C11_16  and  O3_17 
ROOT
HETATM    1  C5  UNL     1      22.547   2.574  50.783  1.00  0.00     0.142 A 
HETATM    2  N2  UNL     1      21.437   3.041  50.146  1.00  0.00    -0.224 NA
HETATM    3  C6  UNL     1      21.612   3.952  49.156  1.00  0.00     0.236 A 
HETATM    4  N3  UNL     1      22.810   4.400  48.792  1.00  0.00    -0.241 NA
HETATM    5  C7  UNL     1      23.940   3.957  49.407  1.00  0.00     0.075 A 
HETATM    6  C8  UNL     1      25.205   4.424  49.050  1.00  0.00     0.072 A 
HETATM    7  C9  UNL     1      26.306   3.942  49.731  1.00  0.00     0.103 A 
HETATM    8  C11 UNL     1      26.149   3.000  50.761  1.00  0.00     0.102 A 
HETATM    9  C13 UNL     1      24.871   2.593  51.048  1.00  0.00     0.057 A 
HETATM   10  C14 UNL     1      23.753   3.047  50.394  1.00  0.00     0.042 A 
ENDROOT
BRANCH   1  11
HETATM   11  N1  UNL     1      22.250   1.638  51.745  1.00  0.00    -0.340 N 
HETATM   12  H5  UNL     1      21.339   1.331  51.292  1.00  0.00     0.167 HD
BRANCH  11  13
HETATM   13  C4  UNL     1      21.955   0.692  52.723  1.00  0.00     0.032 C 
HETATM   14  C3  UNL     1      20.498   0.377  52.788  1.00  0.00     0.065 C 
HETATM   15  C2  UNL     1      19.789  -0.593  53.369  1.00  0.00     0.070 C 
HETATM   16  C18 UNL     1      20.467  -1.637  54.150  1.00  0.00     0.033 C 
HETATM   17  C17 UNL     1      21.714  -1.751  54.637  1.00  0.00    -0.020 C 
HETATM   18  C16 UNL     1      22.894  -0.861  54.572  1.00  0.00     0.056 C 
HETATM   19  C15 UNL     1      22.856   0.130  53.496  1.00  0.00     0.006 C 
BRANCH  15  20
HETATM   20  O1  UNL     1      18.458  -0.853  53.402  1.00  0.00    -0.356 OA
HETATM   21  C1  UNL     1      17.928  -2.124  53.543  1.00  0.00     0.210 C 
ENDBRANCH  15  20
ENDBRANCH  11  13
ENDBRANCH   1  11
BRANCH   8  22
HETATM   22  O3  UNL     1      27.353   2.626  51.333  1.00  0.00    -0.353 OA
HETATM   23  C12 UNL     1      27.367   2.063  52.649  1.00  0.00     0.210 C 
ENDBRANCH   8  22
BRANCH   7  24
HETATM   24  O2  UNL     1      27.575   4.388  49.397  1.00  0.00    -0.353 OA
HETATM   25  C10 UNL     1      27.869   5.415  48.498  1.00  0.00     0.210 C 
ENDBRANCH   7  24
TORSDOF 5
ENDMDL
MODEL 7
REMARK VINA RESULT:      -7.3      1.365      2.419
REMARK  5 active torsions:
REMARK  status: ('A' for Active; 'I' for Inactive)
REMARK    1  A    between atoms: O1_2  and  C2_3 
REMARK    2  A    between atoms: C4_5  and  N1_6 
REMARK    3  A    between atoms: N1_6  and  C5_7 
REMARK    4  A    between atoms: C9_13  and  O2_14 
REMARK    5  A    between atoms: C11_16  and  O3_17 
ROOT
HETATM    1  C5  UNL     1      23.132  -0.367  53.764  1.00  0.00     0.142 A 
HETATM    2  N2  UNL     1      22.695  -1.129  54.805  1.00  0.00    -0.224 NA
HETATM    3  C6  UNL     1      23.614  -1.557  55.707  1.00  0.00     0.236 A 
HETATM    4  N3  UNL     1      24.909  -1.267  55.609  1.00  0.00    -0.241 NA
HETATM    5  C7  UNL     1      25.382  -0.510  54.581  1.00  0.00     0.075 A 
HETATM    6  C8  UNL     1      26.736  -0.206  54.453  1.00  0.00     0.072 A 
HETATM    7  C9  UNL     1      27.146   0.554  53.373  1.00  0.00     0.103 A 
HETATM    8  C11 UNL     1      26.212   1.006  52.428  1.00  0.00     0.102 A 
HETATM    9  C13 UNL     1      24.900   0.662  52.629  1.00  0.00     0.057 A 
HETATM   10  C14 UNL     1      24.453  -0.087  53.688  1.00  0.00     0.042 A 
ENDROOT
BRANCH   1  11
HETATM   11  N1  UNL     1      22.111   0.031  52.935  1.00  0.00    -0.340 N 
HETATM   12  H5  UNL     1      22.000   0.988  53.384  1.00  0.00     0.167 HD
BRANCH  11  13
HETATM   13  C4  UNL     1      21.077   0.429  52.092  1.00  0.00     0.032 C 
HETATM   14  C3  UNL     1      21.542   1.357  51.020  1.00  0.00     0.065 C 
HETATM   15  C2  UNL     1      21.000   1.801  49.884  1.00  0.00     0.070 C 
HETATM   16  C18 UNL     1      19.654   1.363  49.488  1.00  0.00     0.033 C 
HETATM   17  C17 UNL     1      18.666   0.733  50.147  1.00  0.00    -0.020 C 
HETATM   18  C16 UNL     1      18.555   0.232  51.534  1.00  0.00     0.056 C 
HETATM   19  C15 UNL     1      19.833   0.028  52.217  1.00  0.00     0.006 C 
BRANCH  15  20
HETATM   20  O1  UNL     1      21.457   2.644  48.925  1.00  0.00    -0.356 OA
HETATM   21  C1  UNL     1      22.667   2.481  48.273  1.00  0.00     0.210 C 
ENDBRANCH  15  20
ENDBRANCH  11  13
ENDBRANCH   1  11
BRANCH   8  22
HETATM   22  O3  UNL     1      26.792   1.751  51.415  1.00  0.00    -0.353 OA
HETATM   23  C12 UNL     1      26.070   2.844  50.836  1.00  0.00     0.210 C 
ENDBRANCH   8  22
BRANCH   7  24
HETATM   24  O2  UNL     1      28.486   0.872  53.221  1.00  0.00    -0.353 OA
HETATM   25  C10 UNL     1      29.315   1.409  54.207  1.00  0.00     0.210 C 
ENDBRANCH   7  24
TORSDOF 5
ENDMDL
MODEL 8
REMARK VINA RESULT:      -7.1      2.951      7.886
REMARK  5 active torsions:
REMARK  status: ('A' for Active; 'I' for Inactive)
REMARK    1  A    between atoms: O1_2  and  C2_3 
REMARK    2  A    between atoms: C4_5  and  N1_6 
REMARK    3  A    between atoms: N1_6  and  C5_7 
REMARK    4  A    between atoms: C9_13  and  O2_14 
REMARK    5  A    between atoms: C11_16  and  O3_17 
ROOT
HETATM    1  C5  UNL     1      25.036   3.062  51.481  1.00  0.00     0.142 A 
HETATM    2  N2  UNL     1      25.498   3.988  50.594  1.00  0.00    -0.224 NA
HETATM    3  C6  UNL     1      24.584   4.712  49.901  1.00  0.00     0.236 A 
HETATM    4  N3  UNL     1      23.272   4.550  50.051  1.00  0.00    -0.241 NA
HETATM    5  C7  UNL     1      22.775   3.634  50.926  1.00  0.00     0.075 A 
HETATM    6  C8  UNL     1      21.404   3.441  51.089  1.00  0.00     0.072 A 
HETATM    7  C9  UNL     1      20.972   2.481  51.984  1.00  0.00     0.103 A 
HETATM    8  C11 UNL     1      21.900   1.718  52.711  1.00  0.00     0.102 A 
HETATM    9  C13 UNL     1      23.229   1.973  52.491  1.00  0.00     0.057 A 
HETATM   10  C14 UNL     1      23.698   2.919  51.614  1.00  0.00     0.042 A 
ENDROOT
BRANCH   1  11
HETATM   11  N1  UNL     1      26.050   2.413  52.143  1.00  0.00    -0.340 N 
HETATM   12  H5  UNL     1      26.386   1.878  51.288  1.00  0.00     0.167 HD
BRANCH  11  13
HETATM   13  C4  UNL     1      27.074   1.757  52.820  1.00  0.00     0.032 C 
HETATM   14  C3  UNL     1      26.914   0.274  52.797  1.00  0.00     0.065 C 
HETATM   15  C2  UNL     1      27.724  -0.746  53.087  1.00  0.00     0.070 C 
HETATM   16  C18 UNL     1      29.096  -0.492  53.547  1.00  0.00     0.033 C 
HETATM   17  C17 UNL     1      29.725   0.613  53.983  1.00  0.00    -0.020 C 
HETATM   18  C16 UNL     1      29.274   2.009  54.166  1.00  0.00     0.056 C 
HETATM   19  C15 UNL     1      28.076   2.371  53.408  1.00  0.00     0.006 C 
BRANCH  15  20
HETATM   20  O1  UNL     1      27.545  -2.091  53.048  1.00  0.00    -0.356 OA
HETATM   21  C1  UNL     1      28.586  -3.003  53.059  1.00  0.00     0.210 C 
ENDBRANCH  15  20
ENDBRANCH  11  13
ENDBRANCH   1  11
BRANCH   8  22
HETATM   22  O3  UNL     1      21.297   0.806  53.560  1.00  0.00    -0.353 OA
HETATM   23  C12 UNL     1      22.028  -0.343  54.001  1.00  0.00     0.210 C 
ENDBRANCH   8  22
BRANCH   7  24
HETATM   24  O2  UNL     1      19.615   2.267  52.167  1.00  0.00    -0.353 OA
HETATM   25  C10 UNL     1      18.585   2.980  51.550  1.00  0.00     0.210 C 
ENDBRANCH   7  24
TORSDOF 5
ENDMDL
MODEL 9
REMARK VINA RESULT:      -7.0      4.488      8.016
REMARK  5 active torsions:
REMARK  status: ('A' for Active; 'I' for Inactive)
REMARK    1  A    between atoms: O1_2  and  C2_3 
REMARK    2  A    between atoms: C4_5  and  N1_6 
REMARK    3  A    between atoms: N1_6  and  C5_7 
REMARK    4  A    between atoms: C9_13  and  O2_14 
REMARK    5  A    between atoms: C11_16  and  O3_17 
ROOT
HETATM    1  C5  UNL     1      26.115   3.980  50.036  1.00  0.00     0.142 A 
HETATM    2  N2  UNL     1      27.296   3.825  49.377  1.00  0.00    -0.224 NA
HETATM    3  C6  UNL     1      27.739   4.858  48.618  1.00  0.00     0.236 A 
HETATM    4  N3  UNL     1      27.067   6.000  48.493  1.00  0.00    -0.241 NA
HETATM    5  C7  UNL     1      25.882   6.189  49.135  1.00  0.00     0.075 A 
HETATM    6  C8  UNL     1      25.157   7.373  49.007  1.00  0.00     0.072 A 
HETATM    7  C9  UNL     1      23.953   7.488  49.676  1.00  0.00     0.103 A 
HETATM    8  C11 UNL     1      23.475   6.430  50.466  1.00  0.00     0.102 A 
HETATM    9  C13 UNL     1      24.251   5.302  50.538  1.00  0.00     0.057 A 
HETATM   10  C14 UNL     1      25.452   5.150  49.892  1.00  0.00     0.042 A 
ENDROOT
BRANCH   1  11
HETATM   11  N1  UNL     1      25.783   2.882  50.794  1.00  0.00    -0.340 N 
HETATM   12  H5  UNL     1      25.730   3.419  51.709  1.00  0.00     0.167 HD
BRANCH  11  13
HETATM   13  C4  UNL     1      25.448   1.766  51.555  1.00  0.00     0.032 C 
HETATM   14  C3  UNL     1      26.625   0.892  51.834  1.00  0.00     0.065 C 
HETATM   15  C2  UNL     1      26.847  -0.115  52.681  1.00  0.00     0.070 C 
HETATM   16  C18 UNL     1      25.781  -0.566  53.586  1.00  0.00     0.033 C 
HETATM   17  C17 UNL     1      24.459  -0.330  53.633  1.00  0.00    -0.020 C 
HETATM   18  C16 UNL     1      23.562   0.483  52.784  1.00  0.00     0.056 C 
HETATM   19  C15 UNL     1      24.234   1.511  51.989  1.00  0.00     0.006 C 
BRANCH  15  20
HETATM   20  O1  UNL     1      27.938  -0.886  52.913  1.00  0.00    -0.356 OA
HETATM   21  C1  UNL     1      29.040  -0.459  53.633  1.00  0.00     0.210 C 
ENDBRANCH  15  20
ENDBRANCH  11  13
ENDBRANCH   1  11
BRANCH   8  22
HETATM   22  O3  UNL     1      22.258   6.714  51.063  1.00  0.00    -0.353 OA
HETATM   23  C12 UNL     1      21.102   5.945  50.714  1.00  0.00     0.210 C 
ENDBRANCH   8  22
BRANCH   7  24
HETATM   24  O2  UNL     1      23.211   8.653  49.568  1.00  0.00    -0.353 OA
HETATM   25  C10 UNL     1      22.565   9.106  48.416  1.00  0.00     0.210 C 
ENDBRANCH   7  24
TORSDOF 5
ENDMDL
