MODEL 1
REMARK VINA RESULT:      -8.4      0.000      0.000
REMARK  5 active torsions:
REMARK  status: ('A' for Active; 'I' for Inactive)
REMARK    1  A    between atoms: C5_6  and  C6_7 
REMARK    2  A    between atoms: C6_7  and  C7_8 
REMARK    3  A    between atoms: C8_9  and  C9_10 
REMARK    4  A    between atoms: C9_10  and  N1_11 
REMARK    5  A    between atoms: N1_11  and  C10_12 
ROOT
HETATM    1  N1  UNL     1      26.599   3.144  51.706  1.00  0.00    -0.221 N 
HETATM    2  H11 UNL     1      26.250   3.995  52.244  1.00  0.00     0.178 HD
ENDROOT
BRANCH   1   3
HETATM    3  C9  UNL     1      26.361   2.988  50.288  1.00  0.00     0.165 C 
BRANCH   3   4
HETATM    4  C8  UNL     1      25.230   3.773  49.796  1.00  0.00    -0.011 C 
HETATM    5  C7  UNL     1      23.957   3.474  49.601  1.00  0.00    -0.028 C 
BRANCH   5   6
HETATM    6  C6  UNL     1      23.324   2.173  49.850  1.00  0.00     0.039 C 
BRANCH   6   7
HETATM    7  C5  UNL     1      22.495   2.158  51.117  1.00  0.00     0.034 C 
HETATM    8  C4  UNL     1      21.301   1.338  50.838  1.00  0.00    -0.018 C 
HETATM    9  C3  UNL     1      20.583   0.381  51.404  1.00  0.00    -0.002 C 
HETATM   10  C2  UNL     1      20.886  -0.205  52.724  1.00  0.00     0.023 C 
HETATM   11  C1  UNL     1      21.961  -0.034  53.470  1.00  0.00     0.033 C 
HETATM   12 CL1  UNL     1      21.886  -0.931  54.967  1.00  0.00    -0.084 Cl
HETATM   13  C19 UNL     1      23.122   0.778  53.176  1.00  0.00     0.020 C 
HETATM   14  C18 UNL     1      23.331   1.666  52.218  1.00  0.00    -0.016 C 
ENDBRANCH   6   7
ENDBRANCH   5   6
ENDBRANCH   3   4
ENDBRANCH   1   3
BRANCH   1  15
HETATM   15  C10 UNL     1      27.308   2.190  52.497  1.00  0.00     0.700 C 
HETATM   16  N2  UNL     1      28.369   2.661  53.077  1.00  0.00    -0.077 NA
HETATM   17  C11 UNL     1      29.261   1.942  53.918  1.00  0.00     0.139 C 
HETATM   18  C12 UNL     1      29.412   0.631  54.148  1.00  0.00     0.054 C 
HETATM   19  C13 UNL     1      28.624  -0.439  53.528  1.00  0.00     0.085 A 
HETATM   20  N3  UNL     1      29.141  -1.685  53.689  1.00  0.00    -0.259 NA
HETATM   21  C17 UNL     1      27.457  -0.337  52.822  1.00  0.00     0.078 A 
HETATM   22  C14 UNL     1      28.521  -2.760  53.170  1.00  0.00     0.117 A 
HETATM   23  C15 UNL     1      27.333  -2.675  52.449  1.00  0.00     0.022 A 
HETATM   24  C16 UNL     1      26.785  -1.422  52.270  1.00  0.00     0.034 A 
HETATM   25  N4  UNL     1      26.756   0.864  52.539  1.00  0.00    -0.188 N 
HETATM   26  H17 UNL     1      25.721   0.805  52.337  1.00  0.00     0.184 HD
ENDBRANCH   1  15
TORSDOF 5
ENDMDL
MODEL 2
REMARK VINA RESULT:      -8.4      3.006      6.693
REMARK  5 active torsions:
REMARK  status: ('A' for Active; 'I' for Inactive)
REMARK    1  A    between atoms: C5_6  and  C6_7 
REMARK    2  A    between atoms: C6_7  and  C7_8 
REMARK    3  A    between atoms: C8_9  and  C9_10 
REMARK    4  A    between atoms: C9_10  and  N1_11 
REMARK    5  A    between atoms: N1_11  and  C10_12 
ROOT
HETATM    1  N1  UNL     1      22.641   3.688  51.221  1.00  0.00    -0.221 N 
HETATM    2  H11 UNL     1      21.791   3.954  51.807  1.00  0.00     0.178 HD
ENDROOT
BRANCH   1   3
HETATM    3  C9  UNL     1      22.836   2.341  50.730  1.00  0.00     0.165 C 
BRANCH   3   4
HETATM    4  C8  UNL     1      22.848   1.331  51.785  1.00  0.00    -0.011 C 
HETATM    5  C7  UNL     1      23.669   1.112  52.798  1.00  0.00    -0.028 C 
BRANCH   5   6
HETATM    6  C6  UNL     1      24.866   1.894  53.130  1.00  0.00     0.039 C 
BRANCH   6   7
HETATM    7  C5  UNL     1      26.112   1.381  52.440  1.00  0.00     0.034 C 
HETATM    8  C4  UNL     1      27.258   2.088  53.043  1.00  0.00    -0.018 C 
HETATM    9  C3  UNL     1      28.471   1.826  53.505  1.00  0.00    -0.002 C 
HETATM   10  C2  UNL     1      29.073   0.480  53.522  1.00  0.00     0.023 C 
HETATM   11  C1  UNL     1      28.497  -0.680  53.270  1.00  0.00     0.033 C 
HETATM   12 CL1  UNL     1      29.605  -2.022  53.411  1.00  0.00    -0.084 Cl
HETATM   13  C19 UNL     1      27.117  -0.922  52.909  1.00  0.00     0.020 C 
HETATM   14  C18 UNL     1      26.154  -0.079  52.574  1.00  0.00    -0.016 C 
ENDBRANCH   6   7
ENDBRANCH   5   6
ENDBRANCH   3   4
ENDBRANCH   1   3
BRANCH   1  15
HETATM   15  C10 UNL     1      23.551   4.760  50.971  1.00  0.00     0.700 C 
HETATM   16  N2  UNL     1      23.030   5.942  51.091  1.00  0.00    -0.077 NA
HETATM   17  C11 UNL     1      23.696   7.182  50.902  1.00  0.00     0.139 C 
HETATM   18  C12 UNL     1      24.879   7.485  50.351  1.00  0.00     0.054 C 
HETATM   19  C13 UNL     1      25.824   6.523  49.774  1.00  0.00     0.085 A 
HETATM   20  N3  UNL     1      26.809   7.081  49.025  1.00  0.00    -0.259 NA
HETATM   21  C17 UNL     1      25.831   5.161  49.896  1.00  0.00     0.078 A 
HETATM   22  C14 UNL     1      27.744   6.314  48.435  1.00  0.00     0.117 A 
HETATM   23  C15 UNL     1      27.766   4.925  48.548  1.00  0.00     0.022 A 
HETATM   24  C16 UNL     1      26.777   4.332  49.304  1.00  0.00     0.034 A 
HETATM   25  N4  UNL     1      24.895   4.384  50.628  1.00  0.00    -0.188 N 
HETATM   26  H17 UNL     1      25.192   3.429  50.967  1.00  0.00     0.184 HD
ENDBRANCH   1  15
TORSDOF 5
ENDMDL
MODEL 3
REMARK VINA RESULT:      -8.3      3.943      6.319
REMARK  5 active torsions:
REMARK  status: ('A' for Active; 'I' for Inactive)
REMARK    1  A    between atoms: C5_6  and  C6_7 
REMARK    2  A    between atoms: C6_7  and  C7_8 
REMARK    3  A    between atoms: C8_9  and  C9_10 
REMARK    4  A    between atoms: C9_10  and  N1_11 
REMARK    5  A    between atoms: N1_11  and  C10_12 
ROOT
HETATM    1  N1  UNL     1      24.107   3.779  52.910  1.00  0.00    -0.221 N 
HETATM    2  H11 UNL     1      23.724   4.181  53.820  1.00  0.00     0.178 HD
ENDROOT
BRANCH   1   3
HETATM    3  C9  UNL     1      23.981   4.484  51.653  1.00  0.00     0.165 C 
BRANCH   3   4
HETATM    4  C8  UNL     1      24.148   3.625  50.483  1.00  0.00    -0.011 C 
HETATM    5  C7  UNL     1      25.175   3.402  49.681  1.00  0.00    -0.028 C 
BRANCH   5   6
HETATM    6  C6  UNL     1      26.503   4.018  49.781  1.00  0.00     0.039 C 
BRANCH   6   7
HETATM    7  C5  UNL     1      26.731   5.093  48.741  1.00  0.00     0.034 C 
HETATM    8  C4  UNL     1      26.201   6.351  49.301  1.00  0.00    -0.018 C 
HETATM    9  C3  UNL     1      26.546   7.624  49.417  1.00  0.00    -0.002 C 
HETATM   10  C2  UNL     1      27.807   8.187  48.900  1.00  0.00     0.023 C 
HETATM   11  C1  UNL     1      28.854   7.545  48.417  1.00  0.00     0.033 C 
HETATM   12 CL1  UNL     1      30.131   8.628  47.920  1.00  0.00    -0.084 Cl
HETATM   13  C19 UNL     1      29.027   6.116  48.271  1.00  0.00     0.020 C 
HETATM   14  C18 UNL     1      28.159   5.127  48.405  1.00  0.00    -0.016 C 
ENDBRANCH   6   7
ENDBRANCH   5   6
ENDBRANCH   3   4
ENDBRANCH   1   3
BRANCH   1  15
HETATM   15  C10 UNL     1      24.741   2.506  53.042  1.00  0.00     0.700 C 
HETATM   16  N2  UNL     1      23.919   1.513  53.194  1.00  0.00    -0.077 NA
HETATM   17  C11 UNL     1      24.268   0.145  53.348  1.00  0.00     0.139 C 
HETATM   18  C12 UNL     1      25.436  -0.455  53.612  1.00  0.00     0.054 C 
HETATM   19  C13 UNL     1      26.718   0.227  53.818  1.00  0.00     0.085 A 
HETATM   20  N3  UNL     1      27.693  -0.554  54.352  1.00  0.00    -0.259 NA
HETATM   21  C17 UNL     1      27.044   1.526  53.543  1.00  0.00     0.078 A 
HETATM   22  C14 UNL     1      28.918  -0.056  54.594  1.00  0.00     0.117 A 
HETATM   23  C15 UNL     1      29.268   1.264  54.321  1.00  0.00     0.022 A 
HETATM   24  C16 UNL     1      28.297   2.080  53.779  1.00  0.00     0.034 A 
HETATM   25  N4  UNL     1      26.177   2.504  52.989  1.00  0.00    -0.188 N 
HETATM   26  H17 UNL     1      26.606   3.323  52.479  1.00  0.00     0.184 HD
ENDBRANCH   1  15
TORSDOF 5
ENDMDL
MODEL 4
REMARK VINA RESULT:      -8.3      3.420      5.759
REMARK  5 active torsions:
REMARK  status: ('A' for Active; 'I' for Inactive)
REMARK    1  A    between atoms: C5_6  and  C6_7 
REMARK    2  A    between atoms: C6_7  and  C7_8 
REMARK    3  A    between atoms: C8_9  and  C9_10 
REMARK    4  A    between atoms: C9_10  and  N1_11 
REMARK    5  A    between atoms: N1_11  and  C10_12 
ROOT
HETATM    1  N1  UNL     1      23.794   3.427  52.407  1.00  0.00    -0.221 N 
HETATM    2  H11 UNL     1      24.104   4.321  52.897  1.00  0.00     0.178 HD
ENDROOT
BRANCH   1   3
HETATM    3  C9  UNL     1      22.718   3.422  51.440  1.00  0.00     0.165 C 
BRANCH   3   4
HETATM    4  C8  UNL     1      23.106   2.886  50.138  1.00  0.00    -0.011 C 
HETATM    5  C7  UNL     1      23.495   3.467  49.016  1.00  0.00    -0.028 C 
BRANCH   5   6
HETATM    6  C6  UNL     1      23.638   4.911  48.791  1.00  0.00     0.039 C 
BRANCH   6   7
HETATM    7  C5  UNL     1      24.922   5.469  49.368  1.00  0.00     0.034 C 
HETATM    8  C4  UNL     1      25.898   4.363  49.391  1.00  0.00    -0.018 C 
HETATM    9  C3  UNL     1      27.166   4.135  49.089  1.00  0.00    -0.002 C 
HETATM   10  C2  UNL     1      28.080   5.157  48.545  1.00  0.00     0.023 C 
HETATM   11  C1  UNL     1      27.790   6.367  48.108  1.00  0.00     0.033 C 
HETATM   12 CL1  UNL     1      29.201   7.233  47.551  1.00  0.00    -0.084 Cl
HETATM   13  C19 UNL     1      26.490   7.001  48.053  1.00  0.00     0.020 C 
HETATM   14  C18 UNL     1      25.330   6.629  48.567  1.00  0.00    -0.016 C 
ENDBRANCH   6   7
ENDBRANCH   5   6
ENDBRANCH   3   4
ENDBRANCH   1   3
BRANCH   1  15
HETATM   15  C10 UNL     1      24.522   2.258  52.785  1.00  0.00     0.700 C 
HETATM   16  N2  UNL     1      23.777   1.263  53.159  1.00  0.00    -0.077 NA
HETATM   17  C11 UNL     1      24.227  -0.015  53.586  1.00  0.00     0.139 C 
HETATM   18  C12 UNL     1      25.438  -0.463  53.941  1.00  0.00     0.054 C 
HETATM   19  C13 UNL     1      26.668   0.336  53.969  1.00  0.00     0.085 A 
HETATM   20  N3  UNL     1      27.703  -0.246  54.631  1.00  0.00    -0.259 NA
HETATM   21  C17 UNL     1      26.895   1.569  53.423  1.00  0.00     0.078 A 
HETATM   22  C14 UNL     1      28.890   0.377  54.735  1.00  0.00     0.117 A 
HETATM   23  C15 UNL     1      29.138   1.633  54.186  1.00  0.00     0.022 A 
HETATM   24  C16 UNL     1      28.105   2.247  53.509  1.00  0.00     0.034 A 
HETATM   25  N4  UNL     1      25.953   2.346  52.699  1.00  0.00    -0.188 N 
HETATM   26  H17 UNL     1      26.316   3.069  52.020  1.00  0.00     0.184 HD
ENDBRANCH   1  15
TORSDOF 5
ENDMDL
MODEL 5
REMARK VINA RESULT:      -8.3      4.667      7.279
REMARK  5 active torsions:
REMARK  status: ('A' for Active; 'I' for Inactive)
REMARK    1  A    between atoms: C5_6  and  C6_7 
REMARK    2  A    between atoms: C6_7  and  C7_8 
REMARK    3  A    between atoms: C8_9  and  C9_10 
REMARK    4  A    between atoms: C9_10  and  N1_11 
REMARK    5  A    between atoms: N1_11  and  C10_12 
ROOT
HETATM    1  N1  UNL     1      24.882   3.971  51.445  1.00  0.00    -0.221 N 
HETATM    2  H11 UNL     1      24.469   4.639  52.165  1.00  0.00     0.178 HD
ENDROOT
BRANCH   1   3
HETATM    3  C9  UNL     1      25.005   4.335  50.050  1.00  0.00     0.165 C 
BRANCH   3   4
HETATM    4  C8  UNL     1      26.304   3.998  49.472  1.00  0.00    -0.011 C 
HETATM    5  C7  UNL     1      27.211   4.722  48.838  1.00  0.00    -0.028 C 
BRANCH   5   6
HETATM    6  C6  UNL     1      27.121   6.155  48.537  1.00  0.00     0.039 C 
BRANCH   6   7
HETATM    7  C5  UNL     1      28.364   6.691  47.858  1.00  0.00     0.034 C 
HETATM    8  C4  UNL     1      28.661   7.997  48.476  1.00  0.00    -0.018 C 
HETATM    9  C3  UNL     1      29.696   8.673  48.948  1.00  0.00    -0.002 C 
HETATM   10  C2  UNL     1      31.078   8.159  48.967  1.00  0.00     0.023 C 
HETATM   11  C1  UNL     1      31.502   6.937  48.703  1.00  0.00     0.033 C 
HETATM   12 CL1  UNL     1      33.235   6.785  48.851  1.00  0.00    -0.084 Cl
HETATM   13  C19 UNL     1      30.708   5.787  48.328  1.00  0.00     0.020 C 
HETATM   14  C18 UNL     1      29.434   5.695  47.987  1.00  0.00    -0.016 C 
ENDBRANCH   6   7
ENDBRANCH   5   6
ENDBRANCH   3   4
ENDBRANCH   1   3
BRANCH   1  15
HETATM   15  C10 UNL     1      25.295   2.709  51.971  1.00  0.00     0.700 C 
HETATM   16  N2  UNL     1      24.330   1.855  52.128  1.00  0.00    -0.077 NA
HETATM   17  C11 UNL     1      24.447   0.532  52.630  1.00  0.00     0.139 C 
HETATM   18  C12 UNL     1      25.443  -0.097  53.269  1.00  0.00     0.054 C 
HETATM   19  C13 UNL     1      26.739   0.495  53.620  1.00  0.00     0.085 A 
HETATM   20  N3  UNL     1      27.467  -0.230  54.508  1.00  0.00    -0.259 NA
HETATM   21  C17 UNL     1      27.290   1.663  53.171  1.00  0.00     0.078 A 
HETATM   22  C14 UNL     1      28.675   0.196  54.918  1.00  0.00     0.117 A 
HETATM   23  C15 UNL     1      29.252   1.383  54.472  1.00  0.00     0.022 A 
HETATM   24  C16 UNL     1      28.533   2.140  53.570  1.00  0.00     0.034 A 
HETATM   25  N4  UNL     1      26.697   2.564  52.249  1.00  0.00    -0.188 N 
HETATM   26  H17 UNL     1      27.330   3.204  51.696  1.00  0.00     0.184 HD
ENDBRANCH   1  15
TORSDOF 5
ENDMDL
MODEL 6
REMARK VINA RESULT:      -8.3      1.940      2.627
REMARK  5 active torsions:
REMARK  status: ('A' for Active; 'I' for Inactive)
REMARK    1  A    between atoms: C5_6  and  C6_7 
REMARK    2  A    between atoms: C6_7  and  C7_8 
REMARK    3  A    between atoms: C8_9  and  C9_10 
REMARK    4  A    between atoms: C9_10  and  N1_11 
REMARK    5  A    between atoms: N1_11  and  C10_12 
ROOT
HETATM    1  N1  UNL     1      27.080   3.229  51.064  1.00  0.00    -0.221 N 
HETATM    2  H11 UNL     1      27.845   3.969  51.118  1.00  0.00     0.178 HD
ENDROOT
BRANCH   1   3
HETATM    3  C9  UNL     1      26.226   3.097  49.904  1.00  0.00     0.165 C 
BRANCH   3   4
HETATM    4  C8  UNL     1      25.443   4.297  49.618  1.00  0.00    -0.011 C 
HETATM    5  C7  UNL     1      24.177   4.474  49.279  1.00  0.00    -0.028 C 
BRANCH   5   6
HETATM    6  C6  UNL     1      23.173   3.419  49.092  1.00  0.00     0.039 C 
BRANCH   6   7
HETATM    7  C5  UNL     1      22.949   2.595  50.342  1.00  0.00     0.034 C 
HETATM    8  C4  UNL     1      22.237   3.459  51.303  1.00  0.00    -0.018 C 
HETATM    9  C3  UNL     1      21.215   3.400  52.142  1.00  0.00    -0.002 C 
HETATM   10  C2  UNL     1      20.383   2.199  52.345  1.00  0.00     0.023 C 
HETATM   11  C1  UNL     1      20.376   1.079  51.647  1.00  0.00     0.033 C 
HETATM   12 CL1  UNL     1      19.218  -0.079  52.254  1.00  0.00    -0.084 Cl
HETATM   13  C19 UNL     1      21.189   0.747  50.497  1.00  0.00     0.020 C 
HETATM   14  C18 UNL     1      22.232   1.369  49.973  1.00  0.00    -0.016 C 
ENDBRANCH   6   7
ENDBRANCH   5   6
ENDBRANCH   3   4
ENDBRANCH   1   3
BRANCH   1  15
HETATM   15  C10 UNL     1      26.978   2.395  52.219  1.00  0.00     0.700 C 
HETATM   16  N2  UNL     1      28.119   2.038  52.723  1.00  0.00    -0.077 NA
HETATM   17  C11 UNL     1      28.319   1.216  53.864  1.00  0.00     0.139 C 
HETATM   18  C12 UNL     1      27.484   0.427  54.553  1.00  0.00     0.054 C 
HETATM   19  C13 UNL     1      26.063   0.222  54.256  1.00  0.00     0.085 A 
HETATM   20  N3  UNL     1      25.497  -0.830  54.903  1.00  0.00    -0.259 NA
HETATM   21  C17 UNL     1      25.256   0.945  53.422  1.00  0.00     0.078 A 
HETATM   22  C14 UNL     1      24.200  -1.133  54.721  1.00  0.00     0.117 A 
HETATM   23  C15 UNL     1      23.363  -0.408  53.876  1.00  0.00     0.022 A 
HETATM   24  C16 UNL     1      23.911   0.665  53.206  1.00  0.00     0.034 A 
HETATM   25  N4  UNL     1      25.647   2.073  52.654  1.00  0.00    -0.188 N 
HETATM   26  H17 UNL     1      24.902   2.762  52.360  1.00  0.00     0.184 HD
ENDBRANCH   1  15
TORSDOF 5
ENDMDL
MODEL 7
REMARK VINA RESULT:      -7.9      2.185      3.500
REMARK  5 active torsions:
REMARK  status: ('A' for Active; 'I' for Inactive)
REMARK    1  A    between atoms: C5_6  and  C6_7 
REMARK    2  A    between atoms: C6_7  and  C7_8 
REMARK    3  A    between atoms: C8_9  and  C9_10 
REMARK    4  A    between atoms: C9_10  and  N1_11 
REMARK    5  A    between atoms: N1_11  and  C10_12 
ROOT
HETATM    1  N1  UNL     1      24.198   3.771  52.893  1.00  0.00    -0.221 N 
HETATM    2  H11 UNL     1      24.277   4.417  53.737  1.00  0.00     0.178 HD
ENDROOT
BRANCH   1   3
HETATM    3  C9  UNL     1      23.498   4.169  51.691  1.00  0.00     0.165 C 
BRANCH   3   4
HETATM    4  C8  UNL     1      22.058   3.924  51.747  1.00  0.00    -0.011 C 
HETATM    5  C7  UNL     1      21.285   3.025  51.162  1.00  0.00    -0.028 C 
BRANCH   5   6
HETATM    6  C6  UNL     1      21.724   1.973  50.238  1.00  0.00     0.039 C 
BRANCH   6   7
HETATM    7  C5  UNL     1      20.959   0.679  50.416  1.00  0.00     0.034 C 
HETATM    8  C4  UNL     1      21.195   0.229  51.801  1.00  0.00    -0.018 C 
HETATM    9  C3  UNL     1      20.518  -0.254  52.831  1.00  0.00    -0.002 C 
HETATM   10  C2  UNL     1      19.064  -0.500  52.818  1.00  0.00     0.023 C 
HETATM   11  C1  UNL     1      18.180  -0.142  51.907  1.00  0.00     0.033 C 
HETATM   12 CL1  UNL     1      16.559  -0.652  52.312  1.00  0.00    -0.084 Cl
HETATM   13  C19 UNL     1      18.418   0.588  50.681  1.00  0.00     0.020 C 
HETATM   14  C18 UNL     1      19.550   0.918  50.083  1.00  0.00    -0.016 C 
ENDBRANCH   6   7
ENDBRANCH   5   6
ENDBRANCH   3   4
ENDBRANCH   1   3
BRANCH   1  15
HETATM   15  C10 UNL     1      24.834   2.502  53.053  1.00  0.00     0.700 C 
HETATM   16  N2  UNL     1      24.015   1.518  53.263  1.00  0.00    -0.077 NA
HETATM   17  C11 UNL     1      24.365   0.155  53.458  1.00  0.00     0.139 C 
HETATM   18  C12 UNL     1      25.539  -0.439  53.711  1.00  0.00     0.054 C 
HETATM   19  C13 UNL     1      26.827   0.247  53.857  1.00  0.00     0.085 A 
HETATM   20  N3  UNL     1      27.815  -0.517  54.392  1.00  0.00    -0.259 NA
HETATM   21  C17 UNL     1      27.147   1.535  53.526  1.00  0.00     0.078 A 
HETATM   22  C14 UNL     1      29.047  -0.014  54.582  1.00  0.00     0.117 A 
HETATM   23  C15 UNL     1      29.391   1.295  54.253  1.00  0.00     0.022 A 
HETATM   24  C16 UNL     1      28.408   2.093  53.707  1.00  0.00     0.034 A 
HETATM   25  N4  UNL     1      26.268   2.494  52.961  1.00  0.00    -0.188 N 
HETATM   26  H17 UNL     1      26.684   3.293  52.410  1.00  0.00     0.184 HD
ENDBRANCH   1  15
TORSDOF 5
ENDMDL
MODEL 8
REMARK VINA RESULT:      -7.9      1.799      2.906
REMARK  5 active torsions:
REMARK  status: ('A' for Active; 'I' for Inactive)
REMARK    1  A    between atoms: C5_6  and  C6_7 
REMARK    2  A    between atoms: C6_7  and  C7_8 
REMARK    3  A    between atoms: C8_9  and  C9_10 
REMARK    4  A    between atoms: C9_10  and  N1_11 
REMARK    5  A    between atoms: N1_11  and  C10_12 
ROOT
HETATM    1  N1  UNL     1      24.222   3.804  52.301  1.00  0.00    -0.221 N 
HETATM    2  H11 UNL     1      23.578   4.218  53.043  1.00  0.00     0.178 HD
ENDROOT
BRANCH   1   3
HETATM    3  C9  UNL     1      24.450   4.464  51.034  1.00  0.00     0.165 C 
BRANCH   3   4
HETATM    4  C8  UNL     1      24.145   3.626  49.877  1.00  0.00    -0.011 C 
HETATM    5  C7  UNL     1      23.038   3.443  49.178  1.00  0.00    -0.028 C 
BRANCH   5   6
HETATM    6  C6  UNL     1      21.742   4.089  49.421  1.00  0.00     0.039 C 
BRANCH   6   7
HETATM    7  C5  UNL     1      20.718   3.144  50.013  1.00  0.00     0.034 C 
HETATM    8  C4  UNL     1      21.137   1.777  49.651  1.00  0.00    -0.018 C 
HETATM    9  C3  UNL     1      21.265   0.583  50.210  1.00  0.00    -0.002 C 
HETATM   10  C2  UNL     1      20.950   0.297  51.622  1.00  0.00     0.023 C 
HETATM   11  C1  UNL     1      20.673   1.149  52.590  1.00  0.00     0.033 C 
HETATM   12 CL1  UNL     1      20.361   0.354  54.114  1.00  0.00    -0.084 Cl
HETATM   13  C19 UNL     1      20.608   2.593  52.507  1.00  0.00     0.020 C 
HETATM   14  C18 UNL     1      20.628   3.395  51.456  1.00  0.00    -0.016 C 
ENDBRANCH   6   7
ENDBRANCH   5   6
ENDBRANCH   3   4
ENDBRANCH   1   3
BRANCH   1  15
HETATM   15  C10 UNL     1      24.827   2.562  52.665  1.00  0.00     0.700 C 
HETATM   16  N2  UNL     1      23.981   1.620  52.951  1.00  0.00    -0.077 NA
HETATM   17  C11 UNL     1      24.297   0.292  53.343  1.00  0.00     0.139 C 
HETATM   18  C12 UNL     1      25.443  -0.273  53.744  1.00  0.00     0.054 C 
HETATM   19  C13 UNL     1      26.732   0.416  53.878  1.00  0.00     0.085 A 
HETATM   20  N3  UNL     1      27.673  -0.279  54.568  1.00  0.00    -0.259 NA
HETATM   21  C17 UNL     1      27.092   1.646  53.403  1.00  0.00     0.078 A 
HETATM   22  C14 UNL     1      28.900   0.235  54.767  1.00  0.00     0.117 A 
HETATM   23  C15 UNL     1      29.284   1.487  54.291  1.00  0.00     0.022 A 
HETATM   24  C16 UNL     1      28.348   2.214  53.586  1.00  0.00     0.034 A 
HETATM   25  N4  UNL     1      26.263   2.530  52.663  1.00  0.00    -0.188 N 
HETATM   26  H17 UNL     1      26.725   3.247  52.040  1.00  0.00     0.184 HD
ENDBRANCH   1  15
TORSDOF 5
ENDMDL
MODEL 9
REMARK VINA RESULT:      -7.6      4.379      6.730
REMARK  5 active torsions:
REMARK  status: ('A' for Active; 'I' for Inactive)
REMARK    1  A    between atoms: C5_6  and  C6_7 
REMARK    2  A    between atoms: C6_7  and  C7_8 
REMARK    3  A    between atoms: C8_9  and  C9_10 
REMARK    4  A    between atoms: C9_10  and  N1_11 
REMARK    5  A    between atoms: N1_11  and  C10_12 
ROOT
HETATM    1  N1  UNL     1      27.031   3.222  51.167  1.00  0.00    -0.221 N 
HETATM    2  H11 UNL     1      27.592   4.116  51.317  1.00  0.00     0.178 HD
ENDROOT
BRANCH   1   3
HETATM    3  C9  UNL     1      26.398   2.921  49.902  1.00  0.00     0.165 C 
BRANCH   3   4
HETATM    4  C8  UNL     1      25.265   3.792  49.595  1.00  0.00    -0.011 C 
HETATM    5  C7  UNL     1      25.175   5.093  49.381  1.00  0.00    -0.028 C 
BRANCH   5   6
HETATM    6  C6  UNL     1      26.283   6.055  49.406  1.00  0.00     0.039 C 
BRANCH   6   7
HETATM    7  C5  UNL     1      27.100   6.041  48.132  1.00  0.00     0.034 C 
HETATM    8  C4  UNL     1      27.181   7.436  47.659  1.00  0.00    -0.018 C 
HETATM    9  C3  UNL     1      28.076   8.287  47.183  1.00  0.00    -0.002 C 
HETATM   10  C2  UNL     1      29.499   7.955  46.977  1.00  0.00     0.023 C 
HETATM   11  C1  UNL     1      30.156   6.881  47.369  1.00  0.00     0.033 C 
HETATM   12 CL1  UNL     1      31.838   6.916  46.900  1.00  0.00    -0.084 Cl
HETATM   13  C19 UNL     1      29.640   5.748  48.107  1.00  0.00     0.020 C 
HETATM   14  C18 UNL     1      28.397   5.415  48.413  1.00  0.00    -0.016 C 
ENDBRANCH   6   7
ENDBRANCH   5   6
ENDBRANCH   3   4
ENDBRANCH   1   3
BRANCH   1  15
HETATM   15  C10 UNL     1      26.962   2.365  52.308  1.00  0.00     0.700 C 
HETATM   16  N2  UNL     1      28.117   2.015  52.784  1.00  0.00    -0.077 NA
HETATM   17  C11 UNL     1      28.349   1.175  53.905  1.00  0.00     0.139 C 
HETATM   18  C12 UNL     1      27.539   0.361  54.595  1.00  0.00     0.054 C 
HETATM   19  C13 UNL     1      26.115   0.141  54.319  1.00  0.00     0.085 A 
HETATM   20  N3  UNL     1      25.577  -0.931  54.956  1.00  0.00    -0.259 NA
HETATM   21  C17 UNL     1      25.283   0.868  53.514  1.00  0.00     0.078 A 
HETATM   22  C14 UNL     1      24.280  -1.249  54.793  1.00  0.00     0.117 A 
HETATM   23  C15 UNL     1      23.418  -0.520  53.977  1.00  0.00     0.022 A 
HETATM   24  C16 UNL     1      23.938   0.573  53.317  1.00  0.00     0.034 A 
HETATM   25  N4  UNL     1      25.643   2.016  52.761  1.00  0.00    -0.188 N 
HETATM   26  H17 UNL     1      24.884   2.699  52.494  1.00  0.00     0.184 HD
ENDBRANCH   1  15
TORSDOF 5
ENDMDL
