MODEL 1
REMARK VINA RESULT:      -8.8      0.000      0.000
REMARK  6 active torsions:
REMARK  status: ('A' for Active; 'I' for Inactive)
REMARK    1  A    between atoms: O1_2  and  C2_3 
REMARK    2  A    between atoms: C7_8  and  O2_9 
REMARK    3  A    between atoms: C9_11  and  O3_12 
REMARK    4  A    between atoms: O3_12  and  C10_13 
REMARK    5  A    between atoms: C13_16  and  N1_17 
REMARK       I    between atoms: N1_17  and  C14_18 
REMARK       I    between atoms: C14_18  and  N2_20 
REMARK    6  A    between atoms: N2_20  and  C15_21 
ROOT
HETATM    1  C10 UNL     1      27.094   5.987  48.598  1.00  0.00     0.078 A 
HETATM    2  C11 UNL     1      26.101   6.684  49.252  1.00  0.00     0.039 A 
HETATM    3  C12 UNL     1      25.234   6.090  50.146  1.00  0.00     0.032 A 
HETATM    4  C13 UNL     1      25.349   4.750  50.410  1.00  0.00     0.036 A 
HETATM    5  C21 UNL     1      26.322   4.001  49.786  1.00  0.00     0.032 A 
HETATM    6  C22 UNL     1      27.172   4.625  48.898  1.00  0.00     0.039 A 
ENDROOT
BRANCH   1   7
HETATM    7  O3  UNL     1      27.999   6.517  47.689  1.00  0.00    -0.291 OA
BRANCH   7   8
HETATM    8  C9  UNL     1      29.096   7.193  48.202  1.00  0.00     0.181 A 
HETATM    9  C5  UNL     1      30.273   6.627  48.284  1.00  0.00     0.033 A 
HETATM   10  C4  UNL     1      31.135   7.555  48.830  1.00  0.00     0.013 A 
HETATM   11  C6  UNL     1      30.791   5.412  47.970  1.00  0.00     0.056 A 
HETATM   12  C3  UNL     1      32.463   7.268  49.051  1.00  0.00     0.054 A 
HETATM   13  C23 UNL     1      30.434   8.643  49.054  1.00  0.00     0.100 A 
HETATM   14  C2  UNL     1      33.030   6.054  48.749  1.00  0.00     0.102 A 
HETATM   15  C7  UNL     1      32.123   5.143  48.198  1.00  0.00     0.102 A 
HETATM   16  N3  UNL     1      29.197   8.534  48.711  1.00  0.00    -0.221 NA
BRANCH  14  17
HETATM   17  O1  UNL     1      34.326   5.638  48.914  1.00  0.00    -0.353 OA
HETATM   18  C1  UNL     1      35.417   6.452  48.595  1.00  0.00     0.210 C 
ENDBRANCH  14  17
BRANCH  15  19
HETATM   19  O2  UNL     1      32.579   3.879  47.852  1.00  0.00    -0.353 OA
HETATM   20  C8  UNL     1      32.260   3.263  46.622  1.00  0.00     0.210 C 
ENDBRANCH  15  19
ENDBRANCH   7   8
ENDBRANCH   1   7
BRANCH   4  21
HETATM   21  N1  UNL     1      24.432   4.186  51.339  1.00  0.00    -0.309 N 
HETATM   22  C14 UNL     1      23.414   3.224  51.137  1.00  0.00     0.325 C 
HETATM   23  O4  UNL     1      23.175   2.711  50.034  1.00  0.00    -0.247 OA
HETATM   24  N2  UNL     1      22.720   2.933  52.336  1.00  0.00    -0.306 N 
HETATM   25  H12 UNL     1      22.895   3.345  53.280  1.00  0.00     0.171 HD
HETATM   26  H11 UNL     1      24.708   4.672  52.222  1.00  0.00     0.170 HD
BRANCH  24  27
HETATM   27  C15 UNL     1      21.651   1.996  52.392  1.00  0.00     0.075 A 
HETATM   28  C16 UNL     1      20.356   2.240  52.018  1.00  0.00     0.036 A 
HETATM   29  C17 UNL     1      19.376   1.249  52.112  1.00  0.00     0.044 A 
HETATM   30  C18 UNL     1      19.753  -0.003  52.599  1.00  0.00     0.119 A 
HETATM   31  F1  UNL     1      18.785  -0.969  52.687  1.00  0.00    -0.206 F 
HETATM   32  C19 UNL     1      21.064  -0.283  52.988  1.00  0.00     0.086 A 
HETATM   33  C20 UNL     1      21.994   0.740  52.872  1.00  0.00     0.146 A 
HETATM   34  F2  UNL     1      23.254   0.405  53.267  1.00  0.00    -0.204 F 
ENDBRANCH  24  27
ENDBRANCH   4  21
TORSDOF 6
ENDMDL
MODEL 2
REMARK VINA RESULT:      -8.7      0.802      1.432
REMARK  6 active torsions:
REMARK  status: ('A' for Active; 'I' for Inactive)
REMARK    1  A    between atoms: O1_2  and  C2_3 
REMARK    2  A    between atoms: C7_8  and  O2_9 
REMARK    3  A    between atoms: C9_11  and  O3_12 
REMARK    4  A    between atoms: O3_12  and  C10_13 
REMARK    5  A    between atoms: C13_16  and  N1_17 
REMARK       I    between atoms: N1_17  and  C14_18 
REMARK       I    between atoms: C14_18  and  N2_20 
REMARK    6  A    between atoms: N2_20  and  C15_21 
ROOT
HETATM    1  C10 UNL     1      27.126   5.923  48.577  1.00  0.00     0.078 A 
HETATM    2  C11 UNL     1      27.202   4.587  48.907  1.00  0.00     0.039 A 
HETATM    3  C12 UNL     1      26.374   3.998  49.840  1.00  0.00     0.032 A 
HETATM    4  C13 UNL     1      25.428   4.756  50.479  1.00  0.00     0.036 A 
HETATM    5  C21 UNL     1      25.304   6.098  50.191  1.00  0.00     0.032 A 
HETATM    6  C22 UNL     1      26.147   6.655  49.254  1.00  0.00     0.039 A 
ENDROOT
BRANCH   1   7
HETATM    7  O3  UNL     1      27.923   6.582  47.651  1.00  0.00    -0.291 OA
BRANCH   7   8
HETATM    8  C9  UNL     1      29.031   7.262  48.133  1.00  0.00     0.181 A 
HETATM    9  C5  UNL     1      30.192   6.674  48.263  1.00  0.00     0.033 A 
HETATM   10  C4  UNL     1      31.072   7.612  48.760  1.00  0.00     0.013 A 
HETATM   11  C6  UNL     1      30.682   5.429  48.032  1.00  0.00     0.056 A 
HETATM   12  C3  UNL     1      32.390   7.308  49.014  1.00  0.00     0.054 A 
HETATM   13  C23 UNL     1      30.397   8.730  48.907  1.00  0.00     0.100 A 
HETATM   14  C2  UNL     1      32.929   6.063  48.795  1.00  0.00     0.102 A 
HETATM   15  C7  UNL     1      32.006   5.142  48.292  1.00  0.00     0.102 A 
HETATM   16  N3  UNL     1      29.160   8.629  48.558  1.00  0.00    -0.221 NA
BRANCH  14  17
HETATM   17  O1  UNL     1      34.213   5.627  49.000  1.00  0.00    -0.353 OA
HETATM   18  C1  UNL     1      35.326   6.410  48.682  1.00  0.00     0.210 C 
ENDBRANCH  14  17
BRANCH  15  19
HETATM   19  O2  UNL     1      32.433   3.848  48.030  1.00  0.00    -0.353 OA
HETATM   20  C8  UNL     1      32.356   3.264  46.747  1.00  0.00     0.210 C 
ENDBRANCH  15  19
ENDBRANCH   7   8
ENDBRANCH   1   7
BRANCH   4  21
HETATM   21  N1  UNL     1      24.600   4.101  51.431  1.00  0.00    -0.309 N 
HETATM   22  C14 UNL     1      23.613   3.105  51.241  1.00  0.00     0.325 C 
HETATM   23  O4  UNL     1      23.324   2.641  50.129  1.00  0.00    -0.247 OA
HETATM   24  N2  UNL     1      23.013   2.720  52.464  1.00  0.00    -0.306 N 
HETATM   25  H12 UNL     1      23.232   3.089  53.416  1.00  0.00     0.171 HD
HETATM   26  H11 UNL     1      24.913   4.552  52.320  1.00  0.00     0.170 HD
BRANCH  24  27
HETATM   27  C15 UNL     1      21.992   1.732  52.535  1.00  0.00     0.075 A 
HETATM   28  C16 UNL     1      22.187   0.400  52.787  1.00  0.00     0.036 A 
HETATM   29  C17 UNL     1      21.113  -0.493  52.837  1.00  0.00     0.044 A 
HETATM   30  C18 UNL     1      19.830   0.010  52.623  1.00  0.00     0.119 A 
HETATM   31  F1  UNL     1      18.784  -0.873  52.674  1.00  0.00    -0.206 F 
HETATM   32  C19 UNL     1      19.598   1.362  52.364  1.00  0.00     0.086 A 
HETATM   33  C20 UNL     1      20.703   2.202  52.327  1.00  0.00     0.146 A 
HETATM   34  F2  UNL     1      20.411   3.508  52.071  1.00  0.00    -0.204 F 
ENDBRANCH  24  27
ENDBRANCH   4  21
TORSDOF 6
ENDMDL
MODEL 3
REMARK VINA RESULT:      -8.3      7.267     12.593
REMARK  6 active torsions:
REMARK  status: ('A' for Active; 'I' for Inactive)
REMARK    1  A    between atoms: O1_2  and  C2_3 
REMARK    2  A    between atoms: C7_8  and  O2_9 
REMARK    3  A    between atoms: C9_11  and  O3_12 
REMARK    4  A    between atoms: O3_12  and  C10_13 
REMARK    5  A    between atoms: C13_16  and  N1_17 
REMARK       I    between atoms: N1_17  and  C14_18 
REMARK       I    between atoms: C14_18  and  N2_20 
REMARK    6  A    between atoms: N2_20  and  C15_21 
ROOT
HETATM    1  C10 UNL     1      19.706   1.916  50.786  1.00  0.00     0.078 A 
HETATM    2  C11 UNL     1      20.314   0.727  50.446  1.00  0.00     0.039 A 
HETATM    3  C12 UNL     1      21.336   0.170  51.188  1.00  0.00     0.032 A 
HETATM    4  C13 UNL     1      21.779   0.811  52.315  1.00  0.00     0.036 A 
HETATM    5  C21 UNL     1      21.210   2.003  52.705  1.00  0.00     0.032 A 
HETATM    6  C22 UNL     1      20.191   2.532  51.943  1.00  0.00     0.039 A 
ENDROOT
BRANCH   1   7
HETATM    7  O3  UNL     1      18.676   2.534  50.091  1.00  0.00    -0.291 OA
BRANCH   7   8
HETATM    8  C9  UNL     1      17.616   3.035  50.832  1.00  0.00     0.181 A 
HETATM    9  C5  UNL     1      16.762   2.243  51.428  1.00  0.00     0.033 A 
HETATM   10  C4  UNL     1      15.843   3.044  52.072  1.00  0.00     0.013 A 
HETATM   11  C6  UNL     1      16.598   0.900  51.541  1.00  0.00     0.056 A 
HETATM   12  C3  UNL     1      14.802   2.513  52.799  1.00  0.00     0.054 A 
HETATM   13  C23 UNL     1      16.187   4.289  51.833  1.00  0.00     0.100 A 
HETATM   14  C2  UNL     1      14.596   1.162  52.941  1.00  0.00     0.102 A 
HETATM   15  C7  UNL     1      15.549   0.386  52.273  1.00  0.00     0.102 A 
HETATM   16  N3  UNL     1      17.240   4.396  51.098  1.00  0.00    -0.221 NA
BRANCH  14  17
HETATM   17  O1  UNL     1      13.611   0.504  53.630  1.00  0.00    -0.353 OA
HETATM   18  C1  UNL     1      12.263   0.860  53.527  1.00  0.00     0.210 C 
ENDBRANCH  14  17
BRANCH  15  19
HETATM   19  O2  UNL     1      15.446  -0.996  52.343  1.00  0.00    -0.353 OA
HETATM   20  C8  UNL     1      14.801  -1.765  51.351  1.00  0.00     0.210 C 
ENDBRANCH  15  19
ENDBRANCH   7   8
ENDBRANCH   1   7
BRANCH   4  21
HETATM   21  N1  UNL     1      22.834   0.195  53.045  1.00  0.00    -0.309 N 
HETATM   22  C14 UNL     1      24.234   0.361  52.926  1.00  0.00     0.325 C 
HETATM   23  O4  UNL     1      24.759   1.126  52.105  1.00  0.00    -0.247 OA
HETATM   24  N2  UNL     1      24.939  -0.446  53.851  1.00  0.00    -0.306 N 
HETATM   25  H12 UNL     1      24.530  -1.100  54.555  1.00  0.00     0.171 HD
HETATM   26  H11 UNL     1      22.300  -0.419  53.700  1.00  0.00     0.170 HD
BRANCH  24  27
HETATM   27  C15 UNL     1      26.359  -0.457  53.929  1.00  0.00     0.075 A 
HETATM   28  C16 UNL     1      27.116   0.294  54.789  1.00  0.00     0.036 A 
HETATM   29  C17 UNL     1      28.511   0.212  54.788  1.00  0.00     0.044 A 
HETATM   30  C18 UNL     1      29.116  -0.659  53.882  1.00  0.00     0.119 A 
HETATM   31  F1  UNL     1      30.484  -0.732  53.888  1.00  0.00    -0.206 F 
HETATM   32  C19 UNL     1      28.374  -1.437  52.993  1.00  0.00     0.086 A 
HETATM   33  C20 UNL     1      26.991  -1.314  53.040  1.00  0.00     0.146 A 
HETATM   34  F2  UNL     1      26.324  -2.099  52.148  1.00  0.00    -0.204 F 
ENDBRANCH  24  27
ENDBRANCH   4  21
TORSDOF 6
ENDMDL
MODEL 4
REMARK VINA RESULT:      -8.2      7.375     13.752
REMARK  6 active torsions:
REMARK  status: ('A' for Active; 'I' for Inactive)
REMARK    1  A    between atoms: O1_2  and  C2_3 
REMARK    2  A    between atoms: C7_8  and  O2_9 
REMARK    3  A    between atoms: C9_11  and  O3_12 
REMARK    4  A    between atoms: O3_12  and  C10_13 
REMARK    5  A    between atoms: C13_16  and  N1_17 
REMARK       I    between atoms: N1_17  and  C14_18 
REMARK       I    between atoms: C14_18  and  N2_20 
REMARK    6  A    between atoms: N2_20  and  C15_21 
ROOT
HETATM    1  C10 UNL     1      19.026   0.167  51.934  1.00  0.00     0.078 A 
HETATM    2  C11 UNL     1      19.182  -0.462  53.151  1.00  0.00     0.039 A 
HETATM    3  C12 UNL     1      20.418  -0.773  53.679  1.00  0.00     0.032 A 
HETATM    4  C13 UNL     1      21.553  -0.451  52.982  1.00  0.00     0.036 A 
HETATM    5  C21 UNL     1      21.460   0.179  51.760  1.00  0.00     0.032 A 
HETATM    6  C22 UNL     1      20.211   0.476  51.259  1.00  0.00     0.039 A 
ENDROOT
BRANCH   1   7
HETATM    7  O3  UNL     1      17.819   0.511  51.342  1.00  0.00    -0.291 OA
BRANCH   7   8
HETATM    8  C9  UNL     1      16.673  -0.101  51.828  1.00  0.00     0.181 A 
HETATM    9  C5  UNL     1      15.675   0.597  52.306  1.00  0.00     0.033 A 
HETATM   10  C4  UNL     1      14.704  -0.299  52.702  1.00  0.00     0.013 A 
HETATM   11  C6  UNL     1      15.409   1.916  52.484  1.00  0.00     0.056 A 
HETATM   12  C3  UNL     1      13.514   0.119  53.253  1.00  0.00     0.054 A 
HETATM   13  C23 UNL     1      15.164  -1.502  52.442  1.00  0.00     0.100 A 
HETATM   14  C2  UNL     1      13.201   1.442  53.452  1.00  0.00     0.102 A 
HETATM   15  C7  UNL     1      14.211   2.316  53.038  1.00  0.00     0.102 A 
HETATM   16  N3  UNL     1      16.340  -1.496  51.915  1.00  0.00    -0.221 NA
BRANCH  14  17
HETATM   17  O1  UNL     1      12.064   1.993  53.985  1.00  0.00    -0.353 OA
HETATM   18  C1  UNL     1      11.785   1.949  55.353  1.00  0.00     0.210 C 
ENDBRANCH  14  17
BRANCH  15  19
HETATM   19  O2  UNL     1      14.011   3.681  53.188  1.00  0.00    -0.353 OA
HETATM   20  C8  UNL     1      14.894   4.506  53.919  1.00  0.00     0.210 C 
ENDBRANCH  15  19
ENDBRANCH   7   8
ENDBRANCH   1   7
BRANCH   4  21
HETATM   21  N1  UNL     1      22.801  -0.793  53.570  1.00  0.00    -0.309 N 
HETATM   22  C14 UNL     1      24.097  -0.292  53.300  1.00  0.00     0.325 C 
HETATM   23  O4  UNL     1      24.324   0.577  52.447  1.00  0.00    -0.247 OA
HETATM   24  N2  UNL     1      25.078  -0.906  54.116  1.00  0.00    -0.306 N 
HETATM   25  H12 UNL     1      24.922  -1.639  54.843  1.00  0.00     0.171 HD
HETATM   26  H11 UNL     1      22.511  -1.519  54.263  1.00  0.00     0.170 HD
BRANCH  24  27
HETATM   27  C15 UNL     1      26.458  -0.571  54.033  1.00  0.00     0.075 A 
HETATM   28  C16 UNL     1      27.091   0.391  54.775  1.00  0.00     0.036 A 
HETATM   29  C17 UNL     1      28.456   0.644  54.619  1.00  0.00     0.044 A 
HETATM   30  C18 UNL     1      29.161  -0.112  53.683  1.00  0.00     0.119 A 
HETATM   31  F1  UNL     1      30.500   0.144  53.538  1.00  0.00    -0.206 F 
HETATM   32  C19 UNL     1      28.546  -1.100  52.912  1.00  0.00     0.086 A 
HETATM   33  C20 UNL     1      27.188  -1.307  53.111  1.00  0.00     0.146 A 
HETATM   34  F2  UNL     1      26.646  -2.284  52.330  1.00  0.00    -0.204 F 
ENDBRANCH  24  27
ENDBRANCH   4  21
TORSDOF 6
ENDMDL
MODEL 5
REMARK VINA RESULT:      -8.0      4.531     10.966
REMARK  6 active torsions:
REMARK  status: ('A' for Active; 'I' for Inactive)
REMARK    1  A    between atoms: O1_2  and  C2_3 
REMARK    2  A    between atoms: C7_8  and  O2_9 
REMARK    3  A    between atoms: C9_11  and  O3_12 
REMARK    4  A    between atoms: O3_12  and  C10_13 
REMARK    5  A    between atoms: C13_16  and  N1_17 
REMARK       I    between atoms: N1_17  and  C14_18 
REMARK       I    between atoms: C14_18  and  N2_20 
REMARK    6  A    between atoms: N2_20  and  C15_21 
ROOT
HETATM    1  C10 UNL     1      23.989   3.884  49.013  1.00  0.00     0.078 A 
HETATM    2  C11 UNL     1      23.641   5.213  48.903  1.00  0.00     0.039 A 
HETATM    3  C12 UNL     1      24.526   6.241  49.157  1.00  0.00     0.032 A 
HETATM    4  C13 UNL     1      25.811   5.951  49.533  1.00  0.00     0.036 A 
HETATM    5  C21 UNL     1      26.217   4.640  49.660  1.00  0.00     0.032 A 
HETATM    6  C22 UNL     1      25.309   3.636  49.400  1.00  0.00     0.039 A 
ENDROOT
BRANCH   1   7
HETATM    7  O3  UNL     1      23.156   2.800  48.775  1.00  0.00    -0.291 OA
BRANCH   7   8
HETATM    8  C9  UNL     1      22.097   2.605  49.649  1.00  0.00     0.181 A 
HETATM    9  C5  UNL     1      22.243   1.932  50.761  1.00  0.00     0.033 A 
HETATM   10  C4  UNL     1      21.018   1.921  51.396  1.00  0.00     0.013 A 
HETATM   11  C6  UNL     1      23.265   1.287  51.380  1.00  0.00     0.056 A 
HETATM   12  C3  UNL     1      20.833   1.287  52.603  1.00  0.00     0.054 A 
HETATM   13  C23 UNL     1      20.186   2.592  50.632  1.00  0.00     0.100 A 
HETATM   14  C2  UNL     1      21.837   0.624  53.266  1.00  0.00     0.102 A 
HETATM   15  C7  UNL     1      23.061   0.658  52.590  1.00  0.00     0.102 A 
HETATM   16  N3  UNL     1      20.733   3.048  49.558  1.00  0.00    -0.221 NA
BRANCH  14  17
HETATM   17  O1  UNL     1      21.792  -0.043  54.463  1.00  0.00    -0.353 OA
HETATM   18  C1  UNL     1      21.346  -1.364  54.565  1.00  0.00     0.210 C 
ENDBRANCH  14  17
BRANCH  15  19
HETATM   19  O2  UNL     1      24.153   0.021  53.161  1.00  0.00    -0.353 OA
HETATM   20  C8  UNL     1      25.335   0.706  53.519  1.00  0.00     0.210 C 
ENDBRANCH  15  19
ENDBRANCH   7   8
ENDBRANCH   1   7
BRANCH   4  21
HETATM   21  N1  UNL     1      26.683   7.046  49.782  1.00  0.00    -0.309 N 
HETATM   22  C14 UNL     1      27.706   7.591  48.970  1.00  0.00     0.325 C 
HETATM   23  O4  UNL     1      27.992   7.146  47.850  1.00  0.00    -0.247 OA
HETATM   24  N2  UNL     1      28.344   8.689  49.596  1.00  0.00    -0.306 N 
HETATM   25  H12 UNL     1      28.129   9.089  50.536  1.00  0.00     0.171 HD
HETATM   26  H11 UNL     1      26.369   7.348  50.732  1.00  0.00     0.170 HD
BRANCH  24  27
HETATM   27  C15 UNL     1      29.406   9.408  48.981  1.00  0.00     0.075 A 
HETATM   28  C16 UNL     1      30.668   8.926  48.753  1.00  0.00     0.036 A 
HETATM   29  C17 UNL     1      31.644   9.715  48.138  1.00  0.00     0.044 A 
HETATM   30  C18 UNL     1      31.298  11.012  47.761  1.00  0.00     0.119 A 
HETATM   31  F1  UNL     1      32.263  11.778  47.159  1.00  0.00    -0.206 F 
HETATM   32  C19 UNL     1      30.022  11.532  47.980  1.00  0.00     0.086 A 
HETATM   33  C20 UNL     1      29.093  10.702  48.593  1.00  0.00     0.146 A 
HETATM   34  F2  UNL     1      27.867  11.268  48.778  1.00  0.00    -0.204 F 
ENDBRANCH  24  27
ENDBRANCH   4  21
TORSDOF 6
ENDMDL
MODEL 6
REMARK VINA RESULT:      -7.9      5.420     10.528
REMARK  6 active torsions:
REMARK  status: ('A' for Active; 'I' for Inactive)
REMARK    1  A    between atoms: O1_2  and  C2_3 
REMARK    2  A    between atoms: C7_8  and  O2_9 
REMARK    3  A    between atoms: C9_11  and  O3_12 
REMARK    4  A    between atoms: O3_12  and  C10_13 
REMARK    5  A    between atoms: C13_16  and  N1_17 
REMARK       I    between atoms: N1_17  and  C14_18 
REMARK       I    between atoms: C14_18  and  N2_20 
REMARK    6  A    between atoms: N2_20  and  C15_21 
ROOT
HETATM    1  C10 UNL     1      26.830   4.401  49.304  1.00  0.00     0.078 A 
HETATM    2  C11 UNL     1      25.706   5.197  49.358  1.00  0.00     0.039 A 
HETATM    3  C12 UNL     1      25.649   6.452  48.786  1.00  0.00     0.032 A 
HETATM    4  C13 UNL     1      26.746   6.946  48.131  1.00  0.00     0.036 A 
HETATM    5  C21 UNL     1      27.899   6.197  48.045  1.00  0.00     0.032 A 
HETATM    6  C22 UNL     1      27.923   4.948  48.626  1.00  0.00     0.039 A 
ENDROOT
BRANCH   1   7
HETATM    7  O3  UNL     1      26.959   3.133  49.854  1.00  0.00    -0.291 OA
BRANCH   7   8
HETATM    8  C9  UNL     1      25.884   2.640  50.579  1.00  0.00     0.181 A 
HETATM    9  C5  UNL     1      26.056   1.828  51.590  1.00  0.00     0.033 A 
HETATM   10  C4  UNL     1      24.806   1.526  52.088  1.00  0.00     0.013 A 
HETATM   11  C6  UNL     1      27.122   1.258  52.209  1.00  0.00     0.056 A 
HETATM   12  C3  UNL     1      24.638   0.686  53.165  1.00  0.00     0.054 A 
HETATM   13  C23 UNL     1      23.934   2.175  51.350  1.00  0.00     0.100 A 
HETATM   14  C2  UNL     1      25.686   0.088  53.823  1.00  0.00     0.102 A 
HETATM   15  C7  UNL     1      26.935   0.419  53.287  1.00  0.00     0.102 A 
HETATM   16  N3  UNL     1      24.476   2.875  50.415  1.00  0.00    -0.221 NA
BRANCH  14  17
HETATM   17  O1  UNL     1      25.662  -0.760  54.899  1.00  0.00    -0.353 OA
HETATM   18  C1  UNL     1      24.467  -1.213  55.465  1.00  0.00     0.210 C 
ENDBRANCH  14  17
BRANCH  15  19
HETATM   19  O2  UNL     1      28.072  -0.125  53.867  1.00  0.00    -0.353 OA
HETATM   20  C8  UNL     1      29.281   0.593  53.995  1.00  0.00     0.210 C 
ENDBRANCH  15  19
ENDBRANCH   7   8
ENDBRANCH   1   7
BRANCH   4  21
HETATM   21  N1  UNL     1      26.636   8.244  47.559  1.00  0.00    -0.309 N 
HETATM   22  C14 UNL     1      27.468   9.377  47.719  1.00  0.00     0.325 C 
HETATM   23  O4  UNL     1      28.478   9.382  48.436  1.00  0.00    -0.247 OA
HETATM   24  N2  UNL     1      27.000  10.482  46.967  1.00  0.00    -0.306 N 
HETATM   25  H12 UNL     1      26.156  10.513  46.353  1.00  0.00     0.171 HD
HETATM   26  H11 UNL     1      25.771   8.141  46.982  1.00  0.00     0.170 HD
BRANCH  24  27
HETATM   27  C15 UNL     1      27.666  11.739  46.961  1.00  0.00     0.075 A 
HETATM   28  C16 UNL     1      28.806  12.034  46.262  1.00  0.00     0.036 A 
HETATM   29  C17 UNL     1      29.385  13.304  46.323  1.00  0.00     0.044 A 
HETATM   30  C18 UNL     1      28.768  14.269  47.119  1.00  0.00     0.119 A 
HETATM   31  F1  UNL     1      29.343  15.512  47.172  1.00  0.00    -0.206 F 
HETATM   32  C19 UNL     1      27.606  14.000  47.843  1.00  0.00     0.086 A 
HETATM   33  C20 UNL     1      27.076  12.721  47.744  1.00  0.00     0.146 A 
HETATM   34  F2  UNL     1      25.943  12.521  48.473  1.00  0.00    -0.204 F 
ENDBRANCH  24  27
ENDBRANCH   4  21
TORSDOF 6
ENDMDL
MODEL 7
REMARK VINA RESULT:      -7.9      4.612     11.795
REMARK  6 active torsions:
REMARK  status: ('A' for Active; 'I' for Inactive)
REMARK    1  A    between atoms: O1_2  and  C2_3 
REMARK    2  A    between atoms: C7_8  and  O2_9 
REMARK    3  A    between atoms: C9_11  and  O3_12 
REMARK    4  A    between atoms: O3_12  and  C10_13 
REMARK    5  A    between atoms: C13_16  and  N1_17 
REMARK       I    between atoms: N1_17  and  C14_18 
REMARK       I    between atoms: C14_18  and  N2_20 
REMARK    6  A    between atoms: N2_20  and  C15_21 
ROOT
HETATM    1  C10 UNL     1      23.339   2.944  50.430  1.00  0.00     0.078 A 
HETATM    2  C11 UNL     1      23.108   4.049  51.221  1.00  0.00     0.039 A 
HETATM    3  C12 UNL     1      23.950   5.141  51.245  1.00  0.00     0.032 A 
HETATM    4  C13 UNL     1      25.070   5.150  50.456  1.00  0.00     0.036 A 
HETATM    5  C21 UNL     1      25.354   4.073  49.644  1.00  0.00     0.032 A 
HETATM    6  C22 UNL     1      24.493   2.998  49.643  1.00  0.00     0.039 A 
ENDROOT
BRANCH   1   7
HETATM    7  O3  UNL     1      22.539   1.813  50.355  1.00  0.00    -0.291 OA
BRANCH   7   8
HETATM    8  C9  UNL     1      22.318   1.108  51.529  1.00  0.00     0.181 A 
HETATM    9  C5  UNL     1      21.146   0.600  51.812  1.00  0.00     0.033 A 
HETATM   10  C4  UNL     1      21.258  -0.029  53.034  1.00  0.00     0.013 A 
HETATM   11  C6  UNL     1      19.931   0.562  51.206  1.00  0.00     0.056 A 
HETATM   12  C3  UNL     1      20.190  -0.670  53.620  1.00  0.00     0.054 A 
HETATM   13  C23 UNL     1      22.499   0.130  53.433  1.00  0.00     0.100 A 
HETATM   14  C2  UNL     1      18.945  -0.735  53.045  1.00  0.00     0.102 A 
HETATM   15  C7  UNL     1      18.873  -0.085  51.808  1.00  0.00     0.102 A 
HETATM   16  N3  UNL     1      23.222   0.799  52.602  1.00  0.00    -0.221 NA
BRANCH  14  17
HETATM   17  O1  UNL     1      17.804  -1.335  53.513  1.00  0.00    -0.353 OA
HETATM   18  C1  UNL     1      17.684  -2.723  53.624  1.00  0.00     0.210 C 
ENDBRANCH  14  17
BRANCH  15  19
HETATM   19  O2  UNL     1      17.663  -0.082  51.129  1.00  0.00    -0.353 OA
HETATM   20  C8  UNL     1      16.972   1.106  50.806  1.00  0.00     0.210 C 
ENDBRANCH  15  19
ENDBRANCH   7   8
ENDBRANCH   1   7
BRANCH   4  21
HETATM   21  N1  UNL     1      25.904   6.300  50.516  1.00  0.00    -0.309 N 
HETATM   22  C14 UNL     1      26.337   7.160  49.480  1.00  0.00     0.325 C 
HETATM   23  O4  UNL     1      26.017   7.006  48.292  1.00  0.00    -0.247 OA
HETATM   24  N2  UNL     1      27.168   8.196  49.970  1.00  0.00    -0.306 N 
HETATM   25  H12 UNL     1      27.457   8.356  50.960  1.00  0.00     0.171 HD
HETATM   26  H11 UNL     1      26.118   6.346  51.538  1.00  0.00     0.170 HD
BRANCH  24  27
HETATM   27  C15 UNL     1      27.730   9.191  49.122  1.00  0.00     0.075 A 
HETATM   28  C16 UNL     1      27.115  10.355  48.742  1.00  0.00     0.036 A 
HETATM   29  C17 UNL     1      27.754  11.271  47.902  1.00  0.00     0.044 A 
HETATM   30  C18 UNL     1      29.041  10.967  47.458  1.00  0.00     0.119 A 
HETATM   31  F1  UNL     1      29.659  11.871  46.635  1.00  0.00    -0.206 F 
HETATM   32  C19 UNL     1      29.694   9.790  47.826  1.00  0.00     0.086 A 
HETATM   33  C20 UNL     1      29.010   8.918  48.663  1.00  0.00     0.146 A 
HETATM   34  F2  UNL     1      29.700   7.788  48.986  1.00  0.00    -0.204 F 
ENDBRANCH  24  27
ENDBRANCH   4  21
TORSDOF 6
ENDMDL
MODEL 8
REMARK VINA RESULT:      -7.8      4.392      5.460
REMARK  6 active torsions:
REMARK  status: ('A' for Active; 'I' for Inactive)
REMARK    1  A    between atoms: O1_2  and  C2_3 
REMARK    2  A    between atoms: C7_8  and  O2_9 
REMARK    3  A    between atoms: C9_11  and  O3_12 
REMARK    4  A    between atoms: O3_12  and  C10_13 
REMARK    5  A    between atoms: C13_16  and  N1_17 
REMARK       I    between atoms: N1_17  and  C14_18 
REMARK       I    between atoms: C14_18  and  N2_20 
REMARK    6  A    between atoms: N2_20  and  C15_21 
ROOT
HETATM    1  C10 UNL     1      24.565   7.578  48.448  1.00  0.00     0.078 A 
HETATM    2  C11 UNL     1      25.034   7.751  49.732  1.00  0.00     0.039 A 
HETATM    3  C12 UNL     1      25.191   6.706  50.619  1.00  0.00     0.032 A 
HETATM    4  C13 UNL     1      24.872   5.432  50.227  1.00  0.00     0.036 A 
HETATM    5  C21 UNL     1      24.397   5.197  48.955  1.00  0.00     0.032 A 
HETATM    6  C22 UNL     1      24.252   6.263  48.093  1.00  0.00     0.039 A 
ENDROOT
BRANCH   1   7
HETATM    7  O3  UNL     1      24.382   8.578  47.504  1.00  0.00    -0.291 OA
BRANCH   7   8
HETATM    8  C9  UNL     1      25.123   8.494  46.334  1.00  0.00     0.181 A 
HETATM    9  C5  UNL     1      26.419   8.672  46.330  1.00  0.00     0.033 A 
HETATM   10  C4  UNL     1      26.847   8.524  45.027  1.00  0.00     0.013 A 
HETATM   11  C6  UNL     1      27.365   8.952  47.264  1.00  0.00     0.056 A 
HETATM   12  C3  UNL     1      28.173   8.652  44.681  1.00  0.00     0.054 A 
HETATM   13  C23 UNL     1      25.784   8.262  44.302  1.00  0.00     0.100 A 
HETATM   14  C2  UNL     1      29.163   8.933  45.591  1.00  0.00     0.102 A 
HETATM   15  C7  UNL     1      28.688   9.076  46.898  1.00  0.00     0.102 A 
HETATM   16  N3  UNL     1      24.695   8.220  44.990  1.00  0.00    -0.221 NA
BRANCH  14  17
HETATM   17  O1  UNL     1      30.511   9.086  45.385  1.00  0.00    -0.353 OA
HETATM   18  C1  UNL     1      31.329   8.025  44.987  1.00  0.00     0.210 C 
ENDBRANCH  14  17
BRANCH  15  19
HETATM   19  O2  UNL     1      29.596   9.362  47.908  1.00  0.00    -0.353 OA
HETATM   20  C8  UNL     1      30.076   8.382  48.803  1.00  0.00     0.210 C 
ENDBRANCH  15  19
ENDBRANCH   7   8
ENDBRANCH   1   7
BRANCH   4  21
HETATM   21  N1  UNL     1      25.051   4.391  51.178  1.00  0.00    -0.309 N 
HETATM   22  C14 UNL     1      25.992   3.334  51.197  1.00  0.00     0.325 C 
HETATM   23  O4  UNL     1      26.848   3.172  50.315  1.00  0.00    -0.247 OA
HETATM   24  N2  UNL     1      25.829   2.506  52.333  1.00  0.00    -0.306 N 
HETATM   25  H12 UNL     1      25.121   2.613  53.093  1.00  0.00     0.171 HD
HETATM   26  H11 UNL     1      24.298   4.610  51.868  1.00  0.00     0.170 HD
BRANCH  24  27
HETATM   27  C15 UNL     1      26.656   1.375  52.579  1.00  0.00     0.075 A 
HETATM   28  C16 UNL     1      26.381   0.088  52.197  1.00  0.00     0.036 A 
HETATM   29  C17 UNL     1      27.262  -0.957  52.488  1.00  0.00     0.044 A 
HETATM   30  C18 UNL     1      28.434  -0.655  53.180  1.00  0.00     0.119 A 
HETATM   31  F1  UNL     1      29.291  -1.687  53.460  1.00  0.00    -0.206 F 
HETATM   32  C19 UNL     1      28.743   0.645  53.583  1.00  0.00     0.086 A 
HETATM   33  C20 UNL     1      27.831   1.643  53.266  1.00  0.00     0.146 A 
HETATM   34  F2  UNL     1      28.189   2.889  53.685  1.00  0.00    -0.204 F 
ENDBRANCH  24  27
ENDBRANCH   4  21
TORSDOF 6
ENDMDL
MODEL 9
REMARK VINA RESULT:      -7.8      2.064      2.547
REMARK  6 active torsions:
REMARK  status: ('A' for Active; 'I' for Inactive)
REMARK    1  A    between atoms: O1_2  and  C2_3 
REMARK    2  A    between atoms: C7_8  and  O2_9 
REMARK    3  A    between atoms: C9_11  and  O3_12 
REMARK    4  A    between atoms: O3_12  and  C10_13 
REMARK    5  A    between atoms: C13_16  and  N1_17 
REMARK       I    between atoms: N1_17  and  C14_18 
REMARK       I    between atoms: C14_18  and  N2_20 
REMARK    6  A    between atoms: N2_20  and  C15_21 
ROOT
HETATM    1  C10 UNL     1      26.934   6.949  48.960  1.00  0.00     0.078 A 
HETATM    2  C11 UNL     1      25.675   6.958  49.521  1.00  0.00     0.039 A 
HETATM    3  C12 UNL     1      24.971   5.805  49.799  1.00  0.00     0.032 A 
HETATM    4  C13 UNL     1      25.529   4.587  49.513  1.00  0.00     0.036 A 
HETATM    5  C21 UNL     1      26.785   4.514  48.951  1.00  0.00     0.032 A 
HETATM    6  C22 UNL     1      27.462   5.684  48.686  1.00  0.00     0.039 A 
ENDROOT
BRANCH   1   7
HETATM    7  O3  UNL     1      27.699   8.066  48.654  1.00  0.00    -0.291 OA
BRANCH   7   8
HETATM    8  C9  UNL     1      28.289   8.110  47.399  1.00  0.00     0.181 A 
HETATM    9  C5  UNL     1      29.575   7.931  47.241  1.00  0.00     0.033 A 
HETATM   10  C4  UNL     1      29.839   8.036  45.891  1.00  0.00     0.013 A 
HETATM   11  C6  UNL     1      30.630   7.684  48.060  1.00  0.00     0.056 A 
HETATM   12  C3  UNL     1      31.112   7.896  45.389  1.00  0.00     0.054 A 
HETATM   13  C23 UNL     1      28.693   8.274  45.295  1.00  0.00     0.100 A 
HETATM   14  C2  UNL     1      32.209   7.645  46.178  1.00  0.00     0.102 A 
HETATM   15  C7  UNL     1      31.899   7.547  47.538  1.00  0.00     0.102 A 
HETATM   16  N3  UNL     1      27.697   8.337  46.110  1.00  0.00    -0.221 NA
BRANCH  14  17
HETATM   17  O1  UNL     1      33.520   7.484  45.812  1.00  0.00    -0.353 OA
HETATM   18  C1  UNL     1      34.154   8.343  44.910  1.00  0.00     0.210 C 
ENDBRANCH  14  17
BRANCH  15  19
HETATM   19  O2  UNL     1      32.926   7.295  48.436  1.00  0.00    -0.353 OA
HETATM   20  C8  UNL     1      33.265   5.992  48.862  1.00  0.00     0.210 C 
ENDBRANCH  15  19
ENDBRANCH   7   8
ENDBRANCH   1   7
BRANCH   4  21
HETATM   21  N1  UNL     1      24.763   3.428  49.819  1.00  0.00    -0.309 N 
HETATM   22  C14 UNL     1      24.267   2.974  51.064  1.00  0.00     0.325 C 
HETATM   23  O4  UNL     1      24.453   3.577  52.130  1.00  0.00    -0.247 OA
HETATM   24  N2  UNL     1      23.546   1.762  50.931  1.00  0.00    -0.306 N 
HETATM   25  H12 UNL     1      23.370   1.228  50.051  1.00  0.00     0.171 HD
HETATM   26  H11 UNL     1      24.660   2.994  48.874  1.00  0.00     0.170 HD
BRANCH  24  27
HETATM   27  C15 UNL     1      22.947   1.104  52.041  1.00  0.00     0.075 A 
HETATM   28  C16 UNL     1      21.644   1.239  52.439  1.00  0.00     0.036 A 
HETATM   29  C17 UNL     1      21.150   0.546  53.548  1.00  0.00     0.044 A 
HETATM   30  C18 UNL     1      22.023  -0.291  54.241  1.00  0.00     0.119 A 
HETATM   31  F1  UNL     1      21.530  -0.966  55.327  1.00  0.00    -0.206 F 
HETATM   32  C19 UNL     1      23.357  -0.450  53.861  1.00  0.00     0.086 A 
HETATM   33  C20 UNL     1      23.791   0.263  52.751  1.00  0.00     0.146 A 
HETATM   34  F2  UNL     1      25.101   0.065  52.431  1.00  0.00    -0.204 F 
ENDBRANCH  24  27
ENDBRANCH   4  21
TORSDOF 6
ENDMDL
