MODEL 1
REMARK VINA RESULT:      -7.6      0.000      0.000
REMARK  6 active torsions:
REMARK  status: ('A' for Active; 'I' for Inactive)
REMARK    1  A    between atoms: C2_2  and  N1_3 
REMARK    2  A    between atoms: N1_3  and  C4_5 
REMARK    3  A    between atoms: C4_5  and  C5_6 
REMARK    4  A    between atoms: C5_6  and  C6_7 
REMARK       I    between atoms: C6_7  and  N2_9 
REMARK    5  A    between atoms: N2_9  and  C7_10 
REMARK    6  A    between atoms: C9_12  and  O2_13 
ROOT
HETATM    1  C7  UNL     1      23.941   3.458  50.847  1.00  0.00     0.085 C 
HETATM    2  C8  UNL     1      24.115   3.121  49.388  1.00  0.00     0.047 C 
HETATM    3  C9  UNL     1      24.841   2.365  51.590  1.00  0.00     0.077 C 
HETATM    4  C11 UNL     1      25.905   1.401  51.282  1.00  0.00     0.134 C 
HETATM    5  C12 UNL     1      26.256   0.636  52.537  1.00  0.00     0.070 A 
HETATM    6  C13 UNL     1      24.905   0.405  52.647  1.00  0.00     0.140 A 
HETATM    7  C14 UNL     1      23.516   0.075  52.903  1.00  0.00     0.051 A 
HETATM    8  C15 UNL     1      23.710  -0.661  54.047  1.00  0.00     0.079 A 
HETATM    9  C16 UNL     1      22.552  -1.199  54.659  1.00  0.00     0.102 C 
HETATM   10  N3  UNL     1      21.637  -1.629  55.160  1.00  0.00    -0.191 NA
HETATM   11  C17 UNL     1      25.093  -0.659  54.288  1.00  0.00     0.086 A 
HETATM   12  N4  UNL     1      25.998  -0.078  53.570  1.00  0.00    -0.265 NA
HETATM   13  N5  UNL     1      22.282   0.499  52.248  1.00  0.00    -0.358 N 
HETATM   14  C18 UNL     1      22.048   1.903  51.875  1.00  0.00     0.036 A 
HETATM   15  C19 UNL     1      22.616   3.029  51.360  1.00  0.00    -0.004 A 
HETATM   16  C20 UNL     1      21.542   3.998  51.397  1.00  0.00     0.009 A 
HETATM   17  C21 UNL     1      20.412   3.577  51.871  1.00  0.00    -0.004 A 
HETATM   18  C22 UNL     1      20.623   2.164  52.237  1.00  0.00     0.131 A 
HETATM   19 BR1  UNL     1      19.379   0.971  51.363  1.00  0.00    -0.080 Br
HETATM   20  H21 UNL     1      21.809  -0.402  52.197  1.00  0.00     0.165 HD
ENDROOT
BRANCH   3  21
HETATM   21  O2  UNL     1      24.333   2.511  52.983  1.00  0.00    -0.387 OA
HETATM   22  C10 UNL     1      24.916   3.385  53.875  1.00  0.00     0.202 C 
ENDBRANCH   3  21
BRANCH   1  23
HETATM   23  N2  UNL     1      24.443   4.673  51.289  1.00  0.00    -0.345 N 
HETATM   24  C6  UNL     1      24.172   5.550  50.182  1.00  0.00     0.220 C 
HETATM   25  O1  UNL     1      23.650   5.455  49.027  1.00  0.00    -0.274 OA
HETATM   26  H11 UNL     1      24.903   5.397  51.904  1.00  0.00     0.163 HD
BRANCH  24  27
HETATM   27  C5  UNL     1      24.410   7.020  49.924  1.00  0.00     0.122 C 
BRANCH  27  28
HETATM   28  C4  UNL     1      25.900   7.228  49.998  1.00  0.00     0.126 C 
BRANCH  28  29
HETATM   29  N1  UNL     1      26.536   7.120  48.714  1.00  0.00    -0.410 N 
HETATM   30  C3  UNL     1      25.740   7.731  47.672  1.00  0.00     0.143 C 
BRANCH  29  31
HETATM   31  C2  UNL     1      27.783   6.503  48.451  1.00  0.00     0.101 C 
HETATM   32  C1  UNL     1      27.399   5.240  48.610  1.00  0.00     0.029 C 
ENDBRANCH  29  31
ENDBRANCH  28  29
ENDBRANCH  27  28
ENDBRANCH  24  27
ENDBRANCH   1  23
TORSDOF 6
ENDMDL
MODEL 2
REMARK VINA RESULT:      -7.6      1.903      2.785
REMARK  6 active torsions:
REMARK  status: ('A' for Active; 'I' for Inactive)
REMARK    1  A    between atoms: C2_2  and  N1_3 
REMARK    2  A    between atoms: N1_3  and  C4_5 
REMARK    3  A    between atoms: C4_5  and  C5_6 
REMARK    4  A    between atoms: C5_6  and  C6_7 
REMARK       I    between atoms: C6_7  and  N2_9 
REMARK    5  A    between atoms: N2_9  and  C7_10 
REMARK    6  A    between atoms: C9_12  and  O2_13 
ROOT
HETATM    1  C7  UNL     1      22.401   2.601  50.790  1.00  0.00     0.085 C 
HETATM    2  C8  UNL     1      22.192   1.871  49.488  1.00  0.00     0.047 C 
HETATM    3  C9  UNL     1      23.992   2.708  50.905  1.00  0.00     0.077 C 
HETATM    4  C11 UNL     1      25.182   2.564  50.057  1.00  0.00     0.134 C 
HETATM    5  C12 UNL     1      26.418   2.776  50.902  1.00  0.00     0.070 A 
HETATM    6  C13 UNL     1      25.864   1.851  51.755  1.00  0.00     0.140 A 
HETATM    7  C14 UNL     1      25.417   0.894  52.750  1.00  0.00     0.051 A 
HETATM    8  C15 UNL     1      26.500   0.985  53.591  1.00  0.00     0.079 A 
HETATM    9  C16 UNL     1      26.470   0.175  54.752  1.00  0.00     0.102 C 
HETATM   10  N3  UNL     1      26.458  -0.461  55.684  1.00  0.00    -0.191 NA
HETATM   11  C17 UNL     1      27.372   1.921  53.012  1.00  0.00     0.086 A 
HETATM   12  N4  UNL     1      27.186   2.563  51.906  1.00  0.00    -0.265 NA
HETATM   13  N5  UNL     1      24.160   0.167  52.900  1.00  0.00    -0.358 N 
HETATM   14  C18 UNL     1      22.858   0.828  52.715  1.00  0.00     0.036 A 
HETATM   15  C19 UNL     1      22.160   1.723  51.962  1.00  0.00    -0.004 A 
HETATM   16  C20 UNL     1      20.857   1.751  52.591  1.00  0.00     0.009 A 
HETATM   17  C21 UNL     1      20.706   0.980  53.621  1.00  0.00    -0.004 A 
HETATM   18  C22 UNL     1      21.998   0.296  53.814  1.00  0.00     0.131 A 
HETATM   19 BR1  UNL     1      21.836  -1.630  53.799  1.00  0.00    -0.080 Br
HETATM   20  H21 UNL     1      24.533  -0.753  53.130  1.00  0.00     0.165 HD
ENDROOT
BRANCH   3  21
HETATM   21  O2  UNL     1      24.126   3.079  52.341  1.00  0.00    -0.387 OA
HETATM   22  C10 UNL     1      23.920   4.372  52.773  1.00  0.00     0.202 C 
ENDBRANCH   3  21
BRANCH   1  23
HETATM   23  N2  UNL     1      21.963   3.914  50.865  1.00  0.00    -0.345 N 
HETATM   24  C6  UNL     1      22.149   4.389  49.520  1.00  0.00     0.220 C 
HETATM   25  O1  UNL     1      22.587   3.923  48.422  1.00  0.00    -0.274 OA
HETATM   26  H11 UNL     1      21.581   4.817  51.258  1.00  0.00     0.163 HD
BRANCH  24  27
HETATM   27  C5  UNL     1      21.887   5.706  48.826  1.00  0.00     0.122 C 
BRANCH  27  28
HETATM   28  C4  UNL     1      23.236   6.278  48.477  1.00  0.00     0.126 C 
BRANCH  28  29
HETATM   29  N1  UNL     1      23.932   6.788  49.627  1.00  0.00    -0.410 N 
HETATM   30  C3  UNL     1      23.126   7.742  50.357  1.00  0.00     0.143 C 
BRANCH  29  31
HETATM   31  C2  UNL     1      25.240   6.432  50.035  1.00  0.00     0.101 C 
HETATM   32  C1  UNL     1      25.685   5.995  48.861  1.00  0.00     0.029 C 
ENDBRANCH  29  31
ENDBRANCH  28  29
ENDBRANCH  27  28
ENDBRANCH  24  27
ENDBRANCH   1  23
TORSDOF 6
ENDMDL
MODEL 3
REMARK VINA RESULT:      -7.4      2.198      4.163
REMARK  6 active torsions:
REMARK  status: ('A' for Active; 'I' for Inactive)
REMARK    1  A    between atoms: C2_2  and  N1_3 
REMARK    2  A    between atoms: N1_3  and  C4_5 
REMARK    3  A    between atoms: C4_5  and  C5_6 
REMARK    4  A    between atoms: C5_6  and  C6_7 
REMARK       I    between atoms: C6_7  and  N2_9 
REMARK    5  A    between atoms: N2_9  and  C7_10 
REMARK    6  A    between atoms: C9_12  and  O2_13 
ROOT
HETATM    1  C7  UNL     1      23.476   2.692  51.865  1.00  0.00     0.085 C 
HETATM    2  C8  UNL     1      23.753   3.803  52.845  1.00  0.00     0.047 C 
HETATM    3  C9  UNL     1      21.902   2.805  51.611  1.00  0.00     0.077 C 
HETATM    4  C11 UNL     1      20.805   3.759  51.818  1.00  0.00     0.134 C 
HETATM    5  C12 UNL     1      19.512   3.133  51.350  1.00  0.00     0.070 A 
HETATM    6  C13 UNL     1      19.869   2.063  52.137  1.00  0.00     0.140 A 
HETATM    7  C14 UNL     1      20.100   0.863  52.918  1.00  0.00     0.051 A 
HETATM    8  C15 UNL     1      18.946   0.198  52.582  1.00  0.00     0.079 A 
HETATM    9  C16 UNL     1      18.762  -1.083  53.154  1.00  0.00     0.102 C 
HETATM   10  N3  UNL     1      18.604  -2.108  53.599  1.00  0.00    -0.191 NA
HETATM   11  C17 UNL     1      18.245   1.045  51.707  1.00  0.00     0.086 A 
HETATM   12  N4  UNL     1      18.618   2.215  51.305  1.00  0.00    -0.265 NA
HETATM   13  N5  UNL     1      21.252   0.423  53.701  1.00  0.00    -0.358 N 
HETATM   14  C18 UNL     1      22.627   0.554  53.195  1.00  0.00     0.036 A 
HETATM   15  C19 UNL     1      23.493   1.359  52.518  1.00  0.00    -0.004 A 
HETATM   16  C20 UNL     1      24.713   0.583  52.475  1.00  0.00     0.009 A 
HETATM   17  C21 UNL     1      24.668  -0.580  53.045  1.00  0.00    -0.004 A 
HETATM   18  C22 UNL     1      23.299  -0.724  53.573  1.00  0.00     0.131 A 
HETATM   19 BR1  UNL     1      23.263  -1.077  55.473  1.00  0.00    -0.080 Br
HETATM   20  H21 UNL     1      20.762   0.081  54.527  1.00  0.00     0.165 HD
ENDROOT
BRANCH   3  21
HETATM   21  O2  UNL     1      21.647   1.488  50.962  1.00  0.00    -0.387 OA
HETATM   22  C10 UNL     1      21.719   1.334  49.594  1.00  0.00     0.202 C 
ENDBRANCH   3  21
BRANCH   1  23
HETATM   23  N2  UNL     1      24.036   2.798  50.601  1.00  0.00    -0.345 N 
HETATM   24  C6  UNL     1      24.059   4.220  50.382  1.00  0.00     0.220 C 
HETATM   25  O1  UNL     1      23.706   5.264  51.016  1.00  0.00    -0.274 OA
HETATM   26  H11 UNL     1      24.460   2.529  49.672  1.00  0.00     0.163 HD
BRANCH  24  27
HETATM   27  C5  UNL     1      24.534   5.101  49.250  1.00  0.00     0.122 C 
BRANCH  27  28
HETATM   28  C4  UNL     1      25.589   6.006  49.830  1.00  0.00     0.126 C 
BRANCH  28  29
HETATM   29  N1  UNL     1      26.808   5.991  49.069  1.00  0.00    -0.410 N 
HETATM   30  C3  UNL     1      27.242   7.329  48.732  1.00  0.00     0.143 C 
BRANCH  29  31
HETATM   31  C2  UNL     1      27.530   4.838  48.674  1.00  0.00     0.101 C 
HETATM   32  C1  UNL     1      28.656   5.444  48.312  1.00  0.00     0.029 C 
ENDBRANCH  29  31
ENDBRANCH  28  29
ENDBRANCH  27  28
ENDBRANCH  24  27
ENDBRANCH   1  23
TORSDOF 6
ENDMDL
MODEL 4
REMARK VINA RESULT:      -7.3      2.068      3.764
REMARK  6 active torsions:
REMARK  status: ('A' for Active; 'I' for Inactive)
REMARK    1  A    between atoms: C2_2  and  N1_3 
REMARK    2  A    between atoms: N1_3  and  C4_5 
REMARK    3  A    between atoms: C4_5  and  C5_6 
REMARK    4  A    between atoms: C5_6  and  C6_7 
REMARK       I    between atoms: C6_7  and  N2_9 
REMARK    5  A    between atoms: N2_9  and  C7_10 
REMARK    6  A    between atoms: C9_12  and  O2_13 
ROOT
HETATM    1  C7  UNL     1      23.614   3.488  51.332  1.00  0.00     0.085 C 
HETATM    2  C8  UNL     1      23.755   4.721  52.187  1.00  0.00     0.047 C 
HETATM    3  C9  UNL     1      22.129   2.987  51.646  1.00  0.00     0.077 C 
HETATM    4  C11 UNL     1      20.888   3.488  52.251  1.00  0.00     0.134 C 
HETATM    5  C12 UNL     1      19.855   2.384  52.244  1.00  0.00     0.070 A 
HETATM    6  C13 UNL     1      20.833   1.611  52.826  1.00  0.00     0.140 A 
HETATM    7  C14 UNL     1      21.750   0.672  53.442  1.00  0.00     0.051 A 
HETATM    8  C15 UNL     1      20.895  -0.402  53.509  1.00  0.00     0.079 A 
HETATM    9  C16 UNL     1      21.416  -1.592  54.072  1.00  0.00     0.102 C 
HETATM   10  N3  UNL     1      21.819  -2.549  54.513  1.00  0.00    -0.191 NA
HETATM   11  C17 UNL     1      19.677   0.028  52.959  1.00  0.00     0.086 A 
HETATM   12  N4  UNL     1      19.419   1.203  52.486  1.00  0.00    -0.265 NA
HETATM   13  N5  UNL     1      23.171   0.773  53.761  1.00  0.00    -0.358 N 
HETATM   14  C18 UNL     1      24.139   1.344  52.811  1.00  0.00     0.036 A 
HETATM   15  C19 UNL     1      24.354   2.333  51.899  1.00  0.00    -0.004 A 
HETATM   16  C20 UNL     1      25.688   2.059  51.411  1.00  0.00     0.009 A 
HETATM   17  C21 UNL     1      26.282   1.029  51.926  1.00  0.00    -0.004 A 
HETATM   18  C22 UNL     1      25.332   0.451  52.894  1.00  0.00     0.131 A 
HETATM   19 BR1  UNL     1      26.067   0.315  54.676  1.00  0.00    -0.080 Br
HETATM   20  H21 UNL     1      23.154   0.366  54.696  1.00  0.00     0.165 HD
ENDROOT
BRANCH   3  21
HETATM   21  O2  UNL     1      22.194   1.607  51.089  1.00  0.00    -0.387 OA
HETATM   22  C10 UNL     1      21.872   1.346  49.774  1.00  0.00     0.202 C 
ENDBRANCH   3  21
BRANCH   1  23
HETATM   23  N2  UNL     1      23.635   3.656  49.956  1.00  0.00    -0.345 N 
HETATM   24  C6  UNL     1      24.483   4.806  49.790  1.00  0.00     0.220 C 
HETATM   25  O1  UNL     1      25.123   5.606  50.542  1.00  0.00    -0.274 OA
HETATM   26  H11 UNL     1      23.438   3.504  48.930  1.00  0.00     0.163 HD
BRANCH  24  27
HETATM   27  C5  UNL     1      24.986   5.575  48.589  1.00  0.00     0.122 C 
BRANCH  27  28
HETATM   28  C4  UNL     1      26.084   6.476  49.091  1.00  0.00     0.126 C 
BRANCH  28  29
HETATM   29  N1  UNL     1      27.320   6.286  48.383  1.00  0.00    -0.410 N 
HETATM   30  C3  UNL     1      27.640   7.428  47.555  1.00  0.00     0.143 C 
BRANCH  29  31
HETATM   31  C2  UNL     1      28.154   5.144  48.453  1.00  0.00     0.101 C 
HETATM   32  C1  UNL     1      29.318   5.755  48.256  1.00  0.00     0.029 C 
ENDBRANCH  29  31
ENDBRANCH  28  29
ENDBRANCH  27  28
ENDBRANCH  24  27
ENDBRANCH   1  23
TORSDOF 6
ENDMDL
MODEL 5
REMARK VINA RESULT:      -7.2      3.093      6.026
REMARK  6 active torsions:
REMARK  status: ('A' for Active; 'I' for Inactive)
REMARK    1  A    between atoms: C2_2  and  N1_3 
REMARK    2  A    between atoms: N1_3  and  C4_5 
REMARK    3  A    between atoms: C4_5  and  C5_6 
REMARK    4  A    between atoms: C5_6  and  C6_7 
REMARK       I    between atoms: C6_7  and  N2_9 
REMARK    5  A    between atoms: N2_9  and  C7_10 
REMARK    6  A    between atoms: C9_12  and  O2_13 
ROOT
HETATM    1  C7  UNL     1      21.399   2.195  51.275  1.00  0.00     0.085 C 
HETATM    2  C8  UNL     1      21.004   1.407  50.053  1.00  0.00     0.047 C 
HETATM    3  C9  UNL     1      22.944   2.519  51.025  1.00  0.00     0.077 C 
HETATM    4  C11 UNL     1      23.920   2.513  49.927  1.00  0.00     0.134 C 
HETATM    5  C12 UNL     1      25.274   2.913  50.469  1.00  0.00     0.070 A 
HETATM    6  C13 UNL     1      25.060   1.946  51.422  1.00  0.00     0.140 A 
HETATM    7  C14 UNL     1      24.986   0.966  52.489  1.00  0.00     0.051 A 
HETATM    8  C15 UNL     1      26.209   1.225  53.061  1.00  0.00     0.079 A 
HETATM    9  C16 UNL     1      26.554   0.451  54.196  1.00  0.00     0.102 C 
HETATM   10  N3  UNL     1      26.841  -0.154  55.103  1.00  0.00    -0.191 NA
HETATM   11  C17 UNL     1      26.789   2.254  52.302  1.00  0.00     0.086 A 
HETATM   12  N4  UNL     1      26.271   2.834  51.270  1.00  0.00    -0.265 NA
HETATM   13  N5  UNL     1      23.908   0.081  52.919  1.00  0.00    -0.358 N 
HETATM   14  C18 UNL     1      22.520   0.554  53.039  1.00  0.00     0.036 A 
HETATM   15  C19 UNL     1      21.553   1.326  52.469  1.00  0.00    -0.004 A 
HETATM   16  C20 UNL     1      20.436   1.196  53.378  1.00  0.00     0.009 A 
HETATM   17  C21 UNL     1      20.629   0.440  54.413  1.00  0.00    -0.004 A 
HETATM   18  C22 UNL     1      22.013  -0.058  54.303  1.00  0.00     0.131 A 
HETATM   19 BR1  UNL     1      22.119  -1.987  54.318  1.00  0.00    -0.080 Br
HETATM   20  H21 UNL     1      24.447  -0.774  53.055  1.00  0.00     0.165 HD
ENDROOT
BRANCH   3  21
HETATM   21  O2  UNL     1      23.348   2.945  52.394  1.00  0.00    -0.387 OA
HETATM   22  C10 UNL     1      23.363   4.273  52.759  1.00  0.00     0.202 C 
ENDBRANCH   3  21
BRANCH   1  23
HETATM   23  N2  UNL     1      20.813   3.439  51.454  1.00  0.00    -0.345 N 
HETATM   24  C6  UNL     1      19.433   3.189  51.133  1.00  0.00     0.220 C 
HETATM   25  O1  UNL     1      18.731   2.199  50.755  1.00  0.00    -0.274 OA
HETATM   26  H11 UNL     1      20.701   4.467  51.667  1.00  0.00     0.163 HD
BRANCH  24  27
HETATM   27  C5  UNL     1      18.188   4.046  51.111  1.00  0.00     0.122 C 
BRANCH  27  28
HETATM   28  C4  UNL     1      17.051   3.154  51.534  1.00  0.00     0.126 C 
BRANCH  28  29
HETATM   29  N1  UNL     1      15.821   3.876  51.711  1.00  0.00    -0.410 N 
HETATM   30  C3  UNL     1      15.243   4.262  50.443  1.00  0.00     0.143 C 
BRANCH  29  31
HETATM   31  C2  UNL     1      15.212   4.194  52.949  1.00  0.00     0.101 C 
HETATM   32  C1  UNL     1      14.406   3.140  53.033  1.00  0.00     0.029 C 
ENDBRANCH  29  31
ENDBRANCH  28  29
ENDBRANCH  27  28
ENDBRANCH  24  27
ENDBRANCH   1  23
TORSDOF 6
ENDMDL
MODEL 6
REMARK VINA RESULT:      -7.2      2.698      4.678
REMARK  6 active torsions:
REMARK  status: ('A' for Active; 'I' for Inactive)
REMARK    1  A    between atoms: C2_2  and  N1_3 
REMARK    2  A    between atoms: N1_3  and  C4_5 
REMARK    3  A    between atoms: C4_5  and  C5_6 
REMARK    4  A    between atoms: C5_6  and  C6_7 
REMARK       I    between atoms: C6_7  and  N2_9 
REMARK    5  A    between atoms: N2_9  and  C7_10 
REMARK    6  A    between atoms: C9_12  and  O2_13 
ROOT
HETATM    1  C7  UNL     1      23.783   3.260  50.841  1.00  0.00     0.085 C 
HETATM    2  C8  UNL     1      23.975   4.604  51.496  1.00  0.00     0.047 C 
HETATM    3  C9  UNL     1      22.300   2.846  51.271  1.00  0.00     0.077 C 
HETATM    4  C11 UNL     1      21.089   3.462  51.830  1.00  0.00     0.134 C 
HETATM    5  C12 UNL     1      20.037   2.394  52.021  1.00  0.00     0.070 A 
HETATM    6  C13 UNL     1      21.019   1.694  52.683  1.00  0.00     0.140 A 
HETATM    7  C14 UNL     1      21.938   0.836  53.406  1.00  0.00     0.051 A 
HETATM    8  C15 UNL     1      21.067  -0.195  53.660  1.00  0.00     0.079 A 
HETATM    9  C16 UNL     1      21.584  -1.300  54.379  1.00  0.00     0.102 C 
HETATM   10  N3  UNL     1      21.983  -2.188  54.948  1.00  0.00    -0.191 NA
HETATM   11  C17 UNL     1      19.839   0.176  53.087  1.00  0.00     0.086 A 
HETATM   12  N4  UNL     1      19.587   1.273  52.452  1.00  0.00    -0.265 NA
HETATM   13  N5  UNL     1      23.371   0.951  53.663  1.00  0.00    -0.358 N 
HETATM   14  C18 UNL     1      24.317   1.350  52.610  1.00  0.00     0.036 A 
HETATM   15  C19 UNL     1      24.520   2.186  51.553  1.00  0.00    -0.004 A 
HETATM   16  C20 UNL     1      25.832   1.811  51.072  1.00  0.00     0.009 A 
HETATM   17  C21 UNL     1      26.423   0.856  51.718  1.00  0.00    -0.004 A 
HETATM   18  C22 UNL     1      25.496   0.451  52.790  1.00  0.00     0.131 A 
HETATM   19 BR1  UNL     1      26.287   0.567  54.550  1.00  0.00    -0.080 Br
HETATM   20  H21 UNL     1      23.378   0.689  54.648  1.00  0.00     0.165 HD
ENDROOT
BRANCH   3  21
HETATM   21  O2  UNL     1      22.322   1.397  50.926  1.00  0.00    -0.387 OA
HETATM   22  C10 UNL     1      21.809   0.933  49.734  1.00  0.00     0.202 C 
ENDBRANCH   3  21
BRANCH   1  23
HETATM   23  N2  UNL     1      23.762   3.219  49.455  1.00  0.00    -0.345 N 
HETATM   24  C6  UNL     1      23.272   4.525  49.106  1.00  0.00     0.220 C 
HETATM   25  O1  UNL     1      22.889   5.569  49.721  1.00  0.00    -0.274 OA
HETATM   26  H11 UNL     1      23.862   2.862  48.466  1.00  0.00     0.163 HD
BRANCH  24  27
HETATM   27  C5  UNL     1      22.994   5.228  47.797  1.00  0.00     0.122 C 
BRANCH  27  28
HETATM   28  C4  UNL     1      21.501   5.194  47.605  1.00  0.00     0.126 C 
BRANCH  28  29
HETATM   29  N1  UNL     1      21.058   4.003  46.933  1.00  0.00    -0.410 N 
HETATM   30  C3  UNL     1      21.751   3.812  45.678  1.00  0.00     0.143 C 
BRANCH  29  31
HETATM   31  C2  UNL     1      20.074   3.100  47.400  1.00  0.00     0.101 C 
HETATM   32  C1  UNL     1      19.582   3.854  48.378  1.00  0.00     0.029 C 
ENDBRANCH  29  31
ENDBRANCH  28  29
ENDBRANCH  27  28
ENDBRANCH  24  27
ENDBRANCH   1  23
TORSDOF 6
ENDMDL
MODEL 7
REMARK VINA RESULT:      -7.1      2.654      7.287
REMARK  6 active torsions:
REMARK  status: ('A' for Active; 'I' for Inactive)
REMARK    1  A    between atoms: C2_2  and  N1_3 
REMARK    2  A    between atoms: N1_3  and  C4_5 
REMARK    3  A    between atoms: C4_5  and  C5_6 
REMARK    4  A    between atoms: C5_6  and  C6_7 
REMARK       I    between atoms: C6_7  and  N2_9 
REMARK    5  A    between atoms: N2_9  and  C7_10 
REMARK    6  A    between atoms: C9_12  and  O2_13 
ROOT
HETATM    1  C7  UNL     1      24.277   4.464  50.851  1.00  0.00     0.085 C 
HETATM    2  C8  UNL     1      23.367   4.875  51.979  1.00  0.00     0.047 C 
HETATM    3  C9  UNL     1      24.871   5.853  50.328  1.00  0.00     0.077 C 
HETATM    4  C11 UNL     1      24.992   7.249  50.767  1.00  0.00     0.134 C 
HETATM    5  C12 UNL     1      25.666   8.052  49.677  1.00  0.00     0.070 A 
HETATM    6  C13 UNL     1      24.726   7.502  48.837  1.00  0.00     0.140 A 
HETATM    7  C14 UNL     1      23.807   7.012  47.828  1.00  0.00     0.051 A 
HETATM    8  C15 UNL     1      24.320   7.707  46.759  1.00  0.00     0.079 A 
HETATM    9  C16 UNL     1      23.685   7.507  45.510  1.00  0.00     0.102 C 
HETATM   10  N3  UNL     1      23.192   7.354  44.507  1.00  0.00    -0.191 NA
HETATM   11  C17 UNL     1      25.398   8.456  47.257  1.00  0.00     0.086 A 
HETATM   12  N4  UNL     1      25.817   8.483  48.480  1.00  0.00    -0.265 NA
HETATM   13  N5  UNL     1      22.759   5.997  47.883  1.00  0.00    -0.358 N 
HETATM   14  C18 UNL     1      22.969   4.703  48.551  1.00  0.00     0.036 A 
HETATM   15  C19 UNL     1      23.516   4.085  49.635  1.00  0.00    -0.004 A 
HETATM   16  C20 UNL     1      23.226   2.686  49.408  1.00  0.00     0.009 A 
HETATM   17  C21 UNL     1      22.575   2.408  48.323  1.00  0.00    -0.004 A 
HETATM   18  C22 UNL     1      22.340   3.696  47.645  1.00  0.00     0.131 A 
HETATM   19 BR1  UNL     1      20.468   4.034  47.305  1.00  0.00    -0.080 Br
HETATM   20  H21 UNL     1      22.029   6.493  47.373  1.00  0.00     0.165 HD
ENDROOT
BRANCH   3  21
HETATM   21  O2  UNL     1      25.436   5.420  49.019  1.00  0.00    -0.387 OA
HETATM   22  C10 UNL     1      26.740   4.987  48.905  1.00  0.00     0.202 C 
ENDBRANCH   3  21
BRANCH   1  23
HETATM   23  N2  UNL     1      25.397   3.712  51.173  1.00  0.00    -0.345 N 
HETATM   24  C6  UNL     1      24.908   2.841  52.208  1.00  0.00     0.220 C 
HETATM   25  O1  UNL     1      23.812   2.651  52.822  1.00  0.00    -0.274 OA
HETATM   26  H11 UNL     1      26.388   3.347  51.169  1.00  0.00     0.163 HD
BRANCH  24  27
HETATM   27  C5  UNL     1      25.531   1.740  53.036  1.00  0.00     0.122 C 
BRANCH  27  28
HETATM   28  C4  UNL     1      27.023   1.906  52.910  1.00  0.00     0.126 C 
BRANCH  28  29
HETATM   29  N1  UNL     1      27.750   1.050  53.806  1.00  0.00    -0.410 N 
HETATM   30  C3  UNL     1      26.861   0.315  54.678  1.00  0.00     0.143 C 
BRANCH  29  31
HETATM   31  C2  UNL     1      29.158   0.910  53.866  1.00  0.00     0.101 C 
HETATM   32  C1  UNL     1      29.215  -0.411  53.728  1.00  0.00     0.029 C 
ENDBRANCH  29  31
ENDBRANCH  28  29
ENDBRANCH  27  28
ENDBRANCH  24  27
ENDBRANCH   1  23
TORSDOF 6
ENDMDL
MODEL 8
REMARK VINA RESULT:      -7.1      2.630      6.034
REMARK  6 active torsions:
REMARK  status: ('A' for Active; 'I' for Inactive)
REMARK    1  A    between atoms: C2_2  and  N1_3 
REMARK    2  A    between atoms: N1_3  and  C4_5 
REMARK    3  A    between atoms: C4_5  and  C5_6 
REMARK    4  A    between atoms: C5_6  and  C6_7 
REMARK       I    between atoms: C6_7  and  N2_9 
REMARK    5  A    between atoms: N2_9  and  C7_10 
REMARK    6  A    between atoms: C9_12  and  O2_13 
ROOT
HETATM    1  C7  UNL     1      24.482   2.921  52.527  1.00  0.00     0.085 C 
HETATM    2  C8  UNL     1      24.537   3.674  53.832  1.00  0.00     0.047 C 
HETATM    3  C9  UNL     1      23.709   3.923  51.552  1.00  0.00     0.077 C 
HETATM    4  C11 UNL     1      23.323   5.339  51.486  1.00  0.00     0.134 C 
HETATM    5  C12 UNL     1      22.527   5.575  50.223  1.00  0.00     0.070 A 
HETATM    6  C13 UNL     1      21.766   4.504  50.630  1.00  0.00     0.140 A 
HETATM    7  C14 UNL     1      20.871   3.400  50.920  1.00  0.00     0.051 A 
HETATM    8  C15 UNL     1      20.061   3.525  49.817  1.00  0.00     0.079 A 
HETATM    9  C16 UNL     1      19.001   2.594  49.699  1.00  0.00     0.102 C 
HETATM   10  N3  UNL     1      18.156   1.855  49.590  1.00  0.00    -0.191 NA
HETATM   11  C17 UNL     1      20.561   4.613  49.082  1.00  0.00     0.086 A 
HETATM   12  N4  UNL     1      21.580   5.346  49.390  1.00  0.00    -0.265 NA
HETATM   13  N5  UNL     1      20.896   2.381  51.965  1.00  0.00    -0.358 N 
HETATM   14  C18 UNL     1      22.137   1.685  52.338  1.00  0.00     0.036 A 
HETATM   15  C19 UNL     1      23.474   1.832  52.559  1.00  0.00    -0.004 A 
HETATM   16  C20 UNL     1      23.913   0.491  52.880  1.00  0.00     0.009 A 
HETATM   17  C21 UNL     1      22.996  -0.424  52.875  1.00  0.00    -0.004 A 
HETATM   18  C22 UNL     1      21.738   0.258  52.518  1.00  0.00     0.131 A 
HETATM   19 BR1  UNL     1      20.350   0.009  53.839  1.00  0.00    -0.080 Br
HETATM   20  H21 UNL     1      19.910   2.395  52.225  1.00  0.00     0.165 HD
ENDROOT
BRANCH   3  21
HETATM   21  O2  UNL     1      23.364   2.993  50.440  1.00  0.00    -0.387 OA
HETATM   22  C10 UNL     1      24.162   2.880  49.322  1.00  0.00     0.202 C 
ENDBRANCH   3  21
BRANCH   1  23
HETATM   23  N2  UNL     1      25.683   2.671  51.881  1.00  0.00    -0.345 N 
HETATM   24  C6  UNL     1      26.551   2.285  52.961  1.00  0.00     0.220 C 
HETATM   25  O1  UNL     1      26.465   2.155  54.222  1.00  0.00    -0.274 OA
HETATM   26  H11 UNL     1      26.401   2.577  51.112  1.00  0.00     0.163 HD
BRANCH  24  27
HETATM   27  C5  UNL     1      27.998   1.854  53.043  1.00  0.00     0.122 C 
BRANCH  27  28
HETATM   28  C4  UNL     1      28.051   0.733  54.047  1.00  0.00     0.126 C 
BRANCH  28  29
HETATM   29  N1  UNL     1      28.148  -0.559  53.425  1.00  0.00    -0.410 N 
HETATM   30  C3  UNL     1      29.497  -1.077  53.482  1.00  0.00     0.143 C 
BRANCH  29  31
HETATM   31  C2  UNL     1      27.087  -1.274  52.821  1.00  0.00     0.101 C 
HETATM   32  C1  UNL     1      27.700  -2.448  52.703  1.00  0.00     0.029 C 
ENDBRANCH  29  31
ENDBRANCH  28  29
ENDBRANCH  27  28
ENDBRANCH  24  27
ENDBRANCH   1  23
TORSDOF 6
ENDMDL
MODEL 9
REMARK VINA RESULT:      -7.1      2.640      3.817
REMARK  6 active torsions:
REMARK  status: ('A' for Active; 'I' for Inactive)
REMARK    1  A    between atoms: C2_2  and  N1_3 
REMARK    2  A    between atoms: N1_3  and  C4_5 
REMARK    3  A    between atoms: C4_5  and  C5_6 
REMARK    4  A    between atoms: C5_6  and  C6_7 
REMARK       I    between atoms: C6_7  and  N2_9 
REMARK    5  A    between atoms: N2_9  and  C7_10 
REMARK    6  A    between atoms: C9_12  and  O2_13 
ROOT
HETATM    1  C7  UNL     1      25.365   5.193  49.755  1.00  0.00     0.085 C 
HETATM    2  C8  UNL     1      26.579   4.759  48.974  1.00  0.00     0.047 C 
HETATM    3  C9  UNL     1      25.101   3.964  50.743  1.00  0.00     0.077 C 
HETATM    4  C11 UNL     1      25.796   2.777  51.255  1.00  0.00     0.134 C 
HETATM    5  C12 UNL     1      24.861   2.012  52.164  1.00  0.00     0.070 A 
HETATM    6  C13 UNL     1      23.961   2.090  51.128  1.00  0.00     0.140 A 
HETATM    7  C14 UNL     1      22.906   2.084  50.132  1.00  0.00     0.051 A 
HETATM    8  C15 UNL     1      21.975   1.377  50.855  1.00  0.00     0.079 A 
HETATM    9  C16 UNL     1      20.731   1.137  50.224  1.00  0.00     0.102 C 
HETATM   10  N3  UNL     1      19.733   0.942  49.734  1.00  0.00    -0.191 NA
HETATM   11  C17 UNL     1      22.574   1.087  52.092  1.00  0.00     0.086 A 
HETATM   12  N4  UNL     1      23.765   1.420  52.467  1.00  0.00    -0.265 NA
HETATM   13  N5  UNL     1      22.796   2.739  48.832  1.00  0.00    -0.358 N 
HETATM   14  C18 UNL     1      23.196   4.142  48.637  1.00  0.00     0.036 A 
HETATM   15  C19 UNL     1      24.123   5.090  48.949  1.00  0.00    -0.004 A 
HETATM   16  C20 UNL     1      23.640   6.272  48.268  1.00  0.00     0.009 A 
HETATM   17  C21 UNL     1      22.543   6.132  47.593  1.00  0.00    -0.004 A 
HETATM   18  C22 UNL     1      22.134   4.726  47.765  1.00  0.00     0.131 A 
HETATM   19 BR1  UNL     1      21.923   3.796  46.083  1.00  0.00    -0.080 Br
HETATM   20  H21 UNL     1      22.415   1.963  48.293  1.00  0.00     0.165 HD
ENDROOT
BRANCH   3  21
HETATM   21  O2  UNL     1      23.716   4.282  51.191  1.00  0.00    -0.387 OA
HETATM   22  C10 UNL     1      23.480   5.033  52.323  1.00  0.00     0.202 C 
ENDBRANCH   3  21
BRANCH   1  23
HETATM   23  N2  UNL     1      25.500   6.287  50.596  1.00  0.00    -0.345 N 
HETATM   24  C6  UNL     1      26.262   7.209  49.797  1.00  0.00     0.220 C 
HETATM   25  O1  UNL     1      26.782   7.225  48.638  1.00  0.00    -0.274 OA
HETATM   26  H11 UNL     1      25.421   6.905  51.448  1.00  0.00     0.163 HD
BRANCH  24  27
HETATM   27  C5  UNL     1      26.785   8.610  50.022  1.00  0.00     0.122 C 
BRANCH  27  28
HETATM   28  C4  UNL     1      27.520   8.996  48.765  1.00  0.00     0.126 C 
BRANCH  28  29
HETATM   29  N1  UNL     1      28.631   9.869  49.023  1.00  0.00    -0.410 N 
HETATM   30  C3  UNL     1      28.280  11.255  48.805  1.00  0.00     0.143 C 
BRANCH  29  31
HETATM   31  C2  UNL     1      29.925   9.472  49.440  1.00  0.00     0.101 C 
HETATM   32  C1  UNL     1      30.217   8.687  48.408  1.00  0.00     0.029 C 
ENDBRANCH  29  31
ENDBRANCH  28  29
ENDBRANCH  27  28
ENDBRANCH  24  27
ENDBRANCH   1  23
TORSDOF 6
ENDMDL
