MODEL 1
REMARK VINA RESULT:      -7.3      0.000      0.000
REMARK  3 active torsions:
REMARK  status: ('A' for Active; 'I' for Inactive)
REMARK    1  A    between atoms: N1_1  and  C1_2 
REMARK    2  A    between atoms: C3_5  and  C4_6 
REMARK    3  A    between atoms: C4_6  and  C5_7 
ROOT
HETATM    1  C1  UNL     1      20.860   2.018  49.936  1.00  0.00     0.124 C 
HETATM    2  N2  UNL     1      20.577   3.012  50.809  1.00  0.00    -0.236 NA
HETATM    3  C2  UNL     1      21.781   3.810  51.160  1.00  0.00     0.061 C 
HETATM    4  C3  UNL     1      22.442   4.775  50.542  1.00  0.00     0.034 C 
HETATM    5  N3  UNL     1      22.705   4.816  49.117  1.00  0.00    -0.368 N 
HETATM    6  C6  UNL     1      22.699   3.765  48.084  1.00  0.00     0.086 C 
HETATM    7  C7  UNL     1      22.539   2.429  48.318  1.00  0.00     0.022 C 
HETATM    8  C8  UNL     1      22.290   1.592  49.582  1.00  0.00     0.171 C 
HETATM    9  N4  UNL     1      23.186   2.062  50.553  1.00  0.00    -0.398 N 
HETATM   10  C9  UNL     1      22.996   2.024  51.970  1.00  0.00     0.039 C 
HETATM   11  C10 UNL     1      21.943   1.135  52.451  1.00  0.00     0.060 C 
HETATM   12  C11 UNL     1      22.138   0.272  53.639  1.00  0.00    -0.001 C 
HETATM   13  C12 UNL     1      23.169  -0.483  54.094  1.00  0.00     0.031 C 
HETATM   14 CL1  UNL     1      23.142  -1.449  55.588  1.00  0.00    -0.085 Cl
HETATM   15  C13 UNL     1      24.440  -0.533  53.319  1.00  0.00     0.043 C 
HETATM   16  C14 UNL     1      24.942   0.525  52.633  1.00  0.00     0.015 C 
HETATM   17 CL2  UNL     1      26.470   0.099  51.828  1.00  0.00    -0.089 Cl
HETATM   18  C15 UNL     1      24.385   1.878  52.523  1.00  0.00     0.082 C 
HETATM   19  C16 UNL     1      22.581   3.523  52.376  1.00  0.00     0.092 C 
HETATM   20  H7  UNL     1      22.941   5.797  48.905  1.00  0.00     0.165 HD
HETATM   21  H11 UNL     1      24.144   2.118  50.203  1.00  0.00     0.155 HD
ENDROOT
BRANCH   1  22
HETATM   22  N1  UNL     1      19.765   1.347  49.326  1.00  0.00    -0.385 N 
HETATM   23  H1  UNL     1      18.832   1.310  49.814  1.00  0.00     0.157 HD
HETATM   24  H2  UNL     1      19.864   0.884  48.395  1.00  0.00     0.157 HD
ENDBRANCH   1  22
BRANCH   4  25
HETATM   25  C4  UNL     1      22.898   5.714  51.481  1.00  0.00     0.070 C 
BRANCH  25  26
HETATM   26  C5  UNL     1      24.055   6.611  51.259  1.00  0.00     0.091 C 
HETATM   27 BR1  UNL     1      23.955   8.138  50.171  1.00  0.00    -0.096 Br
ENDBRANCH  25  26
ENDBRANCH   4  25
TORSDOF 3
ENDMDL
MODEL 2
REMARK VINA RESULT:      -7.2      2.140      4.008
REMARK  3 active torsions:
REMARK  status: ('A' for Active; 'I' for Inactive)
REMARK    1  A    between atoms: N1_1  and  C1_2 
REMARK    2  A    between atoms: C3_5  and  C4_6 
REMARK    3  A    between atoms: C4_6  and  C5_7 
ROOT
HETATM    1  C1  UNL     1      23.872   5.574  51.235  1.00  0.00     0.124 C 
HETATM    2  N2  UNL     1      24.378   5.262  50.019  1.00  0.00    -0.236 NA
HETATM    3  C2  UNL     1      23.466   4.382  49.243  1.00  0.00     0.061 C 
HETATM    4  C3  UNL     1      22.369   4.608  48.538  1.00  0.00     0.034 C 
HETATM    5  N3  UNL     1      21.320   5.533  48.916  1.00  0.00    -0.368 N 
HETATM    6  C6  UNL     1      20.959   6.138  50.210  1.00  0.00     0.086 C 
HETATM    7  C7  UNL     1      21.525   5.826  51.412  1.00  0.00     0.022 C 
HETATM    8  C8  UNL     1      22.652   4.874  51.844  1.00  0.00     0.171 C 
HETATM    9  N4  UNL     1      22.418   3.658  51.186  1.00  0.00    -0.398 N 
HETATM   10  C9  UNL     1      23.405   2.693  50.813  1.00  0.00     0.039 C 
HETATM   11  C10 UNL     1      24.708   2.830  51.456  1.00  0.00     0.060 C 
HETATM   12  C11 UNL     1      25.451   1.653  51.964  1.00  0.00    -0.001 C 
HETATM   13  C12 UNL     1      25.090   0.531  52.633  1.00  0.00     0.031 C 
HETATM   14 CL1  UNL     1      26.208  -0.757  53.139  1.00  0.00    -0.085 Cl
HETATM   15  C13 UNL     1      23.659   0.316  52.987  1.00  0.00     0.043 C 
HETATM   16  C14 UNL     1      22.625   0.708  52.201  1.00  0.00     0.015 C 
HETATM   17 CL2  UNL     1      21.063   0.290  52.942  1.00  0.00    -0.089 Cl
HETATM   18  C15 UNL     1      22.684   1.378  50.897  1.00  0.00     0.082 C 
HETATM   19  C16 UNL     1      23.624   2.907  49.235  1.00  0.00     0.092 C 
HETATM   20  H7  UNL     1      20.788   5.719  48.052  1.00  0.00     0.165 HD
HETATM   21  H11 UNL     1      21.456   3.334  51.297  1.00  0.00     0.155 HD
ENDROOT
BRANCH   1  22
HETATM   22  N1  UNL     1      24.519   6.605  51.971  1.00  0.00    -0.385 N 
HETATM   23  H1  UNL     1      25.220   7.232  51.495  1.00  0.00     0.157 HD
HETATM   24  H2  UNL     1      24.313   6.760  52.984  1.00  0.00     0.157 HD
ENDBRANCH   1  22
BRANCH   4  25
HETATM   25  C4  UNL     1      22.352   3.773  47.409  1.00  0.00     0.070 C 
BRANCH  25  26
HETATM   26  C5  UNL     1      21.647   4.101  46.149  1.00  0.00     0.091 C 
HETATM   27 BR1  UNL     1      22.027   5.646  45.152  1.00  0.00    -0.096 Br
ENDBRANCH  25  26
ENDBRANCH   4  25
TORSDOF 3
ENDMDL
MODEL 3
REMARK VINA RESULT:      -6.7      2.507      4.089
REMARK  3 active torsions:
REMARK  status: ('A' for Active; 'I' for Inactive)
REMARK    1  A    between atoms: N1_1  and  C1_2 
REMARK    2  A    between atoms: C3_5  and  C4_6 
REMARK    3  A    between atoms: C4_6  and  C5_7 
ROOT
HETATM    1  C1  UNL     1      23.205   4.440  52.240  1.00  0.00     0.124 C 
HETATM    2  N2  UNL     1      24.042   3.813  51.383  1.00  0.00    -0.236 NA
HETATM    3  C2  UNL     1      23.329   3.274  50.195  1.00  0.00     0.061 C 
HETATM    4  C3  UNL     1      22.878   3.827  49.080  1.00  0.00     0.034 C 
HETATM    5  N3  UNL     1      22.244   5.127  48.999  1.00  0.00    -0.368 N 
HETATM    6  C6  UNL     1      21.602   5.975  50.018  1.00  0.00     0.086 C 
HETATM    7  C7  UNL     1      21.367   5.612  51.313  1.00  0.00     0.022 C 
HETATM    8  C8  UNL     1      21.677   4.353  52.139  1.00  0.00     0.171 C 
HETATM    9  N4  UNL     1      21.310   3.257  51.345  1.00  0.00    -0.398 N 
HETATM   10  C9  UNL     1      21.876   1.945  51.398  1.00  0.00     0.039 C 
HETATM   11  C10 UNL     1      22.664   1.636  52.587  1.00  0.00     0.060 C 
HETATM   12  C11 UNL     1      22.545   0.332  53.280  1.00  0.00    -0.001 C 
HETATM   13  C12 UNL     1      21.500  -0.470  53.600  1.00  0.00     0.031 C 
HETATM   14 CL1  UNL     1      21.633  -2.023  54.459  1.00  0.00    -0.085 Cl
HETATM   15  C13 UNL     1      20.118  -0.063  53.220  1.00  0.00     0.043 C 
HETATM   16  C14 UNL     1      19.822   0.607  52.078  1.00  0.00     0.015 C 
HETATM   17 CL2  UNL     1      18.076   0.926  51.957  1.00  0.00    -0.089 Cl
HETATM   18  C15 UNL     1      20.741   1.038  51.018  1.00  0.00     0.082 C 
HETATM   19  C16 UNL     1      22.866   1.866  50.134  1.00  0.00     0.092 C 
HETATM   20  H7  UNL     1      22.298   5.402  48.007  1.00  0.00     0.165 HD
HETATM   21  H11 UNL     1      20.368   3.353  50.963  1.00  0.00     0.155 HD
ENDROOT
BRANCH   1  22
HETATM   22  N1  UNL     1      23.788   5.216  53.280  1.00  0.00    -0.385 N 
HETATM   23  H1  UNL     1      24.622   4.846  53.808  1.00  0.00     0.157 HD
HETATM   24  H2  UNL     1      23.406   6.154  53.537  1.00  0.00     0.157 HD
ENDBRANCH   1  22
BRANCH   4  25
HETATM   25  C4  UNL     1      23.052   2.937  48.008  1.00  0.00     0.070 C 
BRANCH  25  26
HETATM   26  C5  UNL     1      22.067   2.752  46.918  1.00  0.00     0.091 C 
HETATM   27 BR1  UNL     1      21.799   4.032  45.571  1.00  0.00    -0.096 Br
ENDBRANCH  25  26
ENDBRANCH   4  25
TORSDOF 3
ENDMDL
MODEL 4
REMARK VINA RESULT:      -6.7      3.630      5.395
REMARK  3 active torsions:
REMARK  status: ('A' for Active; 'I' for Inactive)
REMARK    1  A    between atoms: N1_1  and  C1_2 
REMARK    2  A    between atoms: C3_5  and  C4_6 
REMARK    3  A    between atoms: C4_6  and  C5_7 
ROOT
HETATM    1  C1  UNL     1      24.019   4.966  52.084  1.00  0.00     0.124 C 
HETATM    2  N2  UNL     1      24.037   4.030  53.061  1.00  0.00    -0.236 NA
HETATM    3  C2  UNL     1      24.118   2.650  52.514  1.00  0.00     0.061 C 
HETATM    4  C3  UNL     1      25.113   1.922  52.035  1.00  0.00     0.034 C 
HETATM    5  N3  UNL     1      26.178   2.427  51.193  1.00  0.00    -0.368 N 
HETATM    6  C6  UNL     1      26.285   3.640  50.361  1.00  0.00     0.086 C 
HETATM    7  C7  UNL     1      25.274   4.526  50.124  1.00  0.00     0.022 C 
HETATM    8  C8  UNL     1      23.816   4.631  50.601  1.00  0.00     0.171 C 
HETATM    9  N4  UNL     1      23.262   3.349  50.470  1.00  0.00    -0.398 N 
HETATM   10  C9  UNL     1      22.194   2.804  51.249  1.00  0.00     0.039 C 
HETATM   11  C10 UNL     1      21.406   3.765  52.014  1.00  0.00     0.060 C 
HETATM   12  C11 UNL     1      19.929   3.676  52.084  1.00  0.00    -0.001 C 
HETATM   13  C12 UNL     1      18.959   3.401  51.177  1.00  0.00     0.031 C 
HETATM   14 CL1  UNL     1      17.216   3.360  51.529  1.00  0.00    -0.085 Cl
HETATM   15  C13 UNL     1      19.338   3.098  49.768  1.00  0.00     0.043 C 
HETATM   16  C14 UNL     1      20.465   2.427  49.422  1.00  0.00     0.015 C 
HETATM   17 CL2  UNL     1      20.589   2.252  47.656  1.00  0.00    -0.089 Cl
HETATM   18  C15 UNL     1      21.492   1.868  50.308  1.00  0.00     0.082 C 
HETATM   19  C16 UNL     1      22.906   1.821  52.303  1.00  0.00     0.092 C 
HETATM   20  H7  UNL     1      26.936   1.730  51.251  1.00  0.00     0.165 HD
HETATM   21  H11 UNL     1      23.431   2.946  49.547  1.00  0.00     0.155 HD
ENDROOT
BRANCH   1  22
HETATM   22  N1  UNL     1      24.199   6.323  52.470  1.00  0.00    -0.385 N 
HETATM   23  H1  UNL     1      25.071   6.841  52.181  1.00  0.00     0.157 HD
HETATM   24  H2  UNL     1      23.481   6.825  53.039  1.00  0.00     0.157 HD
ENDBRANCH   1  22
BRANCH   4  25
HETATM   25  C4  UNL     1      24.943   0.581  52.416  1.00  0.00     0.070 C 
BRANCH  25  26
HETATM   26  C5  UNL     1      26.010  -0.249  53.021  1.00  0.00     0.091 C 
HETATM   27 BR1  UNL     1      26.971   0.291  54.541  1.00  0.00    -0.096 Br
ENDBRANCH  25  26
ENDBRANCH   4  25
TORSDOF 3
ENDMDL
MODEL 5
REMARK VINA RESULT:      -6.6      2.982      4.250
REMARK  3 active torsions:
REMARK  status: ('A' for Active; 'I' for Inactive)
REMARK    1  A    between atoms: N1_1  and  C1_2 
REMARK    2  A    between atoms: C3_5  and  C4_6 
REMARK    3  A    between atoms: C4_6  and  C5_7 
ROOT
HETATM    1  C1  UNL     1      22.543   6.824  50.524  1.00  0.00     0.124 C 
HETATM    2  N2  UNL     1      23.842   6.823  50.903  1.00  0.00    -0.236 NA
HETATM    3  C2  UNL     1      24.697   6.046  49.967  1.00  0.00     0.061 C 
HETATM    4  C3  UNL     1      25.222   6.315  48.782  1.00  0.00     0.034 C 
HETATM    5  N3  UNL     1      24.548   7.040  47.725  1.00  0.00    -0.368 N 
HETATM    6  C6  UNL     1      23.123   7.325  47.478  1.00  0.00     0.086 C 
HETATM    7  C7  UNL     1      22.081   6.820  48.201  1.00  0.00     0.022 C 
HETATM    8  C8  UNL     1      21.983   5.904  49.432  1.00  0.00     0.171 C 
HETATM    9  N4  UNL     1      22.865   4.838  49.205  1.00  0.00    -0.398 N 
HETATM   10  C9  UNL     1      23.537   4.066  50.204  1.00  0.00     0.039 C 
HETATM   11  C10 UNL     1      23.014   4.183  51.561  1.00  0.00     0.060 C 
HETATM   12  C11 UNL     1      22.853   2.998  52.436  1.00  0.00    -0.001 C 
HETATM   13  C12 UNL     1      22.413   1.731  52.232  1.00  0.00     0.031 C 
HETATM   14 CL1  UNL     1      22.316   0.473  53.486  1.00  0.00    -0.085 Cl
HETATM   15  C13 UNL     1      21.973   1.318  50.870  1.00  0.00     0.043 C 
HETATM   16  C14 UNL     1      22.546   1.771  49.727  1.00  0.00     0.015 C 
HETATM   17 CL2  UNL     1      21.762   1.067  48.294  1.00  0.00    -0.089 Cl
HETATM   18  C15 UNL     1      23.671   2.703  49.587  1.00  0.00     0.082 C 
HETATM   19  C16 UNL     1      25.044   4.626  50.221  1.00  0.00     0.092 C 
HETATM   20  H7  UNL     1      25.292   7.355  47.084  1.00  0.00     0.165 HD
HETATM   21  H11 UNL     1      22.731   4.412  48.286  1.00  0.00     0.155 HD
ENDROOT
BRANCH   1  22
HETATM   22  N1  UNL     1      21.668   7.732  51.181  1.00  0.00    -0.385 N 
HETATM   23  H1  UNL     1      20.959   8.277  50.623  1.00  0.00     0.157 HD
HETATM   24  H2  UNL     1      21.711   7.874  52.215  1.00  0.00     0.157 HD
ENDBRANCH   1  22
BRANCH   4  25
HETATM   25  C4  UNL     1      26.499   5.738  48.688  1.00  0.00     0.070 C 
BRANCH  25  26
HETATM   26  C5  UNL     1      27.736   6.506  48.422  1.00  0.00     0.091 C 
HETATM   27 BR1  UNL     1      29.405   5.681  48.179  1.00  0.00    -0.096 Br
ENDBRANCH  25  26
ENDBRANCH   4  25
TORSDOF 3
ENDMDL
MODEL 6
REMARK VINA RESULT:      -6.6      4.267      5.869
REMARK  3 active torsions:
REMARK  status: ('A' for Active; 'I' for Inactive)
REMARK    1  A    between atoms: N1_1  and  C1_2 
REMARK    2  A    between atoms: C3_5  and  C4_6 
REMARK    3  A    between atoms: C4_6  and  C5_7 
ROOT
HETATM    1  C1  UNL     1      24.003   6.482  50.557  1.00  0.00     0.124 C 
HETATM    2  N2  UNL     1      24.241   5.449  51.397  1.00  0.00    -0.236 NA
HETATM    3  C2  UNL     1      24.778   4.260  50.684  1.00  0.00     0.061 C 
HETATM    4  C3  UNL     1      25.978   3.942  50.227  1.00  0.00     0.034 C 
HETATM    5  N3  UNL     1      26.891   4.866  49.585  1.00  0.00    -0.368 N 
HETATM    6  C6  UNL     1      26.676   6.174  48.939  1.00  0.00     0.086 C 
HETATM    7  C7  UNL     1      25.460   6.751  48.710  1.00  0.00     0.022 C 
HETATM    8  C8  UNL     1      24.012   6.346  49.030  1.00  0.00     0.171 C 
HETATM    9  N4  UNL     1      23.888   4.997  48.668  1.00  0.00    -0.398 N 
HETATM   10  C9  UNL     1      22.989   4.045  49.242  1.00  0.00     0.039 C 
HETATM   11  C10 UNL     1      21.894   4.596  50.035  1.00  0.00     0.060 C 
HETATM   12  C11 UNL     1      20.514   4.068  49.925  1.00  0.00    -0.001 C 
HETATM   13  C12 UNL     1      19.739   3.670  48.886  1.00  0.00     0.031 C 
HETATM   14 CL1  UNL     1      18.073   3.065  49.031  1.00  0.00    -0.085 Cl
HETATM   15  C13 UNL     1      20.286   3.723  47.501  1.00  0.00     0.043 C 
HETATM   16  C14 UNL     1      21.585   3.476  47.198  1.00  0.00     0.015 C 
HETATM   17 CL2  UNL     1      21.876   3.632  45.450  1.00  0.00    -0.089 Cl
HETATM   18  C15 UNL     1      22.673   3.108  48.111  1.00  0.00     0.082 C 
HETATM   19  C16 UNL     1      23.895   3.157  50.229  1.00  0.00     0.092 C 
HETATM   20  H7  UNL     1      27.820   4.422  49.635  1.00  0.00     0.165 HD
HETATM   21  H11 UNL     1      24.234   4.814  47.724  1.00  0.00     0.155 HD
ENDROOT
BRANCH   1  22
HETATM   22  N1  UNL     1      23.732   7.752  51.138  1.00  0.00    -0.385 N 
HETATM   23  H1  UNL     1      22.759   8.154  51.094  1.00  0.00     0.157 HD
HETATM   24  H2  UNL     1      24.483   8.303  51.612  1.00  0.00     0.157 HD
ENDBRANCH   1  22
BRANCH   4  25
HETATM   25  C4  UNL     1      26.203   2.567  50.404  1.00  0.00     0.070 C 
BRANCH  25  26
HETATM   26  C5  UNL     1      26.842   1.981  51.605  1.00  0.00     0.091 C 
HETATM   27 BR1  UNL     1      26.538   0.210  52.149  1.00  0.00    -0.096 Br
ENDBRANCH  25  26
ENDBRANCH   4  25
TORSDOF 3
ENDMDL
MODEL 7
REMARK VINA RESULT:      -6.4      4.107      6.302
REMARK  3 active torsions:
REMARK  status: ('A' for Active; 'I' for Inactive)
REMARK    1  A    between atoms: N1_1  and  C1_2 
REMARK    2  A    between atoms: C3_5  and  C4_6 
REMARK    3  A    between atoms: C4_6  and  C5_7 
ROOT
HETATM    1  C1  UNL     1      24.438   5.762  50.815  1.00  0.00     0.124 C 
HETATM    2  N2  UNL     1      23.790   5.035  51.754  1.00  0.00    -0.236 NA
HETATM    3  C2  UNL     1      23.555   3.635  51.314  1.00  0.00     0.061 C 
HETATM    4  C3  UNL     1      24.324   2.560  51.257  1.00  0.00     0.034 C 
HETATM    5  N3  UNL     1      25.716   2.559  50.857  1.00  0.00    -0.368 N 
HETATM    6  C6  UNL     1      26.522   3.528  50.092  1.00  0.00     0.086 C 
HETATM    7  C7  UNL     1      26.036   4.644  49.473  1.00  0.00     0.022 C 
HETATM    8  C8  UNL     1      24.643   5.285  49.373  1.00  0.00     0.171 C 
HETATM    9  N4  UNL     1      23.748   4.245  49.080  1.00  0.00    -0.398 N 
HETATM   10  C9  UNL     1      22.360   4.200  49.422  1.00  0.00     0.039 C 
HETATM   11  C10 UNL     1      21.757   5.470  49.815  1.00  0.00     0.060 C 
HETATM   12  C11 UNL     1      20.414   5.873  49.334  1.00  0.00    -0.001 C 
HETATM   13  C12 UNL     1      19.778   5.786  48.140  1.00  0.00     0.031 C 
HETATM   14 CL1  UNL     1      18.126   6.363  47.821  1.00  0.00    -0.085 Cl
HETATM   15  C13 UNL     1      20.476   5.163  46.980  1.00  0.00     0.043 C 
HETATM   16  C14 UNL     1      21.336   4.120  47.095  1.00  0.00     0.015 C 
HETATM   17 CL2  UNL     1      21.979   3.642  45.506  1.00  0.00    -0.089 Cl
HETATM   18  C15 UNL     1      21.733   3.405  48.313  1.00  0.00     0.082 C 
HETATM   19  C16 UNL     1      22.274   3.217  50.691  1.00  0.00     0.092 C 
HETATM   20  H7  UNL     1      26.109   1.674  51.210  1.00  0.00     0.165 HD
HETATM   21  H11 UNL     1      24.063   3.671  48.297  1.00  0.00     0.155 HD
ENDROOT
BRANCH   1  22
HETATM   22  N1  UNL     1      24.948   7.032  51.204  1.00  0.00    -0.385 N 
HETATM   23  H1  UNL     1      24.560   7.911  50.770  1.00  0.00     0.157 HD
HETATM   24  H2  UNL     1      25.706   7.116  51.918  1.00  0.00     0.157 HD
ENDBRANCH   1  22
BRANCH   4  25
HETATM   25  C4  UNL     1      23.570   1.421  51.584  1.00  0.00     0.070 C 
BRANCH  25  26
HETATM   26  C5  UNL     1      23.769   0.622  52.815  1.00  0.00     0.091 C 
HETATM   27 BR1  UNL     1      22.393  -0.389  53.597  1.00  0.00    -0.096 Br
ENDBRANCH  25  26
ENDBRANCH   4  25
TORSDOF 3
ENDMDL
MODEL 8
REMARK VINA RESULT:      -6.3      9.495     11.306
REMARK  3 active torsions:
REMARK  status: ('A' for Active; 'I' for Inactive)
REMARK    1  A    between atoms: N1_1  and  C1_2 
REMARK    2  A    between atoms: C3_5  and  C4_6 
REMARK    3  A    between atoms: C4_6  and  C5_7 
ROOT
HETATM    1  C1  UNL     1      29.314   7.607  48.350  1.00  0.00     0.124 C 
HETATM    2  N2  UNL     1      30.165   8.398  49.042  1.00  0.00    -0.236 NA
HETATM    3  C2  UNL     1      31.087   9.146  48.147  1.00  0.00     0.061 C 
HETATM    4  C3  UNL     1      30.948  10.235  47.408  1.00  0.00     0.034 C 
HETATM    5  N3  UNL     1      29.767  10.566  46.636  1.00  0.00    -0.368 N 
HETATM    6  C6  UNL     1      28.647   9.742  46.146  1.00  0.00     0.086 C 
HETATM    7  C7  UNL     1      28.568   8.382  46.241  1.00  0.00     0.022 C 
HETATM    8  C8  UNL     1      29.473   7.303  46.856  1.00  0.00     0.171 C 
HETATM    9  N4  UNL     1      30.780   7.597  46.443  1.00  0.00    -0.398 N 
HETATM   10  C9  UNL     1      31.983   7.272  47.143  1.00  0.00     0.039 C 
HETATM   11  C10 UNL     1      31.859   6.274  48.200  1.00  0.00     0.060 C 
HETATM   12  C11 UNL     1      32.862   5.199  48.375  1.00  0.00    -0.001 C 
HETATM   13  C12 UNL     1      33.544   4.400  47.517  1.00  0.00     0.031 C 
HETATM   14 CL1  UNL     1      34.720   3.155  47.999  1.00  0.00    -0.085 Cl
HETATM   15  C13 UNL     1      33.325   4.543  46.050  1.00  0.00     0.043 C 
HETATM   16  C14 UNL     1      33.080   5.731  45.441  1.00  0.00     0.015 C 
HETATM   17 CL2  UNL     1      32.869   5.520  43.688  1.00  0.00    -0.089 Cl
HETATM   18  C15 UNL     1      32.997   7.061  46.055  1.00  0.00     0.082 C 
HETATM   19  C16 UNL     1      32.449   8.647  47.835  1.00  0.00     0.092 C 
HETATM   20  H7  UNL     1      29.834  11.576  46.442  1.00  0.00     0.165 HD
HETATM   21  H11 UNL     1      30.844   7.751  45.435  1.00  0.00     0.155 HD
ENDROOT
BRANCH   1  22
HETATM   22  N1  UNL     1      28.221   7.037  49.061  1.00  0.00    -0.385 N 
HETATM   23  H1  UNL     1      27.419   6.603  48.534  1.00  0.00     0.157 HD
HETATM   24  H2  UNL     1      28.194   7.039  50.106  1.00  0.00     0.157 HD
ENDBRANCH   1  22
BRANCH   4  25
HETATM   25  C4  UNL     1      32.137  10.981  47.436  1.00  0.00     0.070 C 
BRANCH  25  26
HETATM   26  C5  UNL     1      32.694  11.695  46.265  1.00  0.00     0.091 C 
HETATM   27 BR1  UNL     1      33.242  10.805  44.705  1.00  0.00    -0.096 Br
ENDBRANCH  25  26
ENDBRANCH   4  25
TORSDOF 3
ENDMDL
MODEL 9
REMARK VINA RESULT:      -6.2      7.394      9.929
REMARK  3 active torsions:
REMARK  status: ('A' for Active; 'I' for Inactive)
REMARK    1  A    between atoms: N1_1  and  C1_2 
REMARK    2  A    between atoms: C3_5  and  C4_6 
REMARK    3  A    between atoms: C4_6  and  C5_7 
ROOT
HETATM    1  C1  UNL     1      31.046   8.112  48.573  1.00  0.00     0.124 C 
HETATM    2  N2  UNL     1      31.027   7.769  47.264  1.00  0.00    -0.236 NA
HETATM    3  C2  UNL     1      29.923   8.437  46.526  1.00  0.00     0.061 C 
HETATM    4  C3  UNL     1      29.769   9.654  46.032  1.00  0.00     0.034 C 
HETATM    5  N3  UNL     1      30.208  10.873  46.682  1.00  0.00    -0.368 N 
HETATM    6  C6  UNL     1      30.548  11.174  48.084  1.00  0.00     0.086 C 
HETATM    7  C7  UNL     1      30.392  10.317  49.135  1.00  0.00     0.022 C 
HETATM    8  C8  UNL     1      29.903   8.865  49.263  1.00  0.00     0.171 C 
HETATM    9  N4  UNL     1      28.734   8.771  48.494  1.00  0.00    -0.398 N 
HETATM   10  C9  UNL     1      28.233   7.595  47.853  1.00  0.00     0.039 C 
HETATM   11  C10 UNL     1      28.805   6.329  48.303  1.00  0.00     0.060 C 
HETATM   12  C11 UNL     1      27.960   5.135  48.534  1.00  0.00    -0.001 C 
HETATM   13  C12 UNL     1      26.742   4.939  49.097  1.00  0.00     0.031 C 
HETATM   14 CL1  UNL     1      25.934   3.361  49.255  1.00  0.00    -0.085 Cl
HETATM   15  C13 UNL     1      25.985   6.105  49.633  1.00  0.00     0.043 C 
HETATM   16  C14 UNL     1      26.014   7.340  49.072  1.00  0.00     0.015 C 
HETATM   17 CL2  UNL     1      24.995   8.480  49.980  1.00  0.00    -0.089 Cl
HETATM   18  C15 UNL     1      26.741   7.771  47.873  1.00  0.00     0.082 C 
HETATM   19  C16 UNL     1      28.617   7.769  46.302  1.00  0.00     0.092 C 
HETATM   20  H7  UNL     1      30.239  11.589  45.941  1.00  0.00     0.165 HD
HETATM   21  H11 UNL     1      28.067   9.516  48.707  1.00  0.00     0.155 HD
ENDROOT
BRANCH   1  22
HETATM   22  N1  UNL     1      32.194   7.748  49.331  1.00  0.00    -0.385 N 
HETATM   23  H1  UNL     1      32.273   6.777  49.732  1.00  0.00     0.157 HD
HETATM   24  H2  UNL     1      32.969   8.428  49.501  1.00  0.00     0.157 HD
ENDBRANCH   1  22
BRANCH   4  25
HETATM   25  C4  UNL     1      29.064   9.587  44.819  1.00  0.00     0.070 C 
BRANCH  25  26
HETATM   26  C5  UNL     1      29.617  10.020  43.516  1.00  0.00     0.091 C 
HETATM   27 BR1  UNL     1      31.376   9.634  42.986  1.00  0.00    -0.096 Br
ENDBRANCH  25  26
ENDBRANCH   4  25
TORSDOF 3
ENDMDL
