MODEL 1
REMARK VINA RESULT:      -7.7      0.000      0.000
REMARK  1 active torsions:
REMARK  status: ('A' for Active; 'I' for Inactive)
REMARK    1  A    between atoms: C5_7  and  O3_9 
ROOT
HETATM    1  C1  UNL     1      26.282   4.545  49.339  1.00  0.00     0.000 C 
HETATM    2  O1  UNL     1      25.054   3.949  49.586  1.00  0.00     0.000 OA
HETATM    3  C2  UNL     1      24.929   2.911  50.490  1.00  0.00     0.004 A 
HETATM    4  C3  UNL     1      23.640   2.768  50.771  1.00  0.00     0.005 A 
HETATM    5  O2  UNL     1      23.695   3.813  49.865  1.00  0.00     0.000 OA
HETATM    6  C4  UNL     1      23.037   3.925  48.643  1.00  0.00     0.000 C 
HETATM    7  C5  UNL     1      22.376   2.260  51.364  1.00  0.00     0.130 C 
HETATM    8  C6  UNL     1      21.469   1.780  50.246  1.00  0.00     0.058 C 
HETATM    9  C8  UNL     1      22.538   1.081  52.240  1.00  0.00     0.087 A 
HETATM   10  N1  UNL     1      21.527   0.210  52.408  1.00  0.00    -0.242 NA
HETATM   11  C9  UNL     1      21.643  -0.883  53.188  1.00  0.00     0.234 A 
HETATM   12  N2  UNL     1      22.781  -1.203  53.869  1.00  0.00    -0.242 NA
HETATM   13  C10 UNL     1      23.845  -0.342  53.729  1.00  0.00     0.067 A 
HETATM   14  C11 UNL     1      23.691   0.796  52.906  1.00  0.00     0.025 A 
HETATM   15  C12 UNL     1      24.841   1.442  52.969  1.00  0.00    -0.044 C 
HETATM   16  C13 UNL     1      25.166   2.762  53.526  1.00  0.00     0.046 C 
HETATM   17  C14 UNL     1      25.865   0.510  52.354  1.00  0.00     0.140 C 
HETATM   18  C15 UNL     1      26.334  -0.281  53.525  1.00  0.00     0.061 C 
HETATM   19  C16 UNL     1      25.053  -0.557  54.320  1.00  0.00     0.008 C 
HETATM   20  N3  UNL     1      26.752   1.309  51.615  1.00  0.00    -0.291 NA
HETATM   21  C17 UNL     1      26.153   2.246  50.909  1.00  0.00     0.124 C 
ENDROOT
BRANCH   7  22
HETATM   22  O3  UNL     1      21.789   3.227  52.150  1.00  0.00    -0.374 OA
HETATM   23  C7  UNL     1      20.595   3.735  51.818  1.00  0.00     0.203 C 
ENDBRANCH   7  22
TORSDOF 1
ENDMDL
MODEL 2
REMARK VINA RESULT:      -7.3      1.583      4.192
REMARK  1 active torsions:
REMARK  status: ('A' for Active; 'I' for Inactive)
REMARK    1  A    between atoms: C5_7  and  O3_9 
ROOT
HETATM    1  C1  UNL     1      18.624   3.945  51.189  1.00  0.00     0.000 C 
HETATM    2  O1  UNL     1      19.999   4.091  51.304  1.00  0.00     0.000 OA
HETATM    3  C2  UNL     1      20.777   3.117  51.899  1.00  0.00     0.004 A 
HETATM    4  C3  UNL     1      22.043   3.354  51.577  1.00  0.00     0.005 A 
HETATM    5  O2  UNL     1      21.322   4.360  50.957  1.00  0.00     0.000 OA
HETATM    6  C4  UNL     1      21.483   5.736  51.086  1.00  0.00     0.000 C 
HETATM    7  C5  UNL     1      23.520   3.226  51.486  1.00  0.00     0.130 C 
HETATM    8  C6  UNL     1      24.156   4.485  52.045  1.00  0.00     0.058 C 
HETATM    9  C8  UNL     1      24.093   2.131  52.297  1.00  0.00     0.087 A 
HETATM   10  N1  UNL     1      25.359   2.204  52.745  1.00  0.00    -0.242 NA
HETATM   11  C9  UNL     1      25.911   1.232  53.498  1.00  0.00     0.234 A 
HETATM   12  N2  UNL     1      25.246   0.101  53.871  1.00  0.00    -0.242 NA
HETATM   13  C10 UNL     1      23.946  -0.020  53.437  1.00  0.00     0.067 A 
HETATM   14  C11 UNL     1      23.397   1.015  52.647  1.00  0.00     0.025 A 
HETATM   15  C12 UNL     1      22.165   0.634  52.362  1.00  0.00    -0.044 C 
HETATM   16  C13 UNL     1      21.547   0.285  51.075  1.00  0.00     0.046 C 
HETATM   17  C14 UNL     1      21.440   0.574  53.691  1.00  0.00     0.140 C 
HETATM   18  C15 UNL     1      21.686  -0.824  54.138  1.00  0.00     0.061 C 
HETATM   19  C16 UNL     1      23.152  -1.077  53.765  1.00  0.00     0.008 C 
HETATM   20  N3  UNL     1      20.136   1.046  53.465  1.00  0.00    -0.291 NA
HETATM   21  C17 UNL     1      20.089   2.112  52.694  1.00  0.00     0.124 C 
ENDROOT
BRANCH   7  22
HETATM   22  O3  UNL     1      23.903   2.964  50.189  1.00  0.00    -0.374 OA
HETATM   23  C7  UNL     1      24.603   3.871  49.495  1.00  0.00     0.203 C 
ENDBRANCH   7  22
TORSDOF 1
ENDMDL
MODEL 3
REMARK VINA RESULT:      -7.2      2.273      5.772
REMARK  1 active torsions:
REMARK  status: ('A' for Active; 'I' for Inactive)
REMARK    1  A    between atoms: C5_7  and  O3_9 
ROOT
HETATM    1  C1  UNL     1      21.452   0.361  53.994  1.00  0.00     0.000 C 
HETATM    2  O1  UNL     1      22.739   0.481  53.489  1.00  0.00     0.000 OA
HETATM    3  C2  UNL     1      23.063   1.469  52.579  1.00  0.00     0.004 A 
HETATM    4  C3  UNL     1      24.387   1.559  52.530  1.00  0.00     0.005 A 
HETATM    5  O2  UNL     1      24.130   0.557  53.449  1.00  0.00     0.000 OA
HETATM    6  C4  UNL     1      24.589  -0.757  53.437  1.00  0.00     0.000 C 
HETATM    7  C5  UNL     1      25.755   2.002  52.158  1.00  0.00     0.130 C 
HETATM    8  C6  UNL     1      26.512   0.819  51.582  1.00  0.00     0.058 C 
HETATM    9  C8  UNL     1      25.802   3.024  51.092  1.00  0.00     0.087 A 
HETATM   10  N1  UNL     1      26.880   3.133  50.295  1.00  0.00    -0.242 NA
HETATM   11  C9  UNL     1      26.951   4.043  49.304  1.00  0.00     0.234 A 
HETATM   12  N2  UNL     1      25.952   4.927  49.021  1.00  0.00    -0.242 NA
HETATM   13  C10 UNL     1      24.827   4.856  49.809  1.00  0.00     0.067 A 
HETATM   14  C11 UNL     1      24.783   3.892  50.841  1.00  0.00     0.025 A 
HETATM   15  C12 UNL     1      23.616   4.058  51.437  1.00  0.00    -0.044 C 
HETATM   16  C13 UNL     1      23.295   4.500  52.801  1.00  0.00     0.046 C 
HETATM   17  C14 UNL     1      22.572   3.724  50.390  1.00  0.00     0.140 C 
HETATM   18  C15 UNL     1      22.335   5.038  49.732  1.00  0.00     0.061 C 
HETATM   19  C16 UNL     1      23.736   5.649  49.616  1.00  0.00     0.008 C 
HETATM   20  N3  UNL     1      21.536   3.044  51.051  1.00  0.00    -0.291 NA
HETATM   21  C17 UNL     1      21.961   2.149  51.917  1.00  0.00     0.124 C 
ENDROOT
BRANCH   7  22
HETATM   22  O3  UNL     1      26.391   2.568  53.240  1.00  0.00    -0.374 OA
HETATM   23  C7  UNL     1      27.579   2.101  53.647  1.00  0.00     0.203 C 
ENDBRANCH   7  22
TORSDOF 1
ENDMDL
MODEL 4
REMARK VINA RESULT:      -6.9      7.433     10.197
REMARK  1 active torsions:
REMARK  status: ('A' for Active; 'I' for Inactive)
REMARK    1  A    between atoms: C5_7  and  O3_9 
ROOT
HETATM    1  C1  UNL     1      25.621  11.931  48.172  1.00  0.00     0.000 C 
HETATM    2  O1  UNL     1      26.955  11.640  48.421  1.00  0.00     0.000 OA
HETATM    3  C2  UNL     1      27.399  10.335  48.514  1.00  0.00     0.004 A 
HETATM    4  C3  UNL     1      28.723  10.347  48.419  1.00  0.00     0.005 A 
HETATM    5  O2  UNL     1      28.344  11.675  48.323  1.00  0.00     0.000 OA
HETATM    6  C4  UNL     1      28.760  12.746  49.109  1.00  0.00     0.000 C 
HETATM    7  C5  UNL     1      30.135   9.889  48.361  1.00  0.00     0.130 C 
HETATM    8  C6  UNL     1      30.907  10.539  49.493  1.00  0.00     0.058 C 
HETATM    9  C8  UNL     1      30.319   8.438  48.573  1.00  0.00     0.087 A 
HETATM   10  N1  UNL     1      31.474   7.961  49.071  1.00  0.00    -0.242 NA
HETATM   11  C9  UNL     1      31.673   6.647  49.291  1.00  0.00     0.234 A 
HETATM   12  N2  UNL     1      30.735   5.691  49.032  1.00  0.00    -0.242 NA
HETATM   13  C10 UNL     1      29.535   6.129  48.521  1.00  0.00     0.067 A 
HETATM   14  C11 UNL     1      29.358   7.513  48.300  1.00  0.00     0.025 A 
HETATM   15  C12 UNL     1      28.144   7.644  47.798  1.00  0.00    -0.044 C 
HETATM   16  C13 UNL     1      27.703   8.094  46.470  1.00  0.00     0.046 C 
HETATM   17  C14 UNL     1      27.199   7.183  48.889  1.00  0.00     0.140 C 
HETATM   18  C15 UNL     1      27.071   5.724  48.618  1.00  0.00     0.061 C 
HETATM   19  C16 UNL     1      28.495   5.291  48.252  1.00  0.00     0.008 C 
HETATM   20  N3  UNL     1      26.081   8.032  48.846  1.00  0.00    -0.291 NA
HETATM   21  C17 UNL     1      26.390   9.301  48.685  1.00  0.00     0.124 C 
ENDROOT
BRANCH   7  22
HETATM   22  O3  UNL     1      30.678  10.153  47.123  1.00  0.00    -0.374 OA
HETATM   23  C7  UNL     1      31.600  11.114  46.980  1.00  0.00     0.203 C 
ENDBRANCH   7  22
TORSDOF 1
ENDMDL
MODEL 5
REMARK VINA RESULT:      -6.4      2.082      4.519
REMARK  1 active torsions:
REMARK  status: ('A' for Active; 'I' for Inactive)
REMARK    1  A    between atoms: C5_7  and  O3_9 
ROOT
HETATM    1  C1  UNL     1      21.255   6.607  49.649  1.00  0.00     0.000 C 
HETATM    2  O1  UNL     1      22.045   5.780  50.434  1.00  0.00     0.000 OA
HETATM    3  C2  UNL     1      21.575   4.564  50.894  1.00  0.00     0.004 A 
HETATM    4  C3  UNL     1      22.618   3.858  51.315  1.00  0.00     0.005 A 
HETATM    5  O2  UNL     1      23.152   5.056  50.874  1.00  0.00     0.000 OA
HETATM    6  C4  UNL     1      23.945   5.955  51.583  1.00  0.00     0.000 C 
HETATM    7  C5  UNL     1      23.434   2.751  51.877  1.00  0.00     0.130 C 
HETATM    8  C6  UNL     1      24.169   3.260  53.103  1.00  0.00     0.058 C 
HETATM    9  C8  UNL     1      22.651   1.598  52.368  1.00  0.00     0.087 A 
HETATM   10  N1  UNL     1      23.137   0.805  53.340  1.00  0.00    -0.242 NA
HETATM   11  C9  UNL     1      22.445  -0.246  53.822  1.00  0.00     0.234 A 
HETATM   12  N2  UNL     1      21.206  -0.600  53.375  1.00  0.00    -0.242 NA
HETATM   13  C10 UNL     1      20.665   0.181  52.380  1.00  0.00     0.067 A 
HETATM   14  C11 UNL     1      21.416   1.275  51.894  1.00  0.00     0.025 A 
HETATM   15  C12 UNL     1      20.676   1.826  50.949  1.00  0.00    -0.044 C 
HETATM   16  C13 UNL     1      20.903   1.937  49.502  1.00  0.00     0.046 C 
HETATM   17  C14 UNL     1      19.434   2.338  51.650  1.00  0.00     0.140 C 
HETATM   18  C15 UNL     1      18.513   1.170  51.582  1.00  0.00     0.061 C 
HETATM   19  C16 UNL     1      19.422  -0.032  51.866  1.00  0.00     0.008 C 
HETATM   20  N3  UNL     1      19.101   3.562  51.048  1.00  0.00    -0.291 NA
HETATM   21  C17 UNL     1      20.141   4.338  50.822  1.00  0.00     0.124 C 
ENDROOT
BRANCH   7  22
HETATM   22  O3  UNL     1      24.281   2.241  50.919  1.00  0.00    -0.374 OA
HETATM   23  C7  UNL     1      25.597   2.482  50.982  1.00  0.00     0.203 C 
ENDBRANCH   7  22
TORSDOF 1
ENDMDL
MODEL 6
REMARK VINA RESULT:      -6.2      7.384     10.605
REMARK  1 active torsions:
REMARK  status: ('A' for Active; 'I' for Inactive)
REMARK    1  A    between atoms: C5_7  and  O3_9 
ROOT
HETATM    1  C1  UNL     1      33.877  10.354  47.083  1.00  0.00     0.000 C 
HETATM    2  O1  UNL     1      33.430   9.114  47.516  1.00  0.00     0.000 OA
HETATM    3  C2  UNL     1      32.082   8.815  47.566  1.00  0.00     0.004 A 
HETATM    4  C3  UNL     1      31.961   7.498  47.686  1.00  0.00     0.005 A 
HETATM    5  O2  UNL     1      33.325   7.731  47.644  1.00  0.00     0.000 OA
HETATM    6  C4  UNL     1      34.288   7.355  48.577  1.00  0.00     0.000 C 
HETATM    7  C5  UNL     1      31.362   6.146  47.815  1.00  0.00     0.130 C 
HETATM    8  C6  UNL     1      31.846   5.517  49.108  1.00  0.00     0.058 C 
HETATM    9  C8  UNL     1      29.888   6.135  47.928  1.00  0.00     0.087 A 
HETATM   10  N1  UNL     1      29.258   5.130  48.562  1.00  0.00    -0.242 NA
HETATM   11  C9  UNL     1      27.918   5.094  48.697  1.00  0.00     0.234 A 
HETATM   12  N2  UNL     1      27.087   6.060  48.210  1.00  0.00    -0.242 NA
HETATM   13  C10 UNL     1      27.684   7.111  47.553  1.00  0.00     0.067 A 
HETATM   14  C11 UNL     1      29.091   7.119  47.427  1.00  0.00     0.025 A 
HETATM   15  C12 UNL     1      29.384   8.214  46.749  1.00  0.00    -0.044 C 
HETATM   16  C13 UNL     1      29.970   8.382  45.412  1.00  0.00     0.046 C 
HETATM   17  C14 UNL     1      28.950   9.367  47.632  1.00  0.00     0.140 C 
HETATM   18  C15 UNL     1      27.536   9.583  47.219  1.00  0.00     0.061 C 
HETATM   19  C16 UNL     1      26.981   8.164  47.051  1.00  0.00     0.008 C 
HETATM   20  N3  UNL     1      29.914  10.378  47.483  1.00  0.00    -0.291 NA
HETATM   21  C17 UNL     1      31.152   9.930  47.484  1.00  0.00     0.124 C 
ENDROOT
BRANCH   7  22
HETATM   22  O3  UNL     1      31.652   5.381  46.707  1.00  0.00    -0.374 OA
HETATM   23  C7  UNL     1      32.367   4.255  46.831  1.00  0.00     0.203 C 
ENDBRANCH   7  22
TORSDOF 1
ENDMDL
MODEL 7
REMARK VINA RESULT:      -6.2      2.392      3.344
REMARK  1 active torsions:
REMARK  status: ('A' for Active; 'I' for Inactive)
REMARK    1  A    between atoms: C5_7  and  O3_9 
ROOT
HETATM    1  C1  UNL     1      21.696   4.702  47.800  1.00  0.00     0.000 C 
HETATM    2  O1  UNL     1      20.769   3.900  48.451  1.00  0.00     0.000 OA
HETATM    3  C2  UNL     1      21.143   3.063  49.484  1.00  0.00     0.004 A 
HETATM    4  C3  UNL     1      20.042   2.686  50.123  1.00  0.00     0.005 A 
HETATM    5  O2  UNL     1      19.600   3.514  49.105  1.00  0.00     0.000 OA
HETATM    6  C4  UNL     1      18.675   3.226  48.106  1.00  0.00     0.000 C 
HETATM    7  C5  UNL     1      19.136   2.030  51.100  1.00  0.00     0.130 C 
HETATM    8  C6  UNL     1      18.164   1.142  50.346  1.00  0.00     0.058 C 
HETATM    9  C8  UNL     1      19.811   1.119  52.048  1.00  0.00     0.087 A 
HETATM   10  N1  UNL     1      19.143   0.090  52.601  1.00  0.00    -0.242 NA
HETATM   11  C9  UNL     1      19.729  -0.769  53.458  1.00  0.00     0.234 A 
HETATM   12  N2  UNL     1      21.036  -0.677  53.839  1.00  0.00    -0.242 NA
HETATM   13  C10 UNL     1      21.762   0.360  53.300  1.00  0.00     0.067 A 
HETATM   14  C11 UNL     1      21.118   1.245  52.407  1.00  0.00     0.025 A 
HETATM   15  C12 UNL     1      22.030   2.137  52.066  1.00  0.00    -0.044 C 
HETATM   16  C13 UNL     1      22.101   3.581  52.332  1.00  0.00     0.046 C 
HETATM   17  C14 UNL     1      23.101   1.362  51.325  1.00  0.00     0.140 C 
HETATM   18  C15 UNL     1      24.024   0.950  52.418  1.00  0.00     0.061 C 
HETATM   19  C16 UNL     1      23.085   0.551  53.562  1.00  0.00     0.008 C 
HETATM   20  N3  UNL     1      23.541   2.181  50.272  1.00  0.00    -0.291 NA
HETATM   21  C17 UNL     1      22.564   2.794  49.639  1.00  0.00     0.124 C 
ENDROOT
BRANCH   7  22
HETATM   22  O3  UNL     1      18.504   2.972  51.881  1.00  0.00    -0.374 OA
HETATM   23  C7  UNL     1      17.261   3.373  51.583  1.00  0.00     0.203 C 
ENDBRANCH   7  22
TORSDOF 1
ENDMDL
MODEL 8
REMARK VINA RESULT:      -6.2      2.430      4.962
REMARK  1 active torsions:
REMARK  status: ('A' for Active; 'I' for Inactive)
REMARK    1  A    between atoms: C5_7  and  O3_9 
ROOT
HETATM    1  C1  UNL     1      17.143  -0.281  51.922  1.00  0.00     0.000 C 
HETATM    2  O1  UNL     1      17.925   0.851  51.743  1.00  0.00     0.000 OA
HETATM    3  C2  UNL     1      19.242   0.887  52.159  1.00  0.00     0.004 A 
HETATM    4  C3  UNL     1      19.825   1.929  51.577  1.00  0.00     0.005 A 
HETATM    5  O2  UNL     1      18.516   1.951  51.125  1.00  0.00     0.000 OA
HETATM    6  C4  UNL     1      17.594   2.989  51.218  1.00  0.00     0.000 C 
HETATM    7  C5  UNL     1      20.850   2.924  51.174  1.00  0.00     0.130 C 
HETATM    8  C6  UNL     1      20.379   4.306  51.587  1.00  0.00     0.058 C 
HETATM    9  C8  UNL     1      22.158   2.765  51.844  1.00  0.00     0.087 A 
HETATM   10  N1  UNL     1      22.972   3.822  52.014  1.00  0.00    -0.242 NA
HETATM   11  C9  UNL     1      24.165   3.717  52.633  1.00  0.00     0.234 A 
HETATM   12  N2  UNL     1      24.650   2.546  53.137  1.00  0.00    -0.242 NA
HETATM   13  C10 UNL     1      23.853   1.435  52.988  1.00  0.00     0.067 A 
HETATM   14  C11 UNL     1      22.609   1.577  52.333  1.00  0.00     0.025 A 
HETATM   15  C12 UNL     1      22.073   0.370  52.316  1.00  0.00    -0.044 C 
HETATM   16  C13 UNL     1      21.765  -0.521  51.189  1.00  0.00     0.046 C 
HETATM   17  C14 UNL     1      21.841   0.006  53.768  1.00  0.00     0.140 C 
HETATM   18  C15 UNL     1      23.120  -0.652  54.151  1.00  0.00     0.061 C 
HETATM   19  C16 UNL     1      24.193   0.209  53.476  1.00  0.00     0.008 C 
HETATM   20  N3  UNL     1      20.621  -0.688  53.823  1.00  0.00    -0.291 NA
HETATM   21  C17 UNL     1      19.675  -0.150  53.081  1.00  0.00     0.124 C 
ENDROOT
BRANCH   7  22
HETATM   22  O3  UNL     1      21.113   2.829  49.826  1.00  0.00    -0.374 OA
HETATM   23  C7  UNL     1      20.663   3.767  48.982  1.00  0.00     0.203 C 
ENDBRANCH   7  22
TORSDOF 1
ENDMDL
MODEL 9
REMARK VINA RESULT:      -6.2      2.108      4.659
REMARK  1 active torsions:
REMARK  status: ('A' for Active; 'I' for Inactive)
REMARK    1  A    between atoms: C5_7  and  O3_9 
ROOT
HETATM    1  C1  UNL     1      20.961   6.012  46.807  1.00  0.00     0.000 C 
HETATM    2  O1  UNL     1      21.917   5.813  47.792  1.00  0.00     0.000 OA
HETATM    3  C2  UNL     1      21.856   4.725  48.641  1.00  0.00     0.004 A 
HETATM    4  C3  UNL     1      23.038   4.604  49.235  1.00  0.00     0.005 A 
HETATM    5  O2  UNL     1      23.164   5.706  48.406  1.00  0.00     0.000 OA
HETATM    6  C4  UNL     1      23.536   7.002  48.752  1.00  0.00     0.000 C 
HETATM    7  C5  UNL     1      24.134   4.097  50.100  1.00  0.00     0.130 C 
HETATM    8  C6  UNL     1      24.543   5.194  51.064  1.00  0.00     0.058 C 
HETATM    9  C8  UNL     1      23.755   2.963  50.969  1.00  0.00     0.087 A 
HETATM   10  N1  UNL     1      24.399   2.747  52.130  1.00  0.00    -0.242 NA
HETATM   11  C9  UNL     1      24.073   1.732  52.954  1.00  0.00     0.234 A 
HETATM   12  N2  UNL     1      23.073   0.842  52.692  1.00  0.00    -0.242 NA
HETATM   13  C10 UNL     1      22.384   1.021  51.515  1.00  0.00     0.067 A 
HETATM   14  C11 UNL     1      22.751   2.093  50.671  1.00  0.00     0.025 A 
HETATM   15  C12 UNL     1      21.950   2.016  49.624  1.00  0.00    -0.044 C 
HETATM   16  C13 UNL     1      22.247   1.732  48.213  1.00  0.00     0.046 C 
HETATM   17  C14 UNL     1      20.553   2.253  50.161  1.00  0.00     0.140 C 
HETATM   18  C15 UNL     1      20.099   0.880  50.513  1.00  0.00     0.061 C 
HETATM   19  C16 UNL     1      21.337   0.233  51.143  1.00  0.00     0.008 C 
HETATM   20  N3  UNL     1      19.873   3.021  49.202  1.00  0.00    -0.291 NA
HETATM   21  C17 UNL     1      20.598   3.997  48.698  1.00  0.00     0.124 C 
ENDROOT
BRANCH   7  22
HETATM   22  O3  UNL     1      25.182   3.640  49.333  1.00  0.00    -0.374 OA
HETATM   23  C7  UNL     1      26.353   4.292  49.333  1.00  0.00     0.203 C 
ENDBRANCH   7  22
TORSDOF 1
ENDMDL
