MODEL 1
REMARK VINA RESULT:      -8.8      0.000      0.000
REMARK  3 active torsions:
REMARK  status: ('A' for Active; 'I' for Inactive)
REMARK    1  A    between atoms: O1_2  and  C2_3 
REMARK    2  A    between atoms: C12_15  and  N3_16 
REMARK    3  A    between atoms: N3_16  and  C13_17 
ROOT
HETATM    1  C2  UNL     1      21.053  -0.057  52.616  1.00  0.00     0.075 A 
HETATM    2  C3  UNL     1      20.744  -0.581  53.844  1.00  0.00     0.037 A 
HETATM    3  C4  UNL     1      21.592  -0.848  54.891  1.00  0.00     0.004 A 
HETATM    4  C5  UNL     1      22.896  -0.520  54.583  1.00  0.00     0.012 A 
HETATM    5  C6  UNL     1      23.329   0.021  53.362  1.00  0.00    -0.027 A 
HETATM    6  C7  UNL     1      22.373   0.241  52.392  1.00  0.00    -0.014 A 
HETATM    7  C8  UNL     1      22.657   0.850  51.038  1.00  0.00     0.045 C 
HETATM    8  C9  UNL     1      22.552   2.333  51.118  1.00  0.00     0.045 C 
HETATM    9  C10 UNL     1      23.022   3.018  49.825  1.00  0.00     0.109 A 
HETATM   10  N1  UNL     1      22.132   2.779  48.736  1.00  0.00    -0.264 NA
HETATM   11  C11 UNL     1      21.189   3.700  48.521  1.00  0.00     0.230 C 
HETATM   12  N2  UNL     1      20.864   4.953  49.160  1.00  0.00    -0.224 NA
HETATM   13  C12 UNL     1      21.651   5.327  50.147  1.00  0.00     0.138 C 
HETATM   14  C19 UNL     1      22.921   4.523  50.045  1.00  0.00     0.019 A 
HETATM   15  C20 UNL     1      24.276   4.650  49.978  1.00  0.00     0.015 A 
HETATM   16  C21 UNL     1      24.462   3.209  49.734  1.00  0.00     0.143 A 
HETATM   17  N4  UNL     1      25.190   2.481  50.740  1.00  0.00    -0.347 N 
HETATM   18  C22 UNL     1      25.927   1.751  51.750  1.00  0.00     0.241 C 
HETATM   19  O2  UNL     1      26.862   2.364  51.159  1.00  0.00    -0.269 OA
HETATM   20  C23 UNL     1      25.800   0.800  52.884  1.00  0.00     0.075 C 
HETATM   21  C24 UNL     1      24.754   0.242  53.364  1.00  0.00     0.017 C 
HETATM   22  H19 UNL     1      24.535   2.099  51.418  1.00  0.00     0.163 HD
ENDROOT
BRANCH  13  23
HETATM   23  N3  UNL     1      21.732   6.409  51.062  1.00  0.00    -0.340 N 
HETATM   24  H12 UNL     1      21.786   6.285  52.091  1.00  0.00     0.167 HD
BRANCH  23  25
HETATM   25  C13 UNL     1      21.725   7.621  50.268  1.00  0.00     0.035 A 
HETATM   26  C14 UNL     1      22.830   8.169  49.655  1.00  0.00     0.029 A 
HETATM   27  C15 UNL     1      22.645   9.331  48.936  1.00  0.00     0.004 A 
HETATM   28  C16 UNL     1      21.388   9.927  48.832  1.00  0.00     0.019 A 
HETATM   29  C17 UNL     1      20.283   9.360  49.457  1.00  0.00     0.013 A 
HETATM   30 BR1  UNL     1      18.557  10.170  49.322  1.00  0.00    -0.051 Br
HETATM   31  C18 UNL     1      20.456   8.199  50.180  1.00  0.00     0.048 A 
ENDBRANCH  23  25
ENDBRANCH  13  23
BRANCH   1  32
HETATM   32  O1  UNL     1      20.094   0.159  51.655  1.00  0.00    -0.355 OA
HETATM   33  C1  UNL     1      18.746  -0.115  51.979  1.00  0.00     0.210 C 
ENDBRANCH   1  32
TORSDOF 3
ENDMDL
MODEL 2
REMARK VINA RESULT:      -8.8      2.704      5.055
REMARK  3 active torsions:
REMARK  status: ('A' for Active; 'I' for Inactive)
REMARK    1  A    between atoms: O1_2  and  C2_3 
REMARK    2  A    between atoms: C12_15  and  N3_16 
REMARK    3  A    between atoms: N3_16  and  C13_17 
ROOT
HETATM    1  C2  UNL     1      25.851   1.704  52.121  1.00  0.00     0.075 A 
HETATM    2  C3  UNL     1      26.872   0.810  51.935  1.00  0.00     0.037 A 
HETATM    3  C4  UNL     1      26.927  -0.508  52.319  1.00  0.00     0.004 A 
HETATM    4  C5  UNL     1      25.771  -0.896  52.964  1.00  0.00     0.012 A 
HETATM    5  C6  UNL     1      24.664  -0.069  53.210  1.00  0.00    -0.027 A 
HETATM    6  C7  UNL     1      24.737   1.236  52.772  1.00  0.00    -0.014 A 
HETATM    7  C8  UNL     1      23.626   2.249  52.919  1.00  0.00     0.045 C 
HETATM    8  C9  UNL     1      22.714   2.174  51.745  1.00  0.00     0.045 C 
HETATM    9  C10 UNL     1      21.458   3.040  51.931  1.00  0.00     0.109 A 
HETATM   10  N1  UNL     1      21.757   4.434  51.905  1.00  0.00    -0.264 NA
HETATM   11  C11 UNL     1      21.637   5.051  50.726  1.00  0.00     0.230 C 
HETATM   12  N2  UNL     1      21.233   4.607  49.413  1.00  0.00    -0.224 NA
HETATM   13  C12 UNL     1      20.867   3.347  49.309  1.00  0.00     0.138 C 
HETATM   14  C19 UNL     1      20.582   2.841  50.699  1.00  0.00     0.019 A 
HETATM   15  C20 UNL     1      19.623   2.226  51.448  1.00  0.00     0.015 A 
HETATM   16  C21 UNL     1      20.394   2.402  52.692  1.00  0.00     0.143 A 
HETATM   17  N4  UNL     1      20.820   1.196  53.353  1.00  0.00    -0.347 N 
HETATM   18  C22 UNL     1      21.245  -0.017  54.019  1.00  0.00     0.241 C 
HETATM   19  O2  UNL     1      20.017   0.013  54.321  1.00  0.00    -0.269 OA
HETATM   20  C23 UNL     1      22.407  -0.903  54.286  1.00  0.00     0.075 C 
HETATM   21  C24 UNL     1      23.624  -0.783  53.912  1.00  0.00     0.017 C 
HETATM   22  H19 UNL     1      21.750   0.945  53.024  1.00  0.00     0.163 HD
ENDROOT
BRANCH  13  23
HETATM   23  N3  UNL     1      20.433   2.470  48.281  1.00  0.00    -0.340 N 
HETATM   24  H12 UNL     1      20.044   1.525  48.462  1.00  0.00     0.167 HD
BRANCH  23  25
HETATM   25  C13 UNL     1      20.647   3.166  47.029  1.00  0.00     0.035 A 
HETATM   26  C14 UNL     1      21.875   3.364  46.437  1.00  0.00     0.029 A 
HETATM   27  C15 UNL     1      21.900   4.050  45.241  1.00  0.00     0.004 A 
HETATM   28  C16 UNL     1      20.727   4.523  44.652  1.00  0.00     0.019 A 
HETATM   29  C17 UNL     1      19.495   4.314  45.263  1.00  0.00     0.013 A 
HETATM   30 BR1  UNL     1      17.883   4.959  44.465  1.00  0.00    -0.051 Br
HETATM   31  C18 UNL     1      19.459   3.630  46.460  1.00  0.00     0.048 A 
ENDBRANCH  23  25
ENDBRANCH  13  23
BRANCH   1  32
HETATM   32  O1  UNL     1      25.933   3.003  51.681  1.00  0.00    -0.355 OA
HETATM   33  C1  UNL     1      26.407   3.239  50.371  1.00  0.00     0.210 C 
ENDBRANCH   1  32
TORSDOF 3
ENDMDL
MODEL 3
REMARK VINA RESULT:      -8.5      2.831      5.788
REMARK  3 active torsions:
REMARK  status: ('A' for Active; 'I' for Inactive)
REMARK    1  A    between atoms: O1_2  and  C2_3 
REMARK    2  A    between atoms: C12_15  and  N3_16 
REMARK    3  A    between atoms: N3_16  and  C13_17 
ROOT
HETATM    1  C2  UNL     1      25.012   5.910  49.768  1.00  0.00     0.075 A 
HETATM    2  C3  UNL     1      25.991   6.263  48.877  1.00  0.00     0.037 A 
HETATM    3  C4  UNL     1      27.126   5.564  48.542  1.00  0.00     0.004 A 
HETATM    4  C5  UNL     1      27.211   4.374  49.234  1.00  0.00     0.012 A 
HETATM    5  C6  UNL     1      26.271   3.911  50.168  1.00  0.00    -0.027 A 
HETATM    6  C7  UNL     1      25.174   4.710  50.414  1.00  0.00    -0.014 A 
HETATM    7  C8  UNL     1      24.051   4.350  51.358  1.00  0.00     0.045 C 
HETATM    8  C9  UNL     1      23.006   3.578  50.630  1.00  0.00     0.045 C 
HETATM    9  C10 UNL     1      21.936   3.015  51.578  1.00  0.00     0.109 A 
HETATM   10  N1  UNL     1      21.119   4.041  52.138  1.00  0.00    -0.264 NA
HETATM   11  C11 UNL     1      19.977   4.312  51.501  1.00  0.00     0.230 C 
HETATM   12  N2  UNL     1      19.342   3.759  50.328  1.00  0.00    -0.224 NA
HETATM   13  C12 UNL     1      19.962   2.756  49.746  1.00  0.00     0.138 C 
HETATM   14  C19 UNL     1      20.960   2.205  50.731  1.00  0.00     0.019 A 
HETATM   15  C20 UNL     1      21.350   1.049  51.340  1.00  0.00     0.015 A 
HETATM   16  C21 UNL     1      22.299   1.758  52.217  1.00  0.00     0.143 A 
HETATM   17  N4  UNL     1      23.689   1.425  52.052  1.00  0.00    -0.347 N 
HETATM   18  C22 UNL     1      25.087   1.086  51.888  1.00  0.00     0.241 C 
HETATM   19  O2  UNL     1      24.661   0.076  52.520  1.00  0.00    -0.269 OA
HETATM   20  C23 UNL     1      26.383   1.549  51.331  1.00  0.00     0.075 C 
HETATM   21  C24 UNL     1      26.662   2.635  50.715  1.00  0.00     0.017 C 
HETATM   22  H19 UNL     1      24.110   2.064  51.381  1.00  0.00     0.163 HD
ENDROOT
BRANCH  13  23
HETATM   23  N3  UNL     1      19.768   1.930  48.608  1.00  0.00    -0.340 N 
HETATM   24  H12 UNL     1      19.320   0.995  48.649  1.00  0.00     0.167 HD
BRANCH  23  25
HETATM   25  C13 UNL     1      20.303   2.658  47.475  1.00  0.00     0.035 A 
HETATM   26  C14 UNL     1      21.644   2.831  47.210  1.00  0.00     0.029 A 
HETATM   27  C15 UNL     1      21.980   3.554  46.085  1.00  0.00     0.004 A 
HETATM   28  C16 UNL     1      21.001   4.088  45.247  1.00  0.00     0.019 A 
HETATM   29  C17 UNL     1      19.652   3.904  45.529  1.00  0.00     0.013 A 
HETATM   30 BR1  UNL     1      18.303   4.633  44.388  1.00  0.00    -0.051 Br
HETATM   31  C18 UNL     1      19.304   3.184  46.653  1.00  0.00     0.048 A 
ENDBRANCH  23  25
ENDBRANCH  13  23
BRANCH   1  32
HETATM   32  O1  UNL     1      23.922   6.713  50.007  1.00  0.00    -0.355 OA
HETATM   33  C1  UNL     1      24.147   8.029  50.471  1.00  0.00     0.210 C 
ENDBRANCH   1  32
TORSDOF 3
ENDMDL
MODEL 4
REMARK VINA RESULT:      -8.4      8.989     11.870
REMARK  3 active torsions:
REMARK  status: ('A' for Active; 'I' for Inactive)
REMARK    1  A    between atoms: O1_2  and  C2_3 
REMARK    2  A    between atoms: C12_15  and  N3_16 
REMARK    3  A    between atoms: N3_16  and  C13_17 
ROOT
HETATM    1  C2  UNL     1      32.860   7.106  43.374  1.00  0.00     0.075 A 
HETATM    2  C3  UNL     1      32.665   6.573  42.126  1.00  0.00     0.037 A 
HETATM    3  C4  UNL     1      33.035   5.333  41.665  1.00  0.00     0.004 A 
HETATM    4  C5  UNL     1      33.675   4.599  42.642  1.00  0.00     0.012 A 
HETATM    5  C6  UNL     1      33.928   5.040  43.951  1.00  0.00    -0.027 A 
HETATM    6  C7  UNL     1      33.504   6.308  44.286  1.00  0.00    -0.014 A 
HETATM    7  C8  UNL     1      33.661   6.926  45.657  1.00  0.00     0.045 C 
HETATM    8  C9  UNL     1      32.485   6.585  46.503  1.00  0.00     0.045 C 
HETATM    9  C10 UNL     1      32.678   7.017  47.965  1.00  0.00     0.109 A 
HETATM   10  N1  UNL     1      32.668   8.435  48.113  1.00  0.00    -0.264 NA
HETATM   11  C11 UNL     1      31.496   8.997  48.420  1.00  0.00     0.230 C 
HETATM   12  N2  UNL     1      30.178   8.464  48.670  1.00  0.00    -0.224 NA
HETATM   13  C12 UNL     1      30.059   7.154  48.628  1.00  0.00     0.138 C 
HETATM   14  C19 UNL     1      31.443   6.569  48.739  1.00  0.00     0.019 A 
HETATM   15  C20 UNL     1      32.184   5.679  49.458  1.00  0.00     0.015 A 
HETATM   16  C21 UNL     1      33.431   6.072  48.778  1.00  0.00     0.143 A 
HETATM   17  N4  UNL     1      34.079   5.051  47.997  1.00  0.00    -0.347 N 
HETATM   18  C22 UNL     1      34.733   4.023  47.216  1.00  0.00     0.241 C 
HETATM   19  O2  UNL     1      35.034   3.667  48.392  1.00  0.00    -0.269 OA
HETATM   20  C23 UNL     1      34.992   3.537  45.837  1.00  0.00     0.075 C 
HETATM   21  C24 UNL     1      34.621   4.032  44.717  1.00  0.00     0.017 C 
HETATM   22  H19 UNL     1      33.749   5.104  47.036  1.00  0.00     0.163 HD
ENDROOT
BRANCH  13  23
HETATM   23  N3  UNL     1      29.022   6.196  48.771  1.00  0.00    -0.340 N 
HETATM   24  H12 UNL     1      29.152   5.275  49.230  1.00  0.00     0.167 HD
BRANCH  23  25
HETATM   25  C13 UNL     1      27.839   6.779  48.170  1.00  0.00     0.035 A 
HETATM   26  C14 UNL     1      27.845   7.685  47.133  1.00  0.00     0.029 A 
HETATM   27  C15 UNL     1      26.625   8.141  46.680  1.00  0.00     0.004 A 
HETATM   28  C16 UNL     1      25.430   7.700  47.250  1.00  0.00     0.019 A 
HETATM   29  C17 UNL     1      25.442   6.784  48.297  1.00  0.00     0.013 A 
HETATM   30 BR1  UNL     1      23.810   6.175  49.084  1.00  0.00    -0.051 Br
HETATM   31  C18 UNL     1      26.656   6.323  48.758  1.00  0.00     0.048 A 
ENDBRANCH  23  25
ENDBRANCH  13  23
BRANCH   1  32
HETATM   32  O1  UNL     1      32.434   8.371  43.699  1.00  0.00    -0.355 OA
HETATM   33  C1  UNL     1      32.785   9.438  42.843  1.00  0.00     0.210 C 
ENDBRANCH   1  32
TORSDOF 3
ENDMDL
MODEL 5
REMARK VINA RESULT:      -8.0      2.903      6.359
REMARK  3 active torsions:
REMARK  status: ('A' for Active; 'I' for Inactive)
REMARK    1  A    between atoms: O1_2  and  C2_3 
REMARK    2  A    between atoms: C12_15  and  N3_16 
REMARK    3  A    between atoms: N3_16  and  C13_17 
ROOT
HETATM    1  C2  UNL     1      23.592   7.847  49.076  1.00  0.00     0.075 A 
HETATM    2  C3  UNL     1      23.845   8.630  47.980  1.00  0.00     0.037 A 
HETATM    3  C4  UNL     1      24.900   8.549  47.104  1.00  0.00     0.004 A 
HETATM    4  C5  UNL     1      25.764   7.529  47.444  1.00  0.00     0.012 A 
HETATM    5  C6  UNL     1      25.608   6.667  48.541  1.00  0.00    -0.027 A 
HETATM    6  C7  UNL     1      24.502   6.855  49.343  1.00  0.00    -0.014 A 
HETATM    7  C8  UNL     1      24.160   5.997  50.540  1.00  0.00     0.045 C 
HETATM    8  C9  UNL     1      23.334   4.836  50.110  1.00  0.00     0.045 C 
HETATM    9  C10 UNL     1      23.121   3.824  51.247  1.00  0.00     0.109 A 
HETATM   10  N1  UNL     1      22.280   4.340  52.276  1.00  0.00    -0.264 NA
HETATM   11  C11 UNL     1      20.978   4.053  52.187  1.00  0.00     0.230 C 
HETATM   12  N2  UNL     1      20.197   3.282  51.249  1.00  0.00    -0.224 NA
HETATM   13  C12 UNL     1      20.862   2.695  50.277  1.00  0.00     0.138 C 
HETATM   14  C19 UNL     1      22.315   2.663  50.676  1.00  0.00     0.019 A 
HETATM   15  C20 UNL     1      23.372   1.816  50.834  1.00  0.00     0.015 A 
HETATM   16  C21 UNL     1      24.212   2.876  51.421  1.00  0.00     0.143 A 
HETATM   17  N4  UNL     1      25.393   3.235  50.680  1.00  0.00    -0.347 N 
HETATM   18  C22 UNL     1      26.583   3.593  49.937  1.00  0.00     0.241 C 
HETATM   19  O2  UNL     1      26.936   2.493  50.452  1.00  0.00    -0.269 OA
HETATM   20  C23 UNL     1      27.186   4.617  49.047  1.00  0.00     0.075 C 
HETATM   21  C24 UNL     1      26.690   5.715  48.617  1.00  0.00     0.017 C 
HETATM   22  H19 UNL     1      25.173   4.005  50.052  1.00  0.00     0.163 HD
ENDROOT
BRANCH  13  23
HETATM   23  N3  UNL     1      20.563   1.889  49.148  1.00  0.00    -0.340 N 
HETATM   24  H12 UNL     1      20.196   0.921  49.216  1.00  0.00     0.167 HD
BRANCH  23  25
HETATM   25  C13 UNL     1      20.868   2.689  47.979  1.00  0.00     0.035 A 
HETATM   26  C14 UNL     1      22.046   2.630  47.268  1.00  0.00     0.029 A 
HETATM   27  C15 UNL     1      22.173   3.464  46.178  1.00  0.00     0.004 A 
HETATM   28  C16 UNL     1      21.146   4.335  45.809  1.00  0.00     0.019 A 
HETATM   29  C17 UNL     1      19.963   4.382  46.538  1.00  0.00     0.013 A 
HETATM   30 BR1  UNL     1      18.553   5.572  46.041  1.00  0.00    -0.051 Br
HETATM   31  C18 UNL     1      19.827   3.553  47.631  1.00  0.00     0.048 A 
ENDBRANCH  23  25
ENDBRANCH  13  23
BRANCH   1  32
HETATM   32  O1  UNL     1      22.488   8.042  49.870  1.00  0.00    -0.355 OA
HETATM   33  C1  UNL     1      21.397   8.765  49.337  1.00  0.00     0.210 C 
ENDBRANCH   1  32
TORSDOF 3
ENDMDL
MODEL 6
REMARK VINA RESULT:      -7.9      2.511      4.836
REMARK  3 active torsions:
REMARK  status: ('A' for Active; 'I' for Inactive)
REMARK    1  A    between atoms: O1_2  and  C2_3 
REMARK    2  A    between atoms: C12_15  and  N3_16 
REMARK    3  A    between atoms: N3_16  and  C13_17 
ROOT
HETATM    1  C2  UNL     1      20.682   2.979  47.361  1.00  0.00     0.075 A 
HETATM    2  C3  UNL     1      19.457   3.278  46.822  1.00  0.00     0.037 A 
HETATM    3  C4  UNL     1      18.215   3.069  47.371  1.00  0.00     0.004 A 
HETATM    4  C5  UNL     1      18.303   2.483  48.616  1.00  0.00     0.012 A 
HETATM    5  C6  UNL     1      19.498   2.133  49.265  1.00  0.00    -0.027 A 
HETATM    6  C7  UNL     1      20.679   2.398  48.604  1.00  0.00    -0.014 A 
HETATM    7  C8  UNL     1      22.053   2.122  49.170  1.00  0.00     0.045 C 
HETATM    8  C9  UNL     1      22.523   3.299  49.951  1.00  0.00     0.045 C 
HETATM    9  C10 UNL     1      23.825   3.005  50.713  1.00  0.00     0.109 A 
HETATM   10  N1  UNL     1      24.939   2.848  49.836  1.00  0.00    -0.264 NA
HETATM   11  C11 UNL     1      25.677   3.937  49.604  1.00  0.00     0.230 C 
HETATM   12  N2  UNL     1      25.612   5.297  50.082  1.00  0.00    -0.224 NA
HETATM   13  C12 UNL     1      24.663   5.566  50.954  1.00  0.00     0.138 C 
HETATM   14  C19 UNL     1      24.176   4.255  51.513  1.00  0.00     0.019 A 
HETATM   15  C20 UNL     1      23.963   3.595  52.687  1.00  0.00     0.015 A 
HETATM   16  C21 UNL     1      23.636   2.337  51.993  1.00  0.00     0.143 A 
HETATM   17  N4  UNL     1      22.299   1.838  52.174  1.00  0.00    -0.347 N 
HETATM   18  C22 UNL     1      20.954   1.334  52.361  1.00  0.00     0.241 C 
HETATM   19  O2  UNL     1      21.485   1.034  53.469  1.00  0.00    -0.269 OA
HETATM   20  C23 UNL     1      19.623   1.182  51.720  1.00  0.00     0.075 C 
HETATM   21  C24 UNL     1      19.238   1.534  50.552  1.00  0.00     0.017 C 
HETATM   22  H19 UNL     1      21.704   2.194  51.429  1.00  0.00     0.163 HD
ENDROOT
BRANCH  13  23
HETATM   23  N3  UNL     1      24.192   6.700  51.664  1.00  0.00    -0.340 N 
HETATM   24  H12 UNL     1      24.553   6.984  52.595  1.00  0.00     0.167 HD
BRANCH  23  25
HETATM   25  C13 UNL     1      23.172   7.310  50.836  1.00  0.00     0.035 A 
HETATM   26  C14 UNL     1      21.820   7.066  50.940  1.00  0.00     0.029 A 
HETATM   27  C15 UNL     1      20.985   7.734  50.069  1.00  0.00     0.004 A 
HETATM   28  C16 UNL     1      21.490   8.623  49.119  1.00  0.00     0.019 A 
HETATM   29  C17 UNL     1      22.857   8.858  49.027  1.00  0.00     0.013 A 
HETATM   30 BR1  UNL     1      23.558  10.072  47.729  1.00  0.00    -0.051 Br
HETATM   31  C18 UNL     1      23.701   8.194  49.893  1.00  0.00     0.048 A 
ENDBRANCH  23  25
ENDBRANCH  13  23
BRANCH   1  32
HETATM   32  O1  UNL     1      21.854   3.246  46.695  1.00  0.00    -0.355 OA
HETATM   33  C1  UNL     1      21.789   3.982  45.491  1.00  0.00     0.210 C 
ENDBRANCH   1  32
TORSDOF 3
ENDMDL
MODEL 7
REMARK VINA RESULT:      -7.6      4.063      7.400
REMARK  3 active torsions:
REMARK  status: ('A' for Active; 'I' for Inactive)
REMARK    1  A    between atoms: O1_2  and  C2_3 
REMARK    2  A    between atoms: C12_15  and  N3_16 
REMARK    3  A    between atoms: N3_16  and  C13_17 
ROOT
HETATM    1  C2  UNL     1      25.204   8.779  47.542  1.00  0.00     0.075 A 
HETATM    2  C3  UNL     1      25.965   9.474  46.639  1.00  0.00     0.037 A 
HETATM    3  C4  UNL     1      27.233   9.186  46.197  1.00  0.00     0.004 A 
HETATM    4  C5  UNL     1      27.727   8.040  46.786  1.00  0.00     0.012 A 
HETATM    5  C6  UNL     1      27.040   7.250  47.722  1.00  0.00    -0.027 A 
HETATM    6  C7  UNL     1      25.771   7.651  48.080  1.00  0.00    -0.014 A 
HETATM    7  C8  UNL     1      24.879   6.900  49.042  1.00  0.00     0.045 C 
HETATM    8  C9  UNL     1      24.075   5.889  48.303  1.00  0.00     0.045 C 
HETATM    9  C10 UNL     1      23.296   4.962  49.250  1.00  0.00     0.109 A 
HETATM   10  N1  UNL     1      22.244   5.646  49.928  1.00  0.00    -0.264 NA
HETATM   11  C11 UNL     1      21.033   5.588  49.367  1.00  0.00     0.230 C 
HETATM   12  N2  UNL     1      20.520   4.940  48.183  1.00  0.00    -0.224 NA
HETATM   13  C12 UNL     1      21.378   4.218  47.494  1.00  0.00     0.138 C 
HETATM   14  C19 UNL     1      22.561   3.944  48.386  1.00  0.00     0.019 A 
HETATM   15  C20 UNL     1      23.327   2.931  48.881  1.00  0.00     0.015 A 
HETATM   16  C21 UNL     1      24.070   3.844  49.768  1.00  0.00     0.143 A 
HETATM   17  N4  UNL     1      25.481   3.970  49.514  1.00  0.00    -0.347 N 
HETATM   18  C22 UNL     1      26.901   4.094  49.260  1.00  0.00     0.241 C 
HETATM   19  O2  UNL     1      26.850   2.965  49.827  1.00  0.00    -0.269 OA
HETATM   20  C23 UNL     1      27.951   4.972  48.684  1.00  0.00     0.075 C 
HETATM   21  C24 UNL     1      27.841   6.127  48.145  1.00  0.00     0.017 C 
HETATM   22  H19 UNL     1      25.639   4.749  48.878  1.00  0.00     0.163 HD
ENDROOT
BRANCH  13  23
HETATM   23  N3  UNL     1      21.369   3.446  46.303  1.00  0.00    -0.340 N 
HETATM   24  H12 UNL     1      21.450   2.411  46.291  1.00  0.00     0.167 HD
BRANCH  23  25
HETATM   25  C13 UNL     1      21.228   4.382  45.207  1.00  0.00     0.035 A 
HETATM   26  C14 UNL     1      20.263   4.310  44.226  1.00  0.00     0.029 A 
HETATM   27  C15 UNL     1      20.273   5.286  43.253  1.00  0.00     0.004 A 
HETATM   28  C16 UNL     1      21.223   6.309  43.262  1.00  0.00     0.019 A 
HETATM   29  C17 UNL     1      22.190   6.367  44.259  1.00  0.00     0.013 A 
HETATM   30 BR1  UNL     1      23.496   7.762  44.278  1.00  0.00    -0.051 Br
HETATM   31  C18 UNL     1      22.190   5.395  45.236  1.00  0.00     0.048 A 
ENDBRANCH  23  25
ENDBRANCH  13  23
BRANCH   1  32
HETATM   32  O1  UNL     1      23.940   9.186  47.894  1.00  0.00    -0.355 OA
HETATM   33  C1  UNL     1      23.552  10.510  47.590  1.00  0.00     0.210 C 
ENDBRANCH   1  32
TORSDOF 3
ENDMDL
MODEL 8
REMARK VINA RESULT:      -7.6      7.852     10.638
REMARK  3 active torsions:
REMARK  status: ('A' for Active; 'I' for Inactive)
REMARK    1  A    between atoms: O1_2  and  C2_3 
REMARK    2  A    between atoms: C12_15  and  N3_16 
REMARK    3  A    between atoms: N3_16  and  C13_17 
ROOT
HETATM    1  C2  UNL     1      13.783  -4.380  52.581  1.00  0.00     0.075 A 
HETATM    2  C3  UNL     1      13.694  -5.462  53.418  1.00  0.00     0.037 A 
HETATM    3  C4  UNL     1      14.650  -5.954  54.273  1.00  0.00     0.004 A 
HETATM    4  C5  UNL     1      15.810  -5.210  54.219  1.00  0.00     0.012 A 
HETATM    5  C6  UNL     1      16.015  -4.086  53.403  1.00  0.00    -0.027 A 
HETATM    6  C7  UNL     1      14.972  -3.695  52.589  1.00  0.00    -0.014 A 
HETATM    7  C8  UNL     1      15.007  -2.491  51.677  1.00  0.00     0.045 C 
HETATM    8  C9  UNL     1      14.547  -1.283  52.416  1.00  0.00     0.045 C 
HETATM    9  C10 UNL     1      14.748   0.006  51.603  1.00  0.00     0.109 A 
HETATM   10  N1  UNL     1      13.873   0.074  50.479  1.00  0.00    -0.264 NA
HETATM   11  C11 UNL     1      12.720   0.725  50.655  1.00  0.00     0.230 C 
HETATM   12  N2  UNL     1      12.142   1.429  51.775  1.00  0.00    -0.224 NA
HETATM   13  C12 UNL     1      12.877   1.497  52.865  1.00  0.00     0.138 C 
HETATM   14  C19 UNL     1      14.295   1.170  52.477  1.00  0.00     0.019 A 
HETATM   15  C20 UNL     1      15.570   1.646  52.549  1.00  0.00     0.015 A 
HETATM   16  C21 UNL     1      16.087   0.568  51.687  1.00  0.00     0.143 A 
HETATM   17  N4  UNL     1      17.037  -0.329  52.290  1.00  0.00    -0.347 N 
HETATM   18  C22 UNL     1      17.996  -1.229  52.897  1.00  0.00     0.241 C 
HETATM   19  O2  UNL     1      18.711  -0.204  52.700  1.00  0.00    -0.269 OA
HETATM   20  C23 UNL     1      18.182  -2.588  53.466  1.00  0.00     0.075 C 
HETATM   21  C24 UNL     1      17.340  -3.544  53.582  1.00  0.00     0.017 C 
HETATM   22  H19 UNL     1      16.542  -1.126  52.684  1.00  0.00     0.163 HD
ENDROOT
BRANCH  13  23
HETATM   23  N3  UNL     1      12.750   2.029  54.174  1.00  0.00    -0.340 N 
HETATM   24  H12 UNL     1      13.314   2.826  54.525  1.00  0.00     0.167 HD
BRANCH  23  25
HETATM   25  C13 UNL     1      11.725   1.249  54.838  1.00  0.00     0.035 A 
HETATM   26  C14 UNL     1      10.486   1.726  55.207  1.00  0.00     0.029 A 
HETATM   27  C15 UNL     1       9.629   0.846  55.832  1.00  0.00     0.004 A 
HETATM   28  C16 UNL     1      10.000  -0.476  56.080  1.00  0.00     0.019 A 
HETATM   29  C17 UNL     1      11.255  -0.941  55.701  1.00  0.00     0.013 A 
HETATM   30 BR1  UNL     1      11.773  -2.749  56.038  1.00  0.00    -0.051 Br
HETATM   31  C18 UNL     1      12.121  -0.069  55.076  1.00  0.00     0.048 A 
ENDBRANCH  23  25
ENDBRANCH  13  23
BRANCH   1  32
HETATM   32  O1  UNL     1      12.740  -3.998  51.773  1.00  0.00    -0.355 OA
HETATM   33  C1  UNL     1      11.486  -3.741  52.373  1.00  0.00     0.210 C 
ENDBRANCH   1  32
TORSDOF 3
ENDMDL
MODEL 9
REMARK VINA RESULT:      -7.3      6.989     10.751
REMARK  3 active torsions:
REMARK  status: ('A' for Active; 'I' for Inactive)
REMARK    1  A    between atoms: O1_2  and  C2_3 
REMARK    2  A    between atoms: C12_15  and  N3_16 
REMARK    3  A    between atoms: N3_16  and  C13_17 
ROOT
HETATM    1  C2  UNL     1      31.153   8.427  46.474  1.00  0.00     0.075 A 
HETATM    2  C3  UNL     1      32.249   7.852  47.063  1.00  0.00     0.037 A 
HETATM    3  C4  UNL     1      32.957   8.295  48.154  1.00  0.00     0.004 A 
HETATM    4  C5  UNL     1      32.433   9.468  48.656  1.00  0.00     0.012 A 
HETATM    5  C6  UNL     1      31.318  10.145  48.137  1.00  0.00    -0.027 A 
HETATM    6  C7  UNL     1      30.696   9.592  47.037  1.00  0.00    -0.014 A 
HETATM    7  C8  UNL     1      29.465  10.167  46.374  1.00  0.00     0.045 C 
HETATM    8  C9  UNL     1      28.241   9.620  47.021  1.00  0.00     0.045 C 
HETATM    9  C10 UNL     1      26.964  10.315  46.525  1.00  0.00     0.109 A 
HETATM   10  N1  UNL     1      26.671   9.996  45.166  1.00  0.00    -0.264 NA
HETATM   11  C11 UNL     1      25.833   8.976  44.957  1.00  0.00     0.230 C 
HETATM   12  N2  UNL     1      25.106   8.096  45.840  1.00  0.00    -0.224 NA
HETATM   13  C12 UNL     1      25.237   8.323  47.130  1.00  0.00     0.138 C 
HETATM   14  C19 UNL     1      25.792   9.714  47.292  1.00  0.00     0.019 A 
HETATM   15  C20 UNL     1      25.559  10.902  47.920  1.00  0.00     0.015 A 
HETATM   16  C21 UNL     1      26.659  11.568  47.199  1.00  0.00     0.143 A 
HETATM   17  N4  UNL     1      27.748  12.051  48.007  1.00  0.00    -0.347 N 
HETATM   18  C22 UNL     1      28.841  12.541  48.820  1.00  0.00     0.241 C 
HETATM   19  O2  UNL     1      27.952  13.411  49.053  1.00  0.00    -0.269 OA
HETATM   20  C23 UNL     1      30.243  12.284  49.237  1.00  0.00     0.075 C 
HETATM   21  C24 UNL     1      31.036  11.342  48.890  1.00  0.00     0.017 C 
HETATM   22  H19 UNL     1      28.464  11.331  48.069  1.00  0.00     0.163 HD
ENDROOT
BRANCH  13  23
HETATM   23  N3  UNL     1      24.771   7.749  48.341  1.00  0.00    -0.340 N 
HETATM   24  H12 UNL     1      23.981   8.136  48.892  1.00  0.00     0.167 HD
BRANCH  23  25
HETATM   25  C13 UNL     1      25.600   6.587  48.592  1.00  0.00     0.035 A 
HETATM   26  C14 UNL     1      26.942   6.496  48.292  1.00  0.00     0.029 A 
HETATM   27  C15 UNL     1      27.581   5.314  48.598  1.00  0.00     0.004 A 
HETATM   28  C16 UNL     1      26.897   4.251  49.189  1.00  0.00     0.019 A 
HETATM   29  C17 UNL     1      25.542   4.360  49.485  1.00  0.00     0.013 A 
HETATM   30 BR1  UNL     1      24.596   2.910  50.293  1.00  0.00    -0.051 Br
HETATM   31  C18 UNL     1      24.892   5.538  49.182  1.00  0.00     0.048 A 
ENDBRANCH  23  25
ENDBRANCH  13  23
BRANCH   1  32
HETATM   32  O1  UNL     1      30.541   7.870  45.378  1.00  0.00    -0.355 OA
HETATM   33  C1  UNL     1      31.254   7.829  44.159  1.00  0.00     0.210 C 
ENDBRANCH   1  32
TORSDOF 3
ENDMDL
