MODEL 1
REMARK VINA RESULT:      -7.7      0.000      0.000
REMARK  6 active torsions:
REMARK  status: ('A' for Active; 'I' for Inactive)
REMARK       I    between atoms: C1_2  and  N1_3 
REMARK       I    between atoms: C1_2  and  N5_12 
REMARK    1  A    between atoms: N1_3  and  N2_4 
REMARK       I    between atoms: N2_4  and  C2_5 
REMARK    2  A    between atoms: C2_5  and  C3_7 
REMARK    3  A    between atoms: N5_12  and  C5_13 
REMARK    4  A    between atoms: C10_18  and  C11_19 
REMARK    5  A    between atoms: C11_19  and  C12_20 
REMARK    6  A    between atoms: C13_21  and  S2_22 
ROOT
HETATM    1  O1  UNL     1      26.651   3.254  49.299  1.00  0.00    -0.245 OA
HETATM    2  C1  UNL     1      26.080   4.348  49.519  1.00  0.00     0.339 C 
HETATM    3  N1  UNL     1      26.910   5.491  49.424  1.00  0.00    -0.248 N 
HETATM    4  N5  UNL     1      24.703   4.379  49.836  1.00  0.00    -0.307 N 
HETATM    5  H1  UNL     1      26.478   6.445  49.598  1.00  0.00     0.192 HD
HETATM    6  H4  UNL     1      24.388   5.352  49.995  1.00  0.00     0.170 HD
ENDROOT
BRANCH   4   7
HETATM    7  C5  UNL     1      23.793   3.305  49.952  1.00  0.00     0.043 A 
HETATM    8  C6  UNL     1      23.034   2.759  48.945  1.00  0.00     0.030 A 
HETATM    9  C7  UNL     1      22.156   1.710  49.086  1.00  0.00     0.002 A 
HETATM   10  C8  UNL     1      22.003   1.137  50.332  1.00  0.00     0.001 A 
HETATM   11  C9  UNL     1      22.754   1.668  51.359  1.00  0.00     0.010 A 
HETATM   12  C10 UNL     1      23.630   2.726  51.186  1.00  0.00    -0.028 A 
BRANCH  12  13
HETATM   13  C11 UNL     1      24.356   3.176  52.408  1.00  0.00     0.068 C 
BRANCH  13  14
HETATM   14  C12 UNL     1      25.346   2.158  52.889  1.00  0.00    -0.015 C 
HETATM   15  C13 UNL     1      26.641   1.839  52.680  1.00  0.00     0.040 C 
BRANCH  15  16
HETATM   16  S2  UNL     1      27.758   0.556  53.335  1.00  0.00    -0.136 SA
HETATM   17  C14 UNL     1      28.613   0.062  54.700  1.00  0.00     0.021 A 
HETATM   18  C15 UNL     1      29.489   0.193  53.661  1.00  0.00     0.063 A 
ENDBRANCH  15  16
ENDBRANCH  13  14
ENDBRANCH  12  13
ENDBRANCH   4   7
BRANCH   3  19
HETATM   19  N2  UNL     1      28.269   5.419  49.110  1.00  0.00    -0.260 N 
HETATM   20  C2  UNL     1      29.011   6.138  48.147  1.00  0.00     0.297 C 
HETATM   21  O2  UNL     1      28.313   6.950  47.498  1.00  0.00    -0.264 OA
HETATM   22  H2  UNL     1      28.609   4.686  49.782  1.00  0.00     0.190 HD
BRANCH  20  23
HETATM   23  C3  UNL     1      30.439   5.710  48.185  1.00  0.00     0.186 A 
HETATM   24  N3  UNL     1      30.787   4.762  47.651  1.00  0.00    -0.227 NA
HETATM   25  C4  UNL     1      32.008   4.242  47.584  1.00  0.00     0.243 A 
HETATM   26  N4  UNL     1      32.954   4.908  48.223  1.00  0.00    -0.203 NA
HETATM   27  S1  UNL     1      32.018   6.340  48.941  1.00  0.00     0.038 SA
ENDBRANCH  20  23
ENDBRANCH   3  19
TORSDOF 6
ENDMDL
MODEL 2
REMARK VINA RESULT:      -7.3      2.331      2.576
REMARK  6 active torsions:
REMARK  status: ('A' for Active; 'I' for Inactive)
REMARK       I    between atoms: C1_2  and  N1_3 
REMARK       I    between atoms: C1_2  and  N5_12 
REMARK    1  A    between atoms: N1_3  and  N2_4 
REMARK       I    between atoms: N2_4  and  C2_5 
REMARK    2  A    between atoms: C2_5  and  C3_7 
REMARK    3  A    between atoms: N5_12  and  C5_13 
REMARK    4  A    between atoms: C10_18  and  C11_19 
REMARK    5  A    between atoms: C11_19  and  C12_20 
REMARK    6  A    between atoms: C13_21  and  S2_22 
ROOT
HETATM    1  O1  UNL     1      25.756   5.122  49.546  1.00  0.00    -0.245 OA
HETATM    2  C1  UNL     1      25.104   5.765  50.402  1.00  0.00     0.339 C 
HETATM    3  N1  UNL     1      25.615   7.047  50.711  1.00  0.00    -0.248 N 
HETATM    4  N5  UNL     1      23.946   5.199  50.983  1.00  0.00    -0.307 N 
HETATM    5  H1  UNL     1      25.099   7.637  51.428  1.00  0.00     0.192 HD
HETATM    6  H4  UNL     1      23.529   5.849  51.671  1.00  0.00     0.170 HD
ENDROOT
BRANCH   4   7
HETATM    7  C5  UNL     1      23.356   3.939  50.742  1.00  0.00     0.043 A 
HETATM    8  C6  UNL     1      22.601   3.579  49.652  1.00  0.00     0.030 A 
HETATM    9  C7  UNL     1      22.039   2.342  49.442  1.00  0.00     0.002 A 
HETATM   10  C8  UNL     1      22.232   1.357  50.389  1.00  0.00     0.001 A 
HETATM   11  C9  UNL     1      22.986   1.694  51.493  1.00  0.00     0.010 A 
HETATM   12  C10 UNL     1      23.539   2.950  51.677  1.00  0.00    -0.028 A 
BRANCH  12  13
HETATM   13  C11 UNL     1      24.319   3.139  52.933  1.00  0.00     0.068 C 
BRANCH  13  14
HETATM   14  C12 UNL     1      25.311   2.037  53.158  1.00  0.00    -0.015 C 
HETATM   15  C13 UNL     1      26.194   1.659  54.106  1.00  0.00     0.040 C 
BRANCH  15  16
HETATM   16  S2  UNL     1      27.368   0.274  54.274  1.00  0.00    -0.136 SA
HETATM   17  C14 UNL     1      28.993  -0.116  54.487  1.00  0.00     0.021 A 
HETATM   18  C15 UNL     1      28.542  -0.729  53.353  1.00  0.00     0.063 A 
ENDBRANCH  15  16
ENDBRANCH  13  14
ENDBRANCH  12  13
ENDBRANCH   4   7
BRANCH   3  19
HETATM   19  N2  UNL     1      26.765   7.571  50.115  1.00  0.00    -0.260 N 
HETATM   20  C2  UNL     1      27.160   8.917  49.948  1.00  0.00     0.297 C 
HETATM   21  O2  UNL     1      26.331   9.732  50.415  1.00  0.00    -0.264 OA
HETATM   22  H2  UNL     1      27.272   6.700  49.819  1.00  0.00     0.190 HD
BRANCH  20  23
HETATM   23  C3  UNL     1      28.475   8.975  49.249  1.00  0.00     0.186 A 
HETATM   24  N3  UNL     1      28.876   8.078  48.667  1.00  0.00    -0.227 NA
HETATM   25  C4  UNL     1      30.015   7.961  47.992  1.00  0.00     0.243 A 
HETATM   26  N4  UNL     1      30.798   9.027  47.994  1.00  0.00    -0.203 NA
HETATM   27  S1  UNL     1      29.826  10.233  49.016  1.00  0.00     0.038 SA
ENDBRANCH  20  23
ENDBRANCH   3  19
TORSDOF 6
ENDMDL
MODEL 3
REMARK VINA RESULT:      -7.1      3.747      4.554
REMARK  6 active torsions:
REMARK  status: ('A' for Active; 'I' for Inactive)
REMARK       I    between atoms: C1_2  and  N1_3 
REMARK       I    between atoms: C1_2  and  N5_12 
REMARK    1  A    between atoms: N1_3  and  N2_4 
REMARK       I    between atoms: N2_4  and  C2_5 
REMARK    2  A    between atoms: C2_5  and  C3_7 
REMARK    3  A    between atoms: N5_12  and  C5_13 
REMARK    4  A    between atoms: C10_18  and  C11_19 
REMARK    5  A    between atoms: C11_19  and  C12_20 
REMARK    6  A    between atoms: C13_21  and  S2_22 
ROOT
HETATM    1  O1  UNL     1      25.547   7.866  48.919  1.00  0.00    -0.245 OA
HETATM    2  C1  UNL     1      25.947   7.491  50.046  1.00  0.00     0.339 C 
HETATM    3  N1  UNL     1      26.891   8.345  50.664  1.00  0.00    -0.248 N 
HETATM    4  N5  UNL     1      25.455   6.293  50.611  1.00  0.00    -0.307 N 
HETATM    5  H1  UNL     1      27.262   8.077  51.623  1.00  0.00     0.192 HD
HETATM    6  H4  UNL     1      25.886   6.123  51.536  1.00  0.00     0.170 HD
ENDROOT
BRANCH   4   7
HETATM    7  C5  UNL     1      24.517   5.379  50.082  1.00  0.00     0.043 A 
HETATM    8  C6  UNL     1      23.166   5.581  49.935  1.00  0.00     0.030 A 
HETATM    9  C7  UNL     1      22.274   4.674  49.413  1.00  0.00     0.002 A 
HETATM   10  C8  UNL     1      22.747   3.447  48.992  1.00  0.00     0.001 A 
HETATM   11  C9  UNL     1      24.100   3.221  49.130  1.00  0.00     0.010 A 
HETATM   12  C10 UNL     1      24.973   4.155  49.660  1.00  0.00    -0.028 A 
BRANCH  12  13
HETATM   13  C11 UNL     1      26.402   3.738  49.740  1.00  0.00     0.068 C 
BRANCH  13  14
HETATM   14  C12 UNL     1      26.590   2.510  50.580  1.00  0.00    -0.015 C 
HETATM   15  C13 UNL     1      26.639   2.188  51.890  1.00  0.00     0.040 C 
BRANCH  15  16
HETATM   16  S2  UNL     1      26.876   0.632  52.810  1.00  0.00    -0.136 SA
HETATM   17  C14 UNL     1      27.973  -0.606  53.133  1.00  0.00     0.021 A 
HETATM   18  C15 UNL     1      26.826  -1.157  52.638  1.00  0.00     0.063 A 
ENDBRANCH  15  16
ENDBRANCH  13  14
ENDBRANCH  12  13
ENDBRANCH   4   7
BRANCH   3  19
HETATM   19  N2  UNL     1      27.355   9.522  50.072  1.00  0.00    -0.260 N 
HETATM   20  C2  UNL     1      28.518   9.745  49.302  1.00  0.00     0.297 C 
HETATM   21  O2  UNL     1      29.210   8.713  49.150  1.00  0.00    -0.264 OA
HETATM   22  H2  UNL     1      26.610  10.210  50.345  1.00  0.00     0.190 HD
BRANCH  20  23
HETATM   23  C3  UNL     1      28.582  11.176  48.888  1.00  0.00     0.186 A 
HETATM   24  N3  UNL     1      27.636  11.807  48.789  1.00  0.00    -0.227 NA
HETATM   25  C4  UNL     1      27.515  13.083  48.436  1.00  0.00     0.243 A 
HETATM   26  N4  UNL     1      28.643  13.713  48.159  1.00  0.00    -0.203 NA
HETATM   27  S1  UNL     1      29.916  12.389  48.427  1.00  0.00     0.038 SA
ENDBRANCH  20  23
ENDBRANCH   3  19
TORSDOF 6
ENDMDL
MODEL 4
REMARK VINA RESULT:      -7.0      2.777      3.349
REMARK  6 active torsions:
REMARK  status: ('A' for Active; 'I' for Inactive)
REMARK       I    between atoms: C1_2  and  N1_3 
REMARK       I    between atoms: C1_2  and  N5_12 
REMARK    1  A    between atoms: N1_3  and  N2_4 
REMARK       I    between atoms: N2_4  and  C2_5 
REMARK    2  A    between atoms: C2_5  and  C3_7 
REMARK    3  A    between atoms: N5_12  and  C5_13 
REMARK    4  A    between atoms: C10_18  and  C11_19 
REMARK    5  A    between atoms: C11_19  and  C12_20 
REMARK    6  A    between atoms: C13_21  and  S2_22 
ROOT
HETATM    1  O1  UNL     1      24.470   5.000  50.635  1.00  0.00    -0.245 OA
HETATM    2  C1  UNL     1      25.365   4.176  50.331  1.00  0.00     0.339 C 
HETATM    3  N1  UNL     1      26.538   4.740  49.773  1.00  0.00    -0.248 N 
HETATM    4  N5  UNL     1      25.163   2.795  50.551  1.00  0.00    -0.307 N 
HETATM    5  H1  UNL     1      27.330   4.087  49.500  1.00  0.00     0.192 HD
HETATM    6  H4  UNL     1      25.987   2.253  50.242  1.00  0.00     0.170 HD
ENDROOT
BRANCH   4   7
HETATM    7  C5  UNL     1      24.039   2.137  51.100  1.00  0.00     0.043 A 
HETATM    8  C6  UNL     1      22.939   1.680  50.416  1.00  0.00     0.030 A 
HETATM    9  C7  UNL     1      21.859   1.040  50.977  1.00  0.00     0.002 A 
HETATM   10  C8  UNL     1      21.851   0.824  52.340  1.00  0.00     0.001 A 
HETATM   11  C9  UNL     1      22.945   1.274  53.049  1.00  0.00     0.010 A 
HETATM   12  C10 UNL     1      24.019   1.916  52.455  1.00  0.00    -0.028 A 
BRANCH  12  13
HETATM   13  C11 UNL     1      25.112   2.340  53.375  1.00  0.00     0.068 C 
BRANCH  13  14
HETATM   14  C12 UNL     1      26.216   1.328  53.451  1.00  0.00    -0.015 C 
HETATM   15  C13 UNL     1      27.301   1.081  54.215  1.00  0.00     0.040 C 
BRANCH  15  16
HETATM   16  S2  UNL     1      28.593  -0.204  54.214  1.00  0.00    -0.136 SA
HETATM   17  C14 UNL     1      30.074  -0.646  53.543  1.00  0.00     0.021 A 
HETATM   18  C15 UNL     1      29.176  -1.650  53.317  1.00  0.00     0.063 A 
ENDBRANCH  15  16
ENDBRANCH  13  14
ENDBRANCH  12  13
ENDBRANCH   4   7
BRANCH   3  19
HETATM   19  N2  UNL     1      26.699   6.112  49.569  1.00  0.00    -0.260 N 
HETATM   20  C2  UNL     1      27.550   6.795  48.672  1.00  0.00     0.297 C 
HETATM   21  O2  UNL     1      28.247   6.023  47.975  1.00  0.00    -0.264 OA
HETATM   22  H2  UNL     1      26.017   6.515  50.259  1.00  0.00     0.190 HD
BRANCH  20  23
HETATM   23  C3  UNL     1      27.366   8.267  48.823  1.00  0.00     0.186 A 
HETATM   24  N3  UNL     1      28.014   9.007  48.244  1.00  0.00    -0.227 NA
HETATM   25  C4  UNL     1      27.983  10.336  48.260  1.00  0.00     0.243 A 
HETATM   26  N4  UNL     1      27.080  10.882  49.056  1.00  0.00    -0.203 NA
HETATM   27  S1  UNL     1      26.254   9.395  49.799  1.00  0.00     0.038 SA
ENDBRANCH  20  23
ENDBRANCH   3  19
TORSDOF 6
ENDMDL
MODEL 5
REMARK VINA RESULT:      -6.9      4.621      7.321
REMARK  6 active torsions:
REMARK  status: ('A' for Active; 'I' for Inactive)
REMARK       I    between atoms: C1_2  and  N1_3 
REMARK       I    between atoms: C1_2  and  N5_12 
REMARK    1  A    between atoms: N1_3  and  N2_4 
REMARK       I    between atoms: N2_4  and  C2_5 
REMARK    2  A    between atoms: C2_5  and  C3_7 
REMARK    3  A    between atoms: N5_12  and  C5_13 
REMARK    4  A    between atoms: C10_18  and  C11_19 
REMARK    5  A    between atoms: C11_19  and  C12_20 
REMARK    6  A    between atoms: C13_21  and  S2_22 
ROOT
HETATM    1  O1  UNL     1      25.077   3.148  52.250  1.00  0.00    -0.245 OA
HETATM    2  C1  UNL     1      25.653   2.726  51.220  1.00  0.00     0.339 C 
HETATM    3  N1  UNL     1      25.022   3.057  49.998  1.00  0.00    -0.248 N 
HETATM    4  N5  UNL     1      26.847   1.977  51.332  1.00  0.00    -0.307 N 
HETATM    5  H1  UNL     1      25.470   2.727  49.093  1.00  0.00     0.192 HD
HETATM    6  H4  UNL     1      27.191   1.699  50.397  1.00  0.00     0.170 HD
ENDROOT
BRANCH   4   7
HETATM    7  C5  UNL     1      27.554   1.599  52.495  1.00  0.00     0.043 A 
HETATM    8  C6  UNL     1      28.417   2.382  53.223  1.00  0.00     0.030 A 
HETATM    9  C7  UNL     1      29.092   1.987  54.355  1.00  0.00     0.002 A 
HETATM   10  C8  UNL     1      28.905   0.703  54.823  1.00  0.00     0.001 A 
HETATM   11  C9  UNL     1      28.043  -0.102  54.109  1.00  0.00     0.010 A 
HETATM   12  C10 UNL     1      27.379   0.323  52.972  1.00  0.00    -0.028 A 
BRANCH  12  13
HETATM   13  C11 UNL     1      26.490  -0.682  52.323  1.00  0.00     0.068 C 
BRANCH  13  14
HETATM   14  C12 UNL     1      25.205  -0.872  53.071  1.00  0.00    -0.015 C 
HETATM   15  C13 UNL     1      24.029  -0.227  53.227  1.00  0.00     0.040 C 
BRANCH  15  16
HETATM   16  S2  UNL     1      22.511  -0.560  54.179  1.00  0.00    -0.136 SA
HETATM   17  C14 UNL     1      20.934  -1.143  54.069  1.00  0.00     0.021 A 
HETATM   18  C15 UNL     1      20.897   0.120  54.588  1.00  0.00     0.063 A 
ENDBRANCH  15  16
ENDBRANCH  13  14
ENDBRANCH  12  13
ENDBRANCH   4   7
BRANCH   3  19
HETATM   19  N2  UNL     1      23.840   3.798  49.929  1.00  0.00    -0.260 N 
HETATM   20  C2  UNL     1      22.498   3.357  49.931  1.00  0.00     0.297 C 
HETATM   21  O2  UNL     1      22.393   2.112  50.008  1.00  0.00    -0.264 OA
HETATM   22  H2  UNL     1      24.204   4.783  49.875  1.00  0.00     0.190 HD
BRANCH  20  23
HETATM   23  C3  UNL     1      21.581   4.529  49.839  1.00  0.00     0.186 A 
HETATM   24  N3  UNL     1      21.808   5.503  50.388  1.00  0.00    -0.227 NA
HETATM   25  C4  UNL     1      21.106   6.632  50.413  1.00  0.00     0.243 A 
HETATM   26  N4  UNL     1      19.988   6.631  49.708  1.00  0.00    -0.203 NA
HETATM   27  S1  UNL     1      19.973   4.921  48.987  1.00  0.00     0.038 SA
ENDBRANCH  20  23
ENDBRANCH   3  19
TORSDOF 6
ENDMDL
MODEL 6
REMARK VINA RESULT:      -6.8      3.312      3.776
REMARK  6 active torsions:
REMARK  status: ('A' for Active; 'I' for Inactive)
REMARK       I    between atoms: C1_2  and  N1_3 
REMARK       I    between atoms: C1_2  and  N5_12 
REMARK    1  A    between atoms: N1_3  and  N2_4 
REMARK       I    between atoms: N2_4  and  C2_5 
REMARK    2  A    between atoms: C2_5  and  C3_7 
REMARK    3  A    between atoms: N5_12  and  C5_13 
REMARK    4  A    between atoms: C10_18  and  C11_19 
REMARK    5  A    between atoms: C11_19  and  C12_20 
REMARK    6  A    between atoms: C13_21  and  S2_22 
ROOT
HETATM    1  O1  UNL     1      26.183   6.177  48.259  1.00  0.00    -0.245 OA
HETATM    2  C1  UNL     1      25.667   6.401  49.379  1.00  0.00     0.339 C 
HETATM    3  N1  UNL     1      26.373   7.317  50.195  1.00  0.00    -0.248 N 
HETATM    4  N5  UNL     1      24.464   5.758  49.747  1.00  0.00    -0.307 N 
HETATM    5  H1  UNL     1      25.979   7.545  51.154  1.00  0.00     0.192 HD
HETATM    6  H4  UNL     1      24.175   6.043  50.698  1.00  0.00     0.170 HD
ENDROOT
BRANCH   4   7
HETATM    7  C5  UNL     1      23.686   4.838  49.010  1.00  0.00     0.043 A 
HETATM    8  C6  UNL     1      22.844   5.127  47.963  1.00  0.00     0.030 A 
HETATM    9  C7  UNL     1      22.098   4.210  47.260  1.00  0.00     0.002 A 
HETATM   10  C8  UNL     1      22.183   2.879  47.613  1.00  0.00     0.001 A 
HETATM   11  C9  UNL     1      23.021   2.563  48.661  1.00  0.00     0.010 A 
HETATM   12  C10 UNL     1      23.759   3.510  49.350  1.00  0.00    -0.028 A 
BRANCH  12  13
HETATM   13  C11 UNL     1      24.609   2.991  50.459  1.00  0.00     0.068 C 
BRANCH  13  14
HETATM   14  C12 UNL     1      23.904   1.949  51.276  1.00  0.00    -0.015 C 
HETATM   15  C13 UNL     1      23.379   1.829  52.514  1.00  0.00     0.040 C 
BRANCH  15  16
HETATM   16  S2  UNL     1      22.530   0.490  53.413  1.00  0.00    -0.136 SA
HETATM   17  C14 UNL     1      22.770  -0.844  54.415  1.00  0.00     0.021 A 
HETATM   18  C15 UNL     1      22.082  -1.249  53.307  1.00  0.00     0.063 A 
ENDBRANCH  15  16
ENDBRANCH  13  14
ENDBRANCH  12  13
ENDBRANCH   4   7
BRANCH   3  19
HETATM   19  N2  UNL     1      27.562   7.932  49.796  1.00  0.00    -0.260 N 
HETATM   20  C2  UNL     1      27.924   9.297  49.825  1.00  0.00     0.297 C 
HETATM   21  O2  UNL     1      27.021  10.033  50.282  1.00  0.00    -0.264 OA
HETATM   22  H2  UNL     1      28.130   7.112  49.465  1.00  0.00     0.190 HD
BRANCH  20  23
HETATM   23  C3  UNL     1      29.306   9.464  49.290  1.00  0.00     0.186 A 
HETATM   24  N3  UNL     1      29.899   8.573  48.892  1.00  0.00    -0.227 NA
HETATM   25  C4  UNL     1      31.127   8.546  48.384  1.00  0.00     0.243 A 
HETATM   26  N4  UNL     1      31.755   9.708  48.333  1.00  0.00    -0.203 NA
HETATM   27  S1  UNL     1      30.500  10.871  49.051  1.00  0.00     0.038 SA
ENDBRANCH  20  23
ENDBRANCH   3  19
TORSDOF 6
ENDMDL
MODEL 7
REMARK VINA RESULT:      -6.8      6.720     10.837
REMARK  6 active torsions:
REMARK  status: ('A' for Active; 'I' for Inactive)
REMARK       I    between atoms: C1_2  and  N1_3 
REMARK       I    between atoms: C1_2  and  N5_12 
REMARK    1  A    between atoms: N1_3  and  N2_4 
REMARK       I    between atoms: N2_4  and  C2_5 
REMARK    2  A    between atoms: C2_5  and  C3_7 
REMARK    3  A    between atoms: N5_12  and  C5_13 
REMARK    4  A    between atoms: C10_18  and  C11_19 
REMARK    5  A    between atoms: C11_19  and  C12_20 
REMARK    6  A    between atoms: C13_21  and  S2_22 
ROOT
HETATM    1  O1  UNL     1      21.893  -1.221  52.618  1.00  0.00    -0.245 OA
HETATM    2  C1  UNL     1      21.986  -0.647  53.729  1.00  0.00     0.339 C 
HETATM    3  N1  UNL     1      20.824  -0.703  54.535  1.00  0.00    -0.248 N 
HETATM    4  N5  UNL     1      23.190  -0.006  54.097  1.00  0.00    -0.307 N 
HETATM    5  H1  UNL     1      20.848  -0.235  55.488  1.00  0.00     0.192 HD
HETATM    6  H4  UNL     1      23.102   0.423  55.034  1.00  0.00     0.170 HD
ENDROOT
BRANCH   4   7
HETATM    7  C5  UNL     1      24.398   0.103  53.373  1.00  0.00     0.043 A 
HETATM    8  C6  UNL     1      25.379  -0.853  53.263  1.00  0.00     0.030 A 
HETATM    9  C7  UNL     1      26.546  -0.721  52.547  1.00  0.00     0.002 A 
HETATM   10  C8  UNL     1      26.779   0.460  51.871  1.00  0.00     0.001 A 
HETATM   11  C9  UNL     1      25.808   1.434  51.967  1.00  0.00     0.010 A 
HETATM   12  C10 UNL     1      24.643   1.272  52.696  1.00  0.00    -0.028 A 
BRANCH  12  13
HETATM   13  C11 UNL     1      23.708   2.433  52.694  1.00  0.00     0.068 C 
BRANCH  13  14
HETATM   14  C12 UNL     1      22.814   2.440  51.490  1.00  0.00    -0.015 C 
HETATM   15  C13 UNL     1      21.585   1.997  51.149  1.00  0.00     0.040 C 
BRANCH  15  16
HETATM   16  S2  UNL     1      20.584   2.067  49.628  1.00  0.00    -0.136 SA
HETATM   17  C14 UNL     1      20.626   2.438  47.985  1.00  0.00     0.021 A 
HETATM   18  C15 UNL     1      19.650   3.187  48.576  1.00  0.00     0.063 A 
ENDBRANCH  15  16
ENDBRANCH  13  14
ENDBRANCH  12  13
ENDBRANCH   4   7
BRANCH   3  19
HETATM   19  N2  UNL     1      19.650  -1.345  54.134  1.00  0.00    -0.260 N 
HETATM   20  C2  UNL     1      18.653  -0.918  53.229  1.00  0.00     0.297 C 
HETATM   21  O2  UNL     1      18.891   0.207  52.734  1.00  0.00    -0.264 OA
HETATM   22  H2  UNL     1      19.696  -2.241  54.681  1.00  0.00     0.190 HD
BRANCH  20  23
HETATM   23  C3  UNL     1      17.585  -1.954  53.127  1.00  0.00     0.186 A 
HETATM   24  N3  UNL     1      17.725  -2.994  53.578  1.00  0.00    -0.227 NA
HETATM   25  C4  UNL     1      16.885  -4.024  53.579  1.00  0.00     0.243 A 
HETATM   26  N4  UNL     1      15.727  -3.823  52.974  1.00  0.00    -0.203 NA
HETATM   27  S1  UNL     1      15.881  -2.069  52.389  1.00  0.00     0.038 SA
ENDBRANCH  20  23
ENDBRANCH   3  19
TORSDOF 6
ENDMDL
MODEL 8
REMARK VINA RESULT:      -6.8      6.279     10.599
REMARK  6 active torsions:
REMARK  status: ('A' for Active; 'I' for Inactive)
REMARK       I    between atoms: C1_2  and  N1_3 
REMARK       I    between atoms: C1_2  and  N5_12 
REMARK    1  A    between atoms: N1_3  and  N2_4 
REMARK       I    between atoms: N2_4  and  C2_5 
REMARK    2  A    between atoms: C2_5  and  C3_7 
REMARK    3  A    between atoms: N5_12  and  C5_13 
REMARK    4  A    between atoms: C10_18  and  C11_19 
REMARK    5  A    between atoms: C11_19  and  C12_20 
REMARK    6  A    between atoms: C13_21  and  S2_22 
ROOT
HETATM    1  O1  UNL     1      22.063  -1.262  52.744  1.00  0.00    -0.245 OA
HETATM    2  C1  UNL     1      22.136  -0.638  53.829  1.00  0.00     0.339 C 
HETATM    3  N1  UNL     1      20.948  -0.626  54.598  1.00  0.00    -0.248 N 
HETATM    4  N5  UNL     1      23.344  -0.010  54.206  1.00  0.00    -0.307 N 
HETATM    5  H1  UNL     1      20.954  -0.113  55.528  1.00  0.00     0.192 HD
HETATM    6  H4  UNL     1      23.238   0.466  55.119  1.00  0.00     0.170 HD
ENDROOT
BRANCH   4   7
HETATM    7  C5  UNL     1      24.577   0.034  53.517  1.00  0.00     0.043 A 
HETATM    8  C6  UNL     1      25.498  -0.980  53.417  1.00  0.00     0.030 A 
HETATM    9  C7  UNL     1      26.692  -0.911  52.737  1.00  0.00     0.002 A 
HETATM   10  C8  UNL     1      27.018   0.263  52.090  1.00  0.00     0.001 A 
HETATM   11  C9  UNL     1      26.109   1.296  52.176  1.00  0.00     0.010 A 
HETATM   12  C10 UNL     1      24.915   1.196  52.870  1.00  0.00    -0.028 A 
BRANCH  12  13
HETATM   13  C11 UNL     1      24.055   2.414  52.863  1.00  0.00     0.068 C 
BRANCH  13  14
HETATM   14  C12 UNL     1      24.339   3.304  51.690  1.00  0.00    -0.015 C 
HETATM   15  C13 UNL     1      23.729   3.687  50.548  1.00  0.00     0.040 C 
BRANCH  15  16
HETATM   16  S2  UNL     1      24.180   4.796  49.174  1.00  0.00    -0.136 SA
HETATM   17  C14 UNL     1      25.173   6.083  48.732  1.00  0.00     0.021 A 
HETATM   18  C15 UNL     1      23.875   6.432  48.493  1.00  0.00     0.063 A 
ENDBRANCH  15  16
ENDBRANCH  13  14
ENDBRANCH  12  13
ENDBRANCH   4   7
BRANCH   3  19
HETATM   19  N2  UNL     1      19.771  -1.258  54.189  1.00  0.00    -0.260 N 
HETATM   20  C2  UNL     1      18.798  -0.835  53.257  1.00  0.00     0.297 C 
HETATM   21  O2  UNL     1      19.065   0.274  52.741  1.00  0.00    -0.264 OA
HETATM   22  H2  UNL     1      19.791  -2.141  54.757  1.00  0.00     0.190 HD
BRANCH  20  23
HETATM   23  C3  UNL     1      17.715  -1.855  53.158  1.00  0.00     0.186 A 
HETATM   24  N3  UNL     1      17.830  -2.888  53.631  1.00  0.00    -0.227 NA
HETATM   25  C4  UNL     1      16.973  -3.904  53.639  1.00  0.00     0.243 A 
HETATM   26  N4  UNL     1      15.828  -3.696  53.012  1.00  0.00    -0.203 NA
HETATM   27  S1  UNL     1      16.021  -1.956  52.396  1.00  0.00     0.038 SA
ENDBRANCH  20  23
ENDBRANCH   3  19
TORSDOF 6
ENDMDL
MODEL 9
REMARK VINA RESULT:      -6.8      4.465      6.049
REMARK  6 active torsions:
REMARK  status: ('A' for Active; 'I' for Inactive)
REMARK       I    between atoms: C1_2  and  N1_3 
REMARK       I    between atoms: C1_2  and  N5_12 
REMARK    1  A    between atoms: N1_3  and  N2_4 
REMARK       I    between atoms: N2_4  and  C2_5 
REMARK    2  A    between atoms: C2_5  and  C3_7 
REMARK    3  A    between atoms: N5_12  and  C5_13 
REMARK    4  A    between atoms: C10_18  and  C11_19 
REMARK    5  A    between atoms: C11_19  and  C12_20 
REMARK    6  A    between atoms: C13_21  and  S2_22 
ROOT
HETATM    1  O1  UNL     1      24.972   2.153  50.682  1.00  0.00    -0.245 OA
HETATM    2  C1  UNL     1      25.279   3.153  51.371  1.00  0.00     0.339 C 
HETATM    3  N1  UNL     1      26.255   2.921  52.370  1.00  0.00    -0.248 N 
HETATM    4  N5  UNL     1      24.661   4.401  51.125  1.00  0.00    -0.307 N 
HETATM    5  H1  UNL     1      26.554   3.736  52.982  1.00  0.00     0.192 HD
HETATM    6  H4  UNL     1      25.016   5.118  51.780  1.00  0.00     0.170 HD
ENDROOT
BRANCH   4   7
HETATM    7  C5  UNL     1      23.687   4.735  50.159  1.00  0.00     0.043 A 
HETATM    8  C6  UNL     1      23.909   5.038  48.838  1.00  0.00     0.030 A 
HETATM    9  C7  UNL     1      22.939   5.358  47.917  1.00  0.00     0.002 A 
HETATM   10  C8  UNL     1      21.622   5.386  48.325  1.00  0.00     0.001 A 
HETATM   11  C9  UNL     1      21.373   5.085  49.648  1.00  0.00     0.010 A 
HETATM   12  C10 UNL     1      22.371   4.767  50.552  1.00  0.00    -0.028 A 
BRANCH  12  13
HETATM   13  C11 UNL     1      21.921   4.476  51.943  1.00  0.00     0.068 C 
BRANCH  13  14
HETATM   14  C12 UNL     1      21.517   3.043  52.121  1.00  0.00    -0.015 C 
HETATM   15  C13 UNL     1      21.988   1.935  52.731  1.00  0.00     0.040 C 
BRANCH  15  16
HETATM   16  S2  UNL     1      21.399   0.217  52.884  1.00  0.00    -0.136 SA
HETATM   17  C14 UNL     1      20.299  -0.780  53.681  1.00  0.00     0.021 A 
HETATM   18  C15 UNL     1      21.558  -1.269  53.884  1.00  0.00     0.063 A 
ENDBRANCH  15  16
ENDBRANCH  13  14
ENDBRANCH  12  13
ENDBRANCH   4   7
BRANCH   3  19
HETATM   19  N2  UNL     1      26.841   1.672  52.584  1.00  0.00    -0.260 N 
HETATM   20  C2  UNL     1      27.901   1.309  53.445  1.00  0.00     0.297 C 
HETATM   21  O2  UNL     1      28.355   2.278  54.095  1.00  0.00    -0.264 OA
HETATM   22  H2  UNL     1      26.287   1.058  51.935  1.00  0.00     0.190 HD
BRANCH  20  23
HETATM   23  C3  UNL     1      28.173  -0.152  53.323  1.00  0.00     0.186 A 
HETATM   24  N3  UNL     1      29.202  -0.584  53.566  1.00  0.00    -0.227 NA
HETATM   25  C4  UNL     1      29.611  -1.847  53.513  1.00  0.00     0.243 A 
HETATM   26  N4  UNL     1      28.707  -2.730  53.124  1.00  0.00    -0.203 NA
HETATM   27  S1  UNL     1      27.214  -1.667  52.830  1.00  0.00     0.038 SA
ENDBRANCH  20  23
ENDBRANCH   3  19
TORSDOF 6
ENDMDL
