MODEL 1
REMARK VINA RESULT:      -7.1      0.000      0.000
REMARK  6 active torsions:
REMARK  status: ('A' for Active; 'I' for Inactive)
REMARK    1  A    between atoms: C5_6  and  C6_7 
REMARK    2  A    between atoms: C6_7  and  O1_8 
REMARK    3  A    between atoms: O1_8  and  C7_9 
REMARK    4  A    between atoms: C10_12  and  N1_13 
REMARK    5  A    between atoms: N1_13  and  C11_14 
REMARK    6  A    between atoms: C11_14  and  N2_15 
ROOT
HETATM    1  C7  UNL     1      25.767   4.333  49.836  1.00  0.00     0.127 A 
HETATM    2  C8  UNL     1      27.035   4.230  49.009  1.00  0.00     0.050 C 
HETATM    3  C9  UNL     1      26.875   5.711  48.648  1.00  0.00     0.042 C 
HETATM    4  C10 UNL     1      25.758   5.764  49.605  1.00  0.00     0.083 A 
HETATM    5  C12 UNL     1      24.459   5.443  48.918  1.00  0.00     0.029 A 
HETATM    6  C13 UNL     1      24.499   4.142  49.145  1.00  0.00     0.048 A 
HETATM    7 CL2  UNL     1      23.444   2.804  48.755  1.00  0.00    -0.086 Cl
ENDROOT
BRANCH   1   8
HETATM    8  O1  UNL     1      25.886   3.793  51.098  1.00  0.00    -0.367 OA
BRANCH   8   9
HETATM    9  C6  UNL     1      26.580   2.593  50.952  1.00  0.00     0.208 C 
BRANCH   9  10
HETATM   10  C5  UNL     1      25.976   1.502  51.754  1.00  0.00    -0.032 A 
HETATM   11  C4  UNL     1      24.686   1.639  52.225  1.00  0.00     0.009 A 
HETATM   12  C3  UNL     1      23.989   0.719  52.981  1.00  0.00     0.004 A 
HETATM   13  C2  UNL     1      24.689  -0.445  53.273  1.00  0.00     0.042 A 
HETATM   14  C1  UNL     1      25.984  -0.660  52.839  1.00  0.00     0.117 A 
HETATM   15  F1  UNL     1      26.642  -1.792  53.134  1.00  0.00    -0.206 F 
HETATM   16  C14 UNL     1      26.608   0.323  52.083  1.00  0.00     0.051 A 
ENDBRANCH   9  10
ENDBRANCH   8   9
ENDBRANCH   1   8
BRANCH   4  17
HETATM   17  N1  UNL     1      25.623   6.719  50.594  1.00  0.00    -0.394 N 
HETATM   18  H10 UNL     1      26.298   7.481  50.565  1.00  0.00     0.155 HD
BRANCH  17  19
HETATM   19  C11 UNL     1      24.416   6.952  51.266  1.00  0.00     0.222 C 
BRANCH  19  20
HETATM   20  N2  UNL     1      24.198   6.314  52.520  1.00  0.00    -0.220 NA
HETATM   21 CL1  UNL     1      23.046   5.003  52.397  1.00  0.00    -0.023 Cl
HETATM   22  H13 UNL     1      25.090   5.825  52.851  1.00  0.00     0.142 HD
ENDBRANCH  19  20
ENDBRANCH  17  19
ENDBRANCH   4  17
TORSDOF 6
ENDMDL
MODEL 2
REMARK VINA RESULT:      -7.0      4.245      6.626
REMARK  6 active torsions:
REMARK  status: ('A' for Active; 'I' for Inactive)
REMARK    1  A    between atoms: C5_6  and  C6_7 
REMARK    2  A    between atoms: C6_7  and  O1_8 
REMARK    3  A    between atoms: O1_8  and  C7_9 
REMARK    4  A    between atoms: C10_12  and  N1_13 
REMARK    5  A    between atoms: N1_13  and  C11_14 
REMARK    6  A    between atoms: C11_14  and  N2_15 
ROOT
HETATM    1  C7  UNL     1      25.476   0.899  52.927  1.00  0.00     0.127 A 
HETATM    2  C8  UNL     1      26.172   1.851  53.882  1.00  0.00     0.050 C 
HETATM    3  C9  UNL     1      27.000   0.668  54.398  1.00  0.00     0.042 C 
HETATM    4  C10 UNL     1      26.400  -0.144  53.327  1.00  0.00     0.083 A 
HETATM    5  C12 UNL     1      25.136  -0.802  53.808  1.00  0.00     0.029 A 
HETATM    6  C13 UNL     1      24.322   0.169  53.432  1.00  0.00     0.048 A 
HETATM    7 CL2  UNL     1      22.594   0.415  53.527  1.00  0.00    -0.086 Cl
ENDROOT
BRANCH   1   8
HETATM    8  O1  UNL     1      25.411   1.366  51.633  1.00  0.00    -0.367 OA
BRANCH   8   9
HETATM    9  C6  UNL     1      24.706   2.568  51.680  1.00  0.00     0.208 C 
BRANCH   9  10
HETATM   10  C5  UNL     1      25.230   3.557  50.707  1.00  0.00    -0.032 A 
HETATM   11  C4  UNL     1      24.503   4.700  50.440  1.00  0.00     0.009 A 
HETATM   12  C3  UNL     1      24.856   5.707  49.566  1.00  0.00     0.004 A 
HETATM   13  C2  UNL     1      26.065   5.514  48.911  1.00  0.00     0.042 A 
HETATM   14  C1  UNL     1      26.853   4.398  49.122  1.00  0.00     0.117 A 
HETATM   15  F1  UNL     1      28.019   4.231  48.478  1.00  0.00    -0.206 F 
HETATM   16  C14 UNL     1      26.419   3.433  50.021  1.00  0.00     0.051 A 
ENDBRANCH   9  10
ENDBRANCH   8   9
ENDBRANCH   1   8
BRANCH   4  17
HETATM   17  N1  UNL     1      27.119  -0.934  52.452  1.00  0.00    -0.394 N 
HETATM   18  H10 UNL     1      27.970  -0.517  52.078  1.00  0.00     0.155 HD
BRANCH  17  19
HETATM   19  C11 UNL     1      27.029  -2.333  52.441  1.00  0.00     0.222 C 
BRANCH  19  20
HETATM   20  N2  UNL     1      28.161  -3.093  52.852  1.00  0.00    -0.220 NA
HETATM   21 CL1  UNL     1      29.492  -2.072  53.349  1.00  0.00    -0.023 Cl
HETATM   22  H13 UNL     1      27.936  -3.650  53.738  1.00  0.00     0.142 HD
ENDBRANCH  19  20
ENDBRANCH  17  19
ENDBRANCH   4  17
TORSDOF 6
ENDMDL
MODEL 3
REMARK VINA RESULT:      -6.9      1.625      2.095
REMARK  6 active torsions:
REMARK  status: ('A' for Active; 'I' for Inactive)
REMARK    1  A    between atoms: C5_6  and  C6_7 
REMARK    2  A    between atoms: C6_7  and  O1_8 
REMARK    3  A    between atoms: O1_8  and  C7_9 
REMARK    4  A    between atoms: C10_12  and  N1_13 
REMARK    5  A    between atoms: N1_13  and  C11_14 
REMARK    6  A    between atoms: C11_14  and  N2_15 
ROOT
HETATM    1  C7  UNL     1      25.457   3.901  50.004  1.00  0.00     0.127 A 
HETATM    2  C8  UNL     1      26.764   3.628  49.282  1.00  0.00     0.050 C 
HETATM    3  C9  UNL     1      26.795   5.102  48.861  1.00  0.00     0.042 C 
HETATM    4  C10 UNL     1      25.623   5.313  49.727  1.00  0.00     0.083 A 
HETATM    5  C12 UNL     1      24.351   5.106  48.952  1.00  0.00     0.029 A 
HETATM    6  C13 UNL     1      24.230   3.818  49.224  1.00  0.00     0.048 A 
HETATM    7 CL2  UNL     1      23.066   2.587  48.797  1.00  0.00    -0.086 Cl
ENDROOT
BRANCH   1   8
HETATM    8  O1  UNL     1      25.423   3.403  51.288  1.00  0.00    -0.367 OA
BRANCH   8   9
HETATM    9  C6  UNL     1      25.559   2.019  51.181  1.00  0.00     0.208 C 
BRANCH   9  10
HETATM   10  C5  UNL     1      26.625   1.497  52.070  1.00  0.00    -0.032 A 
HETATM   11  C4  UNL     1      26.772   0.133  52.226  1.00  0.00     0.009 A 
HETATM   12  C3  UNL     1      27.710  -0.503  53.013  1.00  0.00     0.004 A 
HETATM   13  C2  UNL     1      28.569   0.346  53.697  1.00  0.00     0.042 A 
HETATM   14  C1  UNL     1      28.488   1.722  53.596  1.00  0.00     0.117 A 
HETATM   15  F1  UNL     1      29.329   2.525  54.268  1.00  0.00    -0.206 F 
HETATM   16  C14 UNL     1      27.512   2.277  52.780  1.00  0.00     0.051 A 
ENDBRANCH   9  10
ENDBRANCH   8   9
ENDBRANCH   1   8
BRANCH   4  17
HETATM   17  N1  UNL     1      25.522   6.316  50.671  1.00  0.00    -0.394 N 
HETATM   18  H10 UNL     1      26.278   6.999  50.672  1.00  0.00     0.155 HD
BRANCH  17  19
HETATM   19  C11 UNL     1      24.302   6.707  51.238  1.00  0.00     0.222 C 
BRANCH  19  20
HETATM   20  N2  UNL     1      23.857   6.052  52.421  1.00  0.00    -0.220 NA
HETATM   21 CL1  UNL     1      22.441   5.065  52.131  1.00  0.00    -0.023 Cl
HETATM   22  H13 UNL     1      24.586   5.342  52.752  1.00  0.00     0.142 HD
ENDBRANCH  19  20
ENDBRANCH  17  19
ENDBRANCH   4  17
TORSDOF 6
ENDMDL
MODEL 4
REMARK VINA RESULT:      -6.8      4.695      6.686
REMARK  6 active torsions:
REMARK  status: ('A' for Active; 'I' for Inactive)
REMARK    1  A    between atoms: C5_6  and  C6_7 
REMARK    2  A    between atoms: C6_7  and  O1_8 
REMARK    3  A    between atoms: O1_8  and  C7_9 
REMARK    4  A    between atoms: C10_12  and  N1_13 
REMARK    5  A    between atoms: N1_13  and  C11_14 
REMARK    6  A    between atoms: C11_14  and  N2_15 
ROOT
HETATM    1  C7  UNL     1      25.286   0.740  52.962  1.00  0.00     0.127 A 
HETATM    2  C8  UNL     1      25.898   1.884  53.748  1.00  0.00     0.050 C 
HETATM    3  C9  UNL     1      26.928   0.897  54.311  1.00  0.00     0.042 C 
HETATM    4  C10 UNL     1      26.382  -0.109  53.386  1.00  0.00     0.083 A 
HETATM    5  C12 UNL     1      25.268  -0.879  54.041  1.00  0.00     0.029 A 
HETATM    6  C13 UNL     1      24.293  -0.083  53.638  1.00  0.00     0.048 A 
HETATM    7 CL2  UNL     1      22.559  -0.074  53.857  1.00  0.00    -0.086 Cl
ENDROOT
BRANCH   1   8
HETATM    8  O1  UNL     1      25.060   1.040  51.637  1.00  0.00    -0.367 OA
BRANCH   8   9
HETATM    9  C6  UNL     1      24.196   2.135  51.620  1.00  0.00     0.208 C 
BRANCH   9  10
HETATM   10  C5  UNL     1      23.258   2.083  50.473  1.00  0.00    -0.032 A 
HETATM   11  C4  UNL     1      22.218   1.175  50.486  1.00  0.00     0.009 A 
HETATM   12  C3  UNL     1      21.268   1.007  49.500  1.00  0.00     0.004 A 
HETATM   13  C2  UNL     1      21.407   1.851  48.405  1.00  0.00     0.042 A 
HETATM   14  C1  UNL     1      22.421   2.786  48.315  1.00  0.00     0.117 A 
HETATM   15  F1  UNL     1      22.538   3.592  47.248  1.00  0.00    -0.206 F 
HETATM   16  C14 UNL     1      23.334   2.886  49.356  1.00  0.00     0.051 A 
ENDBRANCH   9  10
ENDBRANCH   8   9
ENDBRANCH   1   8
BRANCH   4  17
HETATM   17  N1  UNL     1      27.147  -0.886  52.539  1.00  0.00    -0.394 N 
HETATM   18  H10 UNL     1      28.022  -0.467  52.226  1.00  0.00     0.155 HD
BRANCH  17  19
HETATM   19  C11 UNL     1      27.050  -2.283  52.491  1.00  0.00     0.222 C 
BRANCH  19  20
HETATM   20  N2  UNL     1      28.178  -3.060  52.876  1.00  0.00    -0.220 NA
HETATM   21 CL1  UNL     1      29.520  -2.060  53.386  1.00  0.00    -0.023 Cl
HETATM   22  H13 UNL     1      27.956  -3.635  53.751  1.00  0.00     0.142 HD
ENDBRANCH  19  20
ENDBRANCH  17  19
ENDBRANCH   4  17
TORSDOF 6
ENDMDL
MODEL 5
REMARK VINA RESULT:      -6.7      2.296      2.774
REMARK  6 active torsions:
REMARK  status: ('A' for Active; 'I' for Inactive)
REMARK    1  A    between atoms: C5_6  and  C6_7 
REMARK    2  A    between atoms: C6_7  and  O1_8 
REMARK    3  A    between atoms: O1_8  and  C7_9 
REMARK    4  A    between atoms: C10_12  and  N1_13 
REMARK    5  A    between atoms: N1_13  and  C11_14 
REMARK    6  A    between atoms: C11_14  and  N2_15 
ROOT
HETATM    1  C7  UNL     1      25.353   3.660  50.122  1.00  0.00     0.127 A 
HETATM    2  C8  UNL     1      26.655   3.299  49.433  1.00  0.00     0.050 C 
HETATM    3  C9  UNL     1      26.767   4.754  48.965  1.00  0.00     0.042 C 
HETATM    4  C10 UNL     1      25.593   5.052  49.802  1.00  0.00     0.083 A 
HETATM    5  C12 UNL     1      24.325   4.883  49.012  1.00  0.00     0.029 A 
HETATM    6  C13 UNL     1      24.136   3.612  49.323  1.00  0.00     0.048 A 
HETATM    7 CL2  UNL     1      22.919   2.426  48.916  1.00  0.00    -0.086 Cl
ENDROOT
BRANCH   1   8
HETATM    8  O1  UNL     1      25.273   3.207  51.421  1.00  0.00    -0.367 OA
BRANCH   8   9
HETATM    9  C6  UNL     1      25.443   1.824  51.370  1.00  0.00     0.208 C 
BRANCH   9  10
HETATM   10  C5  UNL     1      26.589   1.377  52.198  1.00  0.00    -0.032 A 
HETATM   11  C4  UNL     1      26.840   0.027  52.339  1.00  0.00     0.009 A 
HETATM   12  C3  UNL     1      27.862  -0.543  53.071  1.00  0.00     0.004 A 
HETATM   13  C2  UNL     1      28.695   0.364  53.713  1.00  0.00     0.042 A 
HETATM   14  C1  UNL     1      28.512   1.731  53.623  1.00  0.00     0.117 A 
HETATM   15  F1  UNL     1      29.329   2.590  54.252  1.00  0.00    -0.206 F 
HETATM   16  C14 UNL     1      27.457   2.217  52.864  1.00  0.00     0.051 A 
ENDBRANCH   9  10
ENDBRANCH   8   9
ENDBRANCH   1   8
BRANCH   4  17
HETATM   17  N1  UNL     1      25.528   6.090  50.710  1.00  0.00    -0.394 N 
HETATM   18  H10 UNL     1      25.855   5.875  51.651  1.00  0.00     0.155 HD
BRANCH  17  19
HETATM   19  C11 UNL     1      25.515   7.438  50.326  1.00  0.00     0.222 C 
BRANCH  19  20
HETATM   20  N2  UNL     1      26.683   8.222  50.547  1.00  0.00    -0.220 NA
HETATM   21 CL1  UNL     1      27.701   8.298  49.126  1.00  0.00    -0.023 Cl
HETATM   22  H13 UNL     1      26.420   9.246  50.714  1.00  0.00     0.142 HD
ENDBRANCH  19  20
ENDBRANCH  17  19
ENDBRANCH   4  17
TORSDOF 6
ENDMDL
MODEL 6
REMARK VINA RESULT:      -6.7      3.245      5.053
REMARK  6 active torsions:
REMARK  status: ('A' for Active; 'I' for Inactive)
REMARK    1  A    between atoms: C5_6  and  C6_7 
REMARK    2  A    between atoms: C6_7  and  O1_8 
REMARK    3  A    between atoms: O1_8  and  C7_9 
REMARK    4  A    between atoms: C10_12  and  N1_13 
REMARK    5  A    between atoms: N1_13  and  C11_14 
REMARK    6  A    between atoms: C11_14  and  N2_15 
ROOT
HETATM    1  C7  UNL     1      26.828   0.576  53.666  1.00  0.00     0.127 A 
HETATM    2  C8  UNL     1      28.151   0.957  54.302  1.00  0.00     0.050 C 
HETATM    3  C9  UNL     1      28.270   2.096  53.283  1.00  0.00     0.042 C 
HETATM    4  C10 UNL     1      26.905   1.765  52.842  1.00  0.00     0.083 A 
HETATM    5  C12 UNL     1      26.940   0.751  51.732  1.00  0.00     0.029 A 
HETATM    6  C13 UNL     1      26.870  -0.313  52.513  1.00  0.00     0.048 A 
HETATM    7 CL2  UNL     1      26.842  -2.036  52.225  1.00  0.00    -0.086 Cl
ENDROOT
BRANCH   1   8
HETATM    8  O1  UNL     1      25.814   0.378  54.578  1.00  0.00    -0.367 OA
BRANCH   8   9
HETATM    9  C6  UNL     1      25.083  -0.720  54.127  1.00  0.00     0.208 C 
BRANCH   9  10
HETATM   10  C5  UNL     1      23.637  -0.415  54.013  1.00  0.00    -0.032 A 
HETATM   11  C4  UNL     1      22.727  -1.143  54.752  1.00  0.00     0.009 A 
HETATM   12  C3  UNL     1      21.357  -0.980  54.755  1.00  0.00     0.004 A 
HETATM   13  C2  UNL     1      20.889   0.025  53.918  1.00  0.00     0.042 A 
HETATM   14  C1  UNL     1      21.733   0.800  53.145  1.00  0.00     0.117 A 
HETATM   15  F1  UNL     1      21.259   1.766  52.343  1.00  0.00    -0.206 F 
HETATM   16  C14 UNL     1      23.100   0.565  53.205  1.00  0.00     0.051 A 
ENDBRANCH   9  10
ENDBRANCH   8   9
ENDBRANCH   1   8
BRANCH   4  17
HETATM   17  N1  UNL     1      25.888   2.688  52.696  1.00  0.00    -0.394 N 
HETATM   18  H10 UNL     1      25.797   3.367  53.450  1.00  0.00     0.155 HD
BRANCH  17  19
HETATM   19  C11 UNL     1      25.347   3.033  51.451  1.00  0.00     0.222 C 
BRANCH  19  20
HETATM   20  N2  UNL     1      25.902   4.139  50.747  1.00  0.00    -0.220 NA
HETATM   21 CL1  UNL     1      26.800   3.633  49.333  1.00  0.00    -0.023 Cl
HETATM   22  H13 UNL     1      25.126   4.751  50.338  1.00  0.00     0.142 HD
ENDBRANCH  19  20
ENDBRANCH  17  19
ENDBRANCH   4  17
TORSDOF 6
ENDMDL
MODEL 7
REMARK VINA RESULT:      -6.7      1.479      1.602
REMARK  6 active torsions:
REMARK  status: ('A' for Active; 'I' for Inactive)
REMARK    1  A    between atoms: C5_6  and  C6_7 
REMARK    2  A    between atoms: C6_7  and  O1_8 
REMARK    3  A    between atoms: O1_8  and  C7_9 
REMARK    4  A    between atoms: C10_12  and  N1_13 
REMARK    5  A    between atoms: N1_13  and  C11_14 
REMARK    6  A    between atoms: C11_14  and  N2_15 
ROOT
HETATM    1  C7  UNL     1      25.546   4.042  49.936  1.00  0.00     0.127 A 
HETATM    2  C8  UNL     1      26.850   3.781  49.206  1.00  0.00     0.050 C 
HETATM    3  C9  UNL     1      26.885   5.263  48.817  1.00  0.00     0.042 C 
HETATM    4  C10 UNL     1      25.715   5.459  49.689  1.00  0.00     0.083 A 
HETATM    5  C12 UNL     1      24.441   5.273  48.912  1.00  0.00     0.029 A 
HETATM    6  C13 UNL     1      24.317   3.980  49.156  1.00  0.00     0.048 A 
HETATM    7 CL2  UNL     1      23.149   2.761  48.705  1.00  0.00    -0.086 Cl
ENDROOT
BRANCH   1   8
HETATM    8  O1  UNL     1      25.512   3.517  51.209  1.00  0.00    -0.367 OA
BRANCH   8   9
HETATM    9  C6  UNL     1      26.509   2.544  51.264  1.00  0.00     0.208 C 
BRANCH   9  10
HETATM   10  C5  UNL     1      26.063   1.333  51.994  1.00  0.00    -0.032 A 
HETATM   11  C4  UNL     1      24.872   1.360  52.691  1.00  0.00     0.009 A 
HETATM   12  C3  UNL     1      24.325   0.321  53.416  1.00  0.00     0.004 A 
HETATM   13  C2  UNL     1      25.076  -0.847  53.418  1.00  0.00     0.042 A 
HETATM   14  C1  UNL     1      26.279  -0.956  52.746  1.00  0.00     0.117 A 
HETATM   15  F1  UNL     1      26.990  -2.095  52.763  1.00  0.00    -0.206 F 
HETATM   16  C14 UNL     1      26.755   0.141  52.042  1.00  0.00     0.051 A 
ENDBRANCH   9  10
ENDBRANCH   8   9
ENDBRANCH   1   8
BRANCH   4  17
HETATM   17  N1  UNL     1      25.619   6.442  50.654  1.00  0.00    -0.394 N 
HETATM   18  H10 UNL     1      26.431   6.547  51.260  1.00  0.00     0.155 HD
BRANCH  17  19
HETATM   19  C11 UNL     1      24.757   7.541  50.537  1.00  0.00     0.222 C 
BRANCH  19  20
HETATM   20  N2  UNL     1      25.322   8.840  50.389  1.00  0.00    -0.220 NA
HETATM   21 CL1  UNL     1      27.066   8.786  50.271  1.00  0.00    -0.023 Cl
HETATM   22  H13 UNL     1      25.026   9.272  49.456  1.00  0.00     0.142 HD
ENDBRANCH  19  20
ENDBRANCH  17  19
ENDBRANCH   4  17
TORSDOF 6
ENDMDL
MODEL 8
REMARK VINA RESULT:      -6.5      2.002      2.458
REMARK  6 active torsions:
REMARK  status: ('A' for Active; 'I' for Inactive)
REMARK    1  A    between atoms: C5_6  and  C6_7 
REMARK    2  A    between atoms: C6_7  and  O1_8 
REMARK    3  A    between atoms: O1_8  and  C7_9 
REMARK    4  A    between atoms: C10_12  and  N1_13 
REMARK    5  A    between atoms: N1_13  and  C11_14 
REMARK    6  A    between atoms: C11_14  and  N2_15 
ROOT
HETATM    1  C7  UNL     1      25.212   3.803  50.251  1.00  0.00     0.127 A 
HETATM    2  C8  UNL     1      26.504   3.177  49.759  1.00  0.00     0.050 C 
HETATM    3  C9  UNL     1      26.874   4.525  49.130  1.00  0.00     0.042 C 
HETATM    4  C10 UNL     1      25.686   5.093  49.790  1.00  0.00     0.083 A 
HETATM    5  C12 UNL     1      24.484   4.990  48.892  1.00  0.00     0.029 A 
HETATM    6  C13 UNL     1      24.080   3.812  49.335  1.00  0.00     0.048 A 
HETATM    7 CL2  UNL     1      22.741   2.758  48.947  1.00  0.00    -0.086 Cl
ENDROOT
BRANCH   1   8
HETATM    8  O1  UNL     1      24.948   3.550  51.579  1.00  0.00    -0.367 OA
BRANCH   8   9
HETATM    9  C6  UNL     1      25.305   2.221  51.808  1.00  0.00     0.208 C 
BRANCH   9  10
HETATM   10  C5  UNL     1      24.203   1.451  52.432  1.00  0.00    -0.032 A 
HETATM   11  C4  UNL     1      24.456   0.193  52.943  1.00  0.00     0.009 A 
HETATM   12  C3  UNL     1      23.541  -0.642  53.550  1.00  0.00     0.004 A 
HETATM   13  C2  UNL     1      22.253  -0.131  53.636  1.00  0.00     0.042 A 
HETATM   14  C1  UNL     1      21.916   1.118  53.149  1.00  0.00     0.117 A 
HETATM   15  F1  UNL     1      20.664   1.592  53.242  1.00  0.00    -0.206 F 
HETATM   16  C14 UNL     1      22.902   1.892  52.553  1.00  0.00     0.051 A 
ENDBRANCH   9  10
ENDBRANCH   8   9
ENDBRANCH   1   8
BRANCH   4  17
HETATM   17  N1  UNL     1      25.693   6.245  50.550  1.00  0.00    -0.394 N 
HETATM   18  H10 UNL     1      26.584   6.480  50.987  1.00  0.00     0.155 HD
BRANCH  17  19
HETATM   19  C11 UNL     1      24.774   7.286  50.363  1.00  0.00     0.222 C 
BRANCH  19  20
HETATM   20  N2  UNL     1      23.817   7.544  51.386  1.00  0.00    -0.220 NA
HETATM   21 CL1  UNL     1      22.176   7.354  50.811  1.00  0.00    -0.023 Cl
HETATM   22  H13 UNL     1      23.891   6.811  52.162  1.00  0.00     0.142 HD
ENDBRANCH  19  20
ENDBRANCH  17  19
ENDBRANCH   4  17
TORSDOF 6
ENDMDL
MODEL 9
REMARK VINA RESULT:      -6.2      2.348      3.348
REMARK  6 active torsions:
REMARK  status: ('A' for Active; 'I' for Inactive)
REMARK    1  A    between atoms: C5_6  and  C6_7 
REMARK    2  A    between atoms: C6_7  and  O1_8 
REMARK    3  A    between atoms: O1_8  and  C7_9 
REMARK    4  A    between atoms: C10_12  and  N1_13 
REMARK    5  A    between atoms: N1_13  and  C11_14 
REMARK    6  A    between atoms: C11_14  and  N2_15 
ROOT
HETATM    1  C7  UNL     1      23.765   3.453  51.196  1.00  0.00     0.127 A 
HETATM    2  C8  UNL     1      23.750   2.493  50.021  1.00  0.00     0.050 C 
HETATM    3  C9  UNL     1      24.181   3.654  49.117  1.00  0.00     0.042 C 
HETATM    4  C10 UNL     1      24.335   4.468  50.334  1.00  0.00     0.083 A 
HETATM    5  C12 UNL     1      23.052   5.181  50.658  1.00  0.00     0.029 A 
HETATM    6  C13 UNL     1      22.560   4.234  51.439  1.00  0.00     0.048 A 
HETATM    7 CL2  UNL     1      21.080   4.054  52.351  1.00  0.00    -0.086 Cl
ENDROOT
BRANCH   1   8
HETATM    8  O1  UNL     1      24.432   2.964  52.298  1.00  0.00    -0.367 OA
BRANCH   8   9
HETATM    9  C6  UNL     1      24.792   1.652  51.995  1.00  0.00     0.208 C 
BRANCH   9  10
HETATM   10  C5  UNL     1      26.145   1.316  52.501  1.00  0.00    -0.032 A 
HETATM   11  C4  UNL     1      26.548  -0.004  52.541  1.00  0.00     0.009 A 
HETATM   12  C3  UNL     1      27.767  -0.473  52.983  1.00  0.00     0.004 A 
HETATM   13  C2  UNL     1      28.646   0.510  53.421  1.00  0.00     0.042 A 
HETATM   14  C1  UNL     1      28.320   1.853  53.414  1.00  0.00     0.117 A 
HETATM   15  F1  UNL     1      29.184   2.786  53.842  1.00  0.00    -0.206 F 
HETATM   16  C14 UNL     1      27.068   2.235  52.952  1.00  0.00     0.051 A 
ENDBRANCH   9  10
ENDBRANCH   8   9
ENDBRANCH   1   8
BRANCH   4  17
HETATM   17  N1  UNL     1      25.458   5.215  50.635  1.00  0.00    -0.394 N 
HETATM   18  H10 UNL     1      26.206   4.714  51.112  1.00  0.00     0.155 HD
BRANCH  17  19
HETATM   19  C11 UNL     1      25.804   6.381  49.940  1.00  0.00     0.222 C 
BRANCH  19  20
HETATM   20  N2  UNL     1      27.081   6.449  49.314  1.00  0.00    -0.220 NA
HETATM   21 CL1  UNL     1      27.576   4.901  48.664  1.00  0.00    -0.023 Cl
HETATM   22  H13 UNL     1      27.040   7.075  48.448  1.00  0.00     0.142 HD
ENDBRANCH  19  20
ENDBRANCH  17  19
ENDBRANCH   4  17
TORSDOF 6
ENDMDL
