MODEL 1
REMARK VINA RESULT:      -8.2      0.000      0.000
REMARK  7 active torsions:
REMARK  status: ('A' for Active; 'I' for Inactive)
REMARK    1  A    between atoms: C1_2  and  C2_3 
REMARK    2  A    between atoms: C2_3  and  C3_4 
REMARK    3  A    between atoms: C3_4  and  C4_5 
REMARK    4  A    between atoms: C9_10  and  N1_11 
REMARK    5  A    between atoms: N1_11  and  C10_12 
REMARK    6  A    between atoms: C10_12  and  C11_13 
REMARK    7  A    between atoms: C11_13  and  C12_14 
ROOT
HETATM    1  C10 UNL     1      25.037   2.906  51.965  1.00  0.00     0.149 C 
ENDROOT
BRANCH   1   2
HETATM    2  N1  UNL     1      23.910   2.032  51.676  1.00  0.00    -0.389 N 
HETATM    3  H12 UNL     1      23.384   2.831  51.199  1.00  0.00     0.159 HD
BRANCH   2   4
HETATM    4  C9  UNL     1      22.834   1.185  51.402  1.00  0.00     0.016 C 
HETATM    5  C8  UNL     1      22.142   1.394  50.100  1.00  0.00     0.058 C 
HETATM    6  C7  UNL     1      20.708   1.434  50.298  1.00  0.00     0.011 C 
HETATM    7  C6  UNL     1      20.084   0.577  51.349  1.00  0.00     0.040 C 
HETATM    8  C5  UNL     1      20.934  -0.145  52.291  1.00  0.00    -0.038 A 
HETATM    9  C4  UNL     1      21.775  -0.736  53.103  1.00  0.00    -0.038 A 
HETATM   10  C20 UNL     1      22.390   0.288  52.264  1.00  0.00    -0.000 A 
BRANCH   9  11
HETATM   11  C3  UNL     1      22.248  -1.658  54.140  1.00  0.00     0.047 C 
BRANCH  11  12
HETATM   12  C2  UNL     1      22.882  -0.856  55.274  1.00  0.00     0.074 C 
BRANCH  12  13
HETATM   13  C1  UNL     1      24.305  -1.263  55.368  1.00  0.00     0.231 C 
HETATM   14  O1  UNL     1      25.429  -0.951  55.668  1.00  0.00    -0.307 OA
ENDBRANCH  12  13
ENDBRANCH  11  12
ENDBRANCH   9  11
ENDBRANCH   2   4
ENDBRANCH   1   2
BRANCH   1  15
HETATM   15  C11 UNL     1      26.090   2.240  52.747  1.00  0.00     0.031 C 
BRANCH  15  16
HETATM   16  C12 UNL     1      27.154   1.670  53.241  1.00  0.00     0.091 A 
HETATM   17  O2  UNL     1      28.124   2.379  54.004  1.00  0.00    -0.261 OA
HETATM   18  C13 UNL     1      29.217   1.713  54.497  1.00  0.00     0.370 A 
HETATM   19  O3  UNL     1      29.952   2.520  55.139  1.00  0.00    -0.238 OA
HETATM   20  N2  UNL     1      29.320   0.357  54.217  1.00  0.00    -0.301 N 
HETATM   21  C14 UNL     1      28.413  -0.399  53.478  1.00  0.00     0.050 A 
HETATM   22  H16 UNL     1      30.169  -0.052  54.627  1.00  0.00     0.171 HD
HETATM   23  C15 UNL     1      28.626  -1.728  53.352  1.00  0.00     0.030 A 
HETATM   24  C19 UNL     1      27.316   0.245  52.977  1.00  0.00     0.025 A 
HETATM   25  C16 UNL     1      27.712  -2.490  52.676  1.00  0.00     0.002 A 
HETATM   26  C17 UNL     1      26.571  -1.961  52.117  1.00  0.00     0.001 A 
HETATM   27  C18 UNL     1      26.403  -0.553  52.297  1.00  0.00     0.016 A 
ENDBRANCH  15  16
ENDBRANCH   1  15
TORSDOF 7
ENDMDL
MODEL 2
REMARK VINA RESULT:      -8.1      3.011      6.588
REMARK  7 active torsions:
REMARK  status: ('A' for Active; 'I' for Inactive)
REMARK    1  A    between atoms: C1_2  and  C2_3 
REMARK    2  A    between atoms: C2_3  and  C3_4 
REMARK    3  A    between atoms: C3_4  and  C4_5 
REMARK    4  A    between atoms: C9_10  and  N1_11 
REMARK    5  A    between atoms: N1_11  and  C10_12 
REMARK    6  A    between atoms: C10_12  and  C11_13 
REMARK    7  A    between atoms: C11_13  and  C12_14 
ROOT
HETATM    1  C10 UNL     1      21.720   1.505  49.384  1.00  0.00     0.149 C 
ENDROOT
BRANCH   1   2
HETATM    2  N1  UNL     1      22.867   2.333  49.725  1.00  0.00    -0.389 N 
HETATM    3  H12 UNL     1      22.527   2.428  50.734  1.00  0.00     0.159 HD
BRANCH   2   4
HETATM    4  C9  UNL     1      23.971   3.128  50.042  1.00  0.00     0.016 C 
HETATM    5  C8  UNL     1      23.871   4.571  49.687  1.00  0.00     0.058 C 
HETATM    6  C7  UNL     1      25.075   5.001  49.007  1.00  0.00     0.011 C 
HETATM    7  C6  UNL     1      26.392   4.414  49.395  1.00  0.00     0.040 C 
HETATM    8  C5  UNL     1      26.435   3.281  50.314  1.00  0.00    -0.038 A 
HETATM    9  C4  UNL     1      26.373   2.254  51.126  1.00  0.00    -0.038 A 
HETATM   10  C20 UNL     1      25.081   2.638  50.563  1.00  0.00    -0.000 A 
BRANCH   9  11
HETATM   11  C3  UNL     1      26.842   1.218  52.051  1.00  0.00     0.047 C 
BRANCH  11  12
HETATM   12  C2  UNL     1      26.958   1.812  53.453  1.00  0.00     0.074 C 
BRANCH  12  13
HETATM   13  C1  UNL     1      28.389   2.112  53.694  1.00  0.00     0.231 C 
HETATM   14  O1  UNL     1      29.229   2.478  54.476  1.00  0.00    -0.307 OA
ENDBRANCH  12  13
ENDBRANCH  11  12
ENDBRANCH   9  11
ENDBRANCH   2   4
ENDBRANCH   1   2
BRANCH   1  15
HETATM   15  C11 UNL     1      21.239   0.702  50.517  1.00  0.00     0.031 C 
BRANCH  15  16
HETATM   16  C12 UNL     1      20.701   0.190  51.590  1.00  0.00     0.091 A 
HETATM   17  O2  UNL     1      19.304  -0.049  51.713  1.00  0.00    -0.261 OA
HETATM   18  C13 UNL     1      18.808  -0.595  52.868  1.00  0.00     0.370 A 
HETATM   19  O3  UNL     1      17.552  -0.721  52.775  1.00  0.00    -0.238 OA
HETATM   20  N2  UNL     1      19.715  -0.890  53.877  1.00  0.00    -0.301 N 
HETATM   21  C14 UNL     1      21.092  -0.683  53.827  1.00  0.00     0.050 A 
HETATM   22  H16 UNL     1      19.251  -1.294  54.700  1.00  0.00     0.171 HD
HETATM   23  C15 UNL     1      21.847  -1.088  54.873  1.00  0.00     0.030 A 
HETATM   24  C19 UNL     1      21.607  -0.139  52.684  1.00  0.00     0.025 A 
HETATM   25  C16 UNL     1      23.207  -0.941  54.811  1.00  0.00     0.002 A 
HETATM   26  C17 UNL     1      23.848  -0.400  53.720  1.00  0.00     0.001 A 
HETATM   27  C18 UNL     1      22.991  -0.004  52.647  1.00  0.00     0.016 A 
ENDBRANCH  15  16
ENDBRANCH   1  15
TORSDOF 7
ENDMDL
MODEL 3
REMARK VINA RESULT:      -7.8      3.459      6.387
REMARK  7 active torsions:
REMARK  status: ('A' for Active; 'I' for Inactive)
REMARK    1  A    between atoms: C1_2  and  C2_3 
REMARK    2  A    between atoms: C2_3  and  C3_4 
REMARK    3  A    between atoms: C3_4  and  C4_5 
REMARK    4  A    between atoms: C9_10  and  N1_11 
REMARK    5  A    between atoms: N1_11  and  C10_12 
REMARK    6  A    between atoms: C10_12  and  C11_13 
REMARK    7  A    between atoms: C11_13  and  C12_14 
ROOT
HETATM    1  C10 UNL     1      27.079   2.429  51.914  1.00  0.00     0.149 C 
ENDROOT
BRANCH   1   2
HETATM    2  N1  UNL     1      26.647   3.214  50.768  1.00  0.00    -0.389 N 
HETATM    3  H12 UNL     1      26.425   2.327  50.215  1.00  0.00     0.159 HD
BRANCH   2   4
HETATM    4  C9  UNL     1      26.235   3.977  49.673  1.00  0.00     0.016 C 
HETATM    5  C8  UNL     1      27.308   4.671  48.909  1.00  0.00     0.058 C 
HETATM    6  C7  UNL     1      26.943   6.054  48.680  1.00  0.00     0.011 C 
HETATM    7  C6  UNL     1      25.511   6.411  48.454  1.00  0.00     0.040 C 
HETATM    8  C5  UNL     1      24.475   5.403  48.655  1.00  0.00    -0.038 A 
HETATM    9  C4  UNL     1      23.615   4.440  48.880  1.00  0.00    -0.038 A 
HETATM   10  C20 UNL     1      24.965   4.147  49.355  1.00  0.00    -0.000 A 
BRANCH   9  11
HETATM   11  C3  UNL     1      22.331   3.732  48.881  1.00  0.00     0.047 C 
BRANCH  11  12
HETATM   12  C2  UNL     1      22.310   2.731  47.728  1.00  0.00     0.074 C 
BRANCH  12  13
HETATM   13  C1  UNL     1      22.016   3.486  46.486  1.00  0.00     0.231 C 
HETATM   14  O1  UNL     1      22.128   3.547  45.289  1.00  0.00    -0.307 OA
ENDBRANCH  12  13
ENDBRANCH  11  12
ENDBRANCH   9  11
ENDBRANCH   2   4
ENDBRANCH   1   2
BRANCH   1  15
HETATM   15  C11 UNL     1      26.004   1.596  52.473  1.00  0.00     0.031 C 
BRANCH  15  16
HETATM   16  C12 UNL     1      25.221   0.773  53.115  1.00  0.00     0.091 A 
HETATM   17  O2  UNL     1      25.639   0.052  54.268  1.00  0.00    -0.261 OA
HETATM   18  C13 UNL     1      24.760  -0.793  54.896  1.00  0.00     0.370 A 
HETATM   19  O3  UNL     1      25.327  -1.334  55.890  1.00  0.00    -0.238 OA
HETATM   20  N2  UNL     1      23.484  -0.901  54.359  1.00  0.00    -0.301 N 
HETATM   21  C14 UNL     1      23.007  -0.229  53.237  1.00  0.00     0.050 A 
HETATM   22  H16 UNL     1      22.901  -1.554  54.896  1.00  0.00     0.171 HD
HETATM   23  C15 UNL     1      21.713  -0.395  52.882  1.00  0.00     0.030 A 
HETATM   24  C19 UNL     1      23.868   0.618  52.595  1.00  0.00     0.025 A 
HETATM   25  C16 UNL     1      21.218   0.303  51.814  1.00  0.00     0.002 A 
HETATM   26  C17 UNL     1      21.984   1.181  51.080  1.00  0.00     0.001 A 
HETATM   27  C18 UNL     1      23.338   1.317  51.516  1.00  0.00     0.016 A 
ENDBRANCH  15  16
ENDBRANCH   1  15
TORSDOF 7
ENDMDL
MODEL 4
REMARK VINA RESULT:      -7.7      2.866      7.367
REMARK  7 active torsions:
REMARK  status: ('A' for Active; 'I' for Inactive)
REMARK    1  A    between atoms: C1_2  and  C2_3 
REMARK    2  A    between atoms: C2_3  and  C3_4 
REMARK    3  A    between atoms: C3_4  and  C4_5 
REMARK    4  A    between atoms: C9_10  and  N1_11 
REMARK    5  A    between atoms: N1_11  and  C10_12 
REMARK    6  A    between atoms: C10_12  and  C11_13 
REMARK    7  A    between atoms: C11_13  and  C12_14 
ROOT
HETATM    1  C10 UNL     1      23.065  -0.778  54.200  1.00  0.00     0.149 C 
ENDROOT
BRANCH   1   2
HETATM    2  N1  UNL     1      24.083   0.163  53.758  1.00  0.00    -0.389 N 
HETATM    3  H12 UNL     1      24.842  -0.585  53.837  1.00  0.00     0.159 HD
BRANCH   2   4
HETATM    4  C9  UNL     1      25.053   1.075  53.333  1.00  0.00     0.016 C 
HETATM    5  C8  UNL     1      24.555   2.285  52.623  1.00  0.00     0.058 C 
HETATM    6  C7  UNL     1      25.321   2.503  51.413  1.00  0.00     0.011 C 
HETATM    7  C6  UNL     1      26.775   2.164  51.390  1.00  0.00     0.040 C 
HETATM    8  C5  UNL     1      27.367   1.442  52.511  1.00  0.00    -0.038 A 
HETATM    9  C4  UNL     1      27.804   0.776  53.551  1.00  0.00    -0.038 A 
HETATM   10  C20 UNL     1      26.348   0.863  53.477  1.00  0.00    -0.000 A 
BRANCH   9  11
HETATM   11  C3  UNL     1      28.767   0.168  54.474  1.00  0.00     0.047 C 
BRANCH  11  12
HETATM   12  C2  UNL     1      29.728  -0.718  53.684  1.00  0.00     0.074 C 
BRANCH  12  13
HETATM   13  C1  UNL     1      29.001  -1.962  53.332  1.00  0.00     0.231 C 
HETATM   14  O1  UNL     1      28.894  -3.151  53.492  1.00  0.00    -0.307 OA
ENDBRANCH  12  13
ENDBRANCH  11  12
ENDBRANCH   9  11
ENDBRANCH   2   4
ENDBRANCH   1   2
BRANCH   1  15
HETATM   15  C11 UNL     1      21.828  -0.694  53.410  1.00  0.00     0.031 C 
BRANCH  15  16
HETATM   16  C12 UNL     1      20.644  -0.501  52.897  1.00  0.00     0.091 A 
HETATM   17  O2  UNL     1      19.448  -0.933  53.536  1.00  0.00    -0.261 OA
HETATM   18  C13 UNL     1      18.236  -0.692  52.942  1.00  0.00     0.370 A 
HETATM   19  O3  UNL     1      17.307  -1.156  53.666  1.00  0.00    -0.238 OA
HETATM   20  N2  UNL     1      18.243  -0.026  51.723  1.00  0.00    -0.301 N 
HETATM   21  C14 UNL     1      19.371   0.424  51.041  1.00  0.00     0.050 A 
HETATM   22  H16 UNL     1      17.292   0.108  51.358  1.00  0.00     0.171 HD
HETATM   23  C15 UNL     1      19.202   1.116  49.892  1.00  0.00     0.030 A 
HETATM   24  C19 UNL     1      20.590   0.193  51.616  1.00  0.00     0.025 A 
HETATM   25  C16 UNL     1      20.300   1.611  49.243  1.00  0.00     0.002 A 
HETATM   26  C17 UNL     1      21.582   1.440  49.713  1.00  0.00     0.001 A 
HETATM   27  C18 UNL     1      21.688   0.709  50.937  1.00  0.00     0.016 A 
ENDBRANCH  15  16
ENDBRANCH   1  15
TORSDOF 7
ENDMDL
MODEL 5
REMARK VINA RESULT:      -7.7      2.758      6.610
REMARK  7 active torsions:
REMARK  status: ('A' for Active; 'I' for Inactive)
REMARK    1  A    between atoms: C1_2  and  C2_3 
REMARK    2  A    between atoms: C2_3  and  C3_4 
REMARK    3  A    between atoms: C3_4  and  C4_5 
REMARK    4  A    between atoms: C9_10  and  N1_11 
REMARK    5  A    between atoms: N1_11  and  C10_12 
REMARK    6  A    between atoms: C10_12  and  C11_13 
REMARK    7  A    between atoms: C11_13  and  C12_14 
ROOT
HETATM    1  C10 UNL     1      21.624   3.156  51.911  1.00  0.00     0.149 C 
ENDROOT
BRANCH   1   2
HETATM    2  N1  UNL     1      23.016   3.396  51.565  1.00  0.00    -0.389 N 
HETATM    3  H12 UNL     1      23.262   2.371  51.748  1.00  0.00     0.159 HD
BRANCH   2   4
HETATM    4  C9  UNL     1      24.352   3.636  51.232  1.00  0.00     0.016 C 
HETATM    5  C8  UNL     1      24.651   4.958  50.615  1.00  0.00     0.058 C 
HETATM    6  C7  UNL     1      25.479   4.783  49.439  1.00  0.00     0.011 C 
HETATM    7  C6  UNL     1      26.500   3.694  49.411  1.00  0.00     0.040 C 
HETATM    8  C5  UNL     1      26.526   2.700  50.479  1.00  0.00    -0.038 A 
HETATM    9  C4  UNL     1      26.458   1.843  51.469  1.00  0.00    -0.038 A 
HETATM   10  C20 UNL     1      25.302   2.731  51.379  1.00  0.00    -0.000 A 
BRANCH   9  11
HETATM   11  C3  UNL     1      26.867   0.749  52.354  1.00  0.00     0.047 C 
BRANCH  11  12
HETATM   12  C2  UNL     1      25.623   0.031  52.872  1.00  0.00     0.074 C 
BRANCH  12  13
HETATM   13  C1  UNL     1      25.891  -0.374  54.273  1.00  0.00     0.231 C 
HETATM   14  O1  UNL     1      25.586  -1.081  55.198  1.00  0.00    -0.307 OA
ENDBRANCH  12  13
ENDBRANCH  11  12
ENDBRANCH   9  11
ENDBRANCH   2   4
ENDBRANCH   1   2
BRANCH   1  15
HETATM   15  C11 UNL     1      21.392   1.805  52.441  1.00  0.00     0.031 C 
BRANCH  15  16
HETATM   16  C12 UNL     1      21.092   0.719  53.100  1.00  0.00     0.091 A 
HETATM   17  O2  UNL     1      21.960   0.140  54.067  1.00  0.00    -0.261 OA
HETATM   18  C13 UNL     1      21.577  -1.001  54.726  1.00  0.00     0.370 A 
HETATM   19  O3  UNL     1      22.487  -1.350  55.534  1.00  0.00    -0.238 OA
HETATM   20  N2  UNL     1      20.338  -1.539  54.404  1.00  0.00    -0.301 N 
HETATM   21  C14 UNL     1      19.439  -1.029  53.471  1.00  0.00     0.050 A 
HETATM   22  H16 UNL     1      20.141  -2.388  54.948  1.00  0.00     0.171 HD
HETATM   23  C15 UNL     1      18.241  -1.637  53.323  1.00  0.00     0.030 A 
HETATM   24  C19 UNL     1      19.802   0.108  52.802  1.00  0.00     0.025 A 
HETATM   25  C16 UNL     1      17.328  -1.111  52.449  1.00  0.00     0.002 A 
HETATM   26  C17 UNL     1      17.574   0.024  51.711  1.00  0.00     0.001 A 
HETATM   27  C18 UNL     1      18.855   0.622  51.924  1.00  0.00     0.016 A 
ENDBRANCH  15  16
ENDBRANCH   1  15
TORSDOF 7
ENDMDL
MODEL 6
REMARK VINA RESULT:      -7.5      3.005      7.716
REMARK  7 active torsions:
REMARK  status: ('A' for Active; 'I' for Inactive)
REMARK    1  A    between atoms: C1_2  and  C2_3 
REMARK    2  A    between atoms: C2_3  and  C3_4 
REMARK    3  A    between atoms: C3_4  and  C4_5 
REMARK    4  A    between atoms: C9_10  and  N1_11 
REMARK    5  A    between atoms: N1_11  and  C10_12 
REMARK    6  A    between atoms: C10_12  and  C11_13 
REMARK    7  A    between atoms: C11_13  and  C12_14 
ROOT
HETATM    1  C10 UNL     1      23.087  -0.947  54.384  1.00  0.00     0.149 C 
ENDROOT
BRANCH   1   2
HETATM    2  N1  UNL     1      24.294  -0.566  53.667  1.00  0.00    -0.389 N 
HETATM    3  H12 UNL     1      24.853  -0.535  54.578  1.00  0.00     0.159 HD
BRANCH   2   4
HETATM    4  C9  UNL     1      25.448  -0.201  52.970  1.00  0.00     0.016 C 
HETATM    5  C8  UNL     1      26.551  -1.201  52.947  1.00  0.00     0.058 C 
HETATM    6  C7  UNL     1      27.809  -0.563  53.276  1.00  0.00     0.011 C 
HETATM    7  C6  UNL     1      28.061   0.841  52.835  1.00  0.00     0.040 C 
HETATM    8  C5  UNL     1      26.975   1.621  52.251  1.00  0.00    -0.038 A 
HETATM    9  C4  UNL     1      25.936   2.249  51.758  1.00  0.00    -0.038 A 
HETATM   10  C20 UNL     1      25.605   0.986  52.414  1.00  0.00    -0.000 A 
BRANCH   9  11
HETATM   11  C3  UNL     1      25.178   3.298  51.070  1.00  0.00     0.047 C 
BRANCH  11  12
HETATM   12  C2  UNL     1      25.449   3.211  49.570  1.00  0.00     0.074 C 
BRANCH  12  13
HETATM   13  C1  UNL     1      26.754   3.866  49.313  1.00  0.00     0.231 C 
HETATM   14  O1  UNL     1      27.336   4.841  48.912  1.00  0.00    -0.307 OA
ENDBRANCH  12  13
ENDBRANCH  11  12
ENDBRANCH   9  11
ENDBRANCH   2   4
ENDBRANCH   1   2
BRANCH   1  15
HETATM   15  C11 UNL     1      21.858  -0.515  53.702  1.00  0.00     0.031 C 
BRANCH  15  16
HETATM   16  C12 UNL     1      20.729  -0.366  53.065  1.00  0.00     0.091 A 
HETATM   17  O2  UNL     1      19.481  -0.795  53.598  1.00  0.00    -0.261 OA
HETATM   18  C13 UNL     1      18.332  -0.602  52.874  1.00  0.00     0.370 A 
HETATM   19  O3  UNL     1      17.342  -1.054  53.520  1.00  0.00    -0.238 OA
HETATM   20  N2  UNL     1      18.453   0.014  51.635  1.00  0.00    -0.301 N 
HETATM   21  C14 UNL     1      19.637   0.458  51.052  1.00  0.00     0.050 A 
HETATM   22  H16 UNL     1      17.542   0.115  51.171  1.00  0.00     0.171 HD
HETATM   23  C15 UNL     1      19.575   1.099  49.864  1.00  0.00     0.030 A 
HETATM   24  C19 UNL     1      20.795   0.274  51.757  1.00  0.00     0.025 A 
HETATM   25  C16 UNL     1      20.726   1.589  49.308  1.00  0.00     0.002 A 
HETATM   26  C17 UNL     1      21.956   1.462  49.913  1.00  0.00     0.001 A 
HETATM   27  C18 UNL     1      21.948   0.783  51.170  1.00  0.00     0.016 A 
ENDBRANCH  15  16
ENDBRANCH   1  15
TORSDOF 7
ENDMDL
MODEL 7
REMARK VINA RESULT:      -7.4      3.450      5.789
REMARK  7 active torsions:
REMARK  status: ('A' for Active; 'I' for Inactive)
REMARK    1  A    between atoms: C1_2  and  C2_3 
REMARK    2  A    between atoms: C2_3  and  C3_4 
REMARK    3  A    between atoms: C3_4  and  C4_5 
REMARK    4  A    between atoms: C9_10  and  N1_11 
REMARK    5  A    between atoms: N1_11  and  C10_12 
REMARK    6  A    between atoms: C10_12  and  C11_13 
REMARK    7  A    between atoms: C11_13  and  C12_14 
ROOT
HETATM    1  C10 UNL     1      21.142   3.404  51.797  1.00  0.00     0.149 C 
ENDROOT
BRANCH   1   2
HETATM    2  N1  UNL     1      21.613   2.107  52.256  1.00  0.00    -0.389 N 
HETATM    3  H12 UNL     1      22.230   2.568  52.998  1.00  0.00     0.159 HD
BRANCH   2   4
HETATM    4  C9  UNL     1      22.059   0.856  52.690  1.00  0.00     0.016 C 
HETATM    5  C8  UNL     1      21.007  -0.115  53.100  1.00  0.00     0.058 C 
HETATM    6  C7  UNL     1      21.352  -0.715  54.372  1.00  0.00     0.011 C 
HETATM    7  C6  UNL     1      22.785  -0.979  54.700  1.00  0.00     0.040 C 
HETATM    8  C5  UNL     1      23.833  -0.459  53.827  1.00  0.00    -0.038 A 
HETATM    9  C4  UNL     1      24.702   0.065  52.999  1.00  0.00    -0.038 A 
HETATM   10  C20 UNL     1      23.339   0.552  52.806  1.00  0.00    -0.000 A 
BRANCH   9  11
HETATM   11  C3  UNL     1      26.000   0.318  52.365  1.00  0.00     0.047 C 
BRANCH  11  12
HETATM   12  C2  UNL     1      27.035  -0.645  52.941  1.00  0.00     0.074 C 
BRANCH  12  13
HETATM   13  C1  UNL     1      27.629  -0.001  54.137  1.00  0.00     0.231 C 
HETATM   14  O1  UNL     1      27.741   1.001  54.796  1.00  0.00    -0.307 OA
ENDBRANCH  12  13
ENDBRANCH  11  12
ENDBRANCH   9  11
ENDBRANCH   2   4
ENDBRANCH   1   2
BRANCH   1  15
HETATM   15  C11 UNL     1      22.220   4.243  51.252  1.00  0.00     0.031 C 
BRANCH  15  16
HETATM   16  C12 UNL     1      22.998   5.121  50.681  1.00  0.00     0.091 A 
HETATM   17  O2  UNL     1      22.633   6.487  50.524  1.00  0.00    -0.261 OA
HETATM   18  C13 UNL     1      23.504   7.356  49.918  1.00  0.00     0.370 A 
HETATM   19  O3  UNL     1      22.990   8.512  49.875  1.00  0.00    -0.238 OA
HETATM   20  N2  UNL     1      24.719   6.844  49.482  1.00  0.00    -0.301 N 
HETATM   21  C14 UNL     1      25.142   5.522  49.602  1.00  0.00     0.050 A 
HETATM   22  H16 UNL     1      25.301   7.568  49.044  1.00  0.00     0.171 HD
HETATM   23  C15 UNL     1      26.386   5.198  49.184  1.00  0.00     0.030 A 
HETATM   24  C19 UNL     1      24.288   4.639  50.202  1.00  0.00     0.025 A 
HETATM   25  C16 UNL     1      26.832   3.915  49.347  1.00  0.00     0.002 A 
HETATM   26  C17 UNL     1      26.068   2.930  49.930  1.00  0.00     0.001 A 
HETATM   27  C18 UNL     1      24.768   3.343  50.358  1.00  0.00     0.016 A 
ENDBRANCH  15  16
ENDBRANCH   1  15
TORSDOF 7
ENDMDL
MODEL 8
REMARK VINA RESULT:      -7.3      3.813      6.384
REMARK  7 active torsions:
REMARK  status: ('A' for Active; 'I' for Inactive)
REMARK    1  A    between atoms: C1_2  and  C2_3 
REMARK    2  A    between atoms: C2_3  and  C3_4 
REMARK    3  A    between atoms: C3_4  and  C4_5 
REMARK    4  A    between atoms: C9_10  and  N1_11 
REMARK    5  A    between atoms: N1_11  and  C10_12 
REMARK    6  A    between atoms: C10_12  and  C11_13 
REMARK    7  A    between atoms: C11_13  and  C12_14 
ROOT
HETATM    1  C10 UNL     1      26.264   3.161  50.555  1.00  0.00     0.149 C 
ENDROOT
BRANCH   1   2
HETATM    2  N1  UNL     1      25.294   4.178  50.933  1.00  0.00    -0.389 N 
HETATM    3  H12 UNL     1      26.051   4.746  51.431  1.00  0.00     0.159 HD
BRANCH   2   4
HETATM    4  C9  UNL     1      24.356   5.149  51.291  1.00  0.00     0.016 C 
HETATM    5  C8  UNL     1      23.223   4.691  52.142  1.00  0.00     0.058 C 
HETATM    6  C7  UNL     1      21.968   5.176  51.604  1.00  0.00     0.011 C 
HETATM    7  C6  UNL     1      21.917   6.514  50.944  1.00  0.00     0.040 C 
HETATM    8  C5  UNL     1      23.156   7.234  50.673  1.00  0.00    -0.038 A 
HETATM    9  C4  UNL     1      24.320   7.795  50.453  1.00  0.00    -0.038 A 
HETATM   10  C20 UNL     1      24.409   6.394  50.854  1.00  0.00    -0.000 A 
BRANCH   9  11
HETATM   11  C3  UNL     1      25.283   8.843  50.101  1.00  0.00     0.047 C 
BRANCH  11  12
HETATM   12  C2  UNL     1      26.632   8.200  49.789  1.00  0.00     0.074 C 
BRANCH  12  13
HETATM   13  C1  UNL     1      27.655   9.274  49.815  1.00  0.00     0.231 C 
HETATM   14  O1  UNL     1      28.824   9.559  49.768  1.00  0.00    -0.307 OA
ENDBRANCH  12  13
ENDBRANCH  11  12
ENDBRANCH   9  11
ENDBRANCH   2   4
ENDBRANCH   1   2
BRANCH   1  15
HETATM   15  C11 UNL     1      26.309   2.037  51.501  1.00  0.00     0.031 C 
BRANCH  15  16
HETATM   16  C12 UNL     1      26.212   1.177  52.478  1.00  0.00     0.091 A 
HETATM   17  O2  UNL     1      27.333   0.749  53.242  1.00  0.00    -0.261 OA
HETATM   18  C13 UNL     1      27.156  -0.153  54.259  1.00  0.00     0.370 A 
HETATM   19  O3  UNL     1      28.270  -0.402  54.806  1.00  0.00    -0.238 OA
HETATM   20  N2  UNL     1      25.866  -0.611  54.490  1.00  0.00    -0.301 N 
HETATM   21  C14 UNL     1      24.725  -0.238  53.784  1.00  0.00     0.050 A 
HETATM   22  H16 UNL     1      25.834  -1.281  55.268  1.00  0.00     0.171 HD
HETATM   23  C15 UNL     1      23.528  -0.726  54.179  1.00  0.00     0.030 A 
HETATM   24  C19 UNL     1      24.879   0.661  52.765  1.00  0.00     0.025 A 
HETATM   25  C16 UNL     1      22.394  -0.323  53.527  1.00  0.00     0.002 A 
HETATM   26  C17 UNL     1      22.415   0.571  52.482  1.00  0.00     0.001 A 
HETATM   27  C18 UNL     1      23.711   1.056  52.123  1.00  0.00     0.016 A 
ENDBRANCH  15  16
ENDBRANCH   1  15
TORSDOF 7
ENDMDL
MODEL 9
REMARK VINA RESULT:      -7.3      3.369      7.762
REMARK  7 active torsions:
REMARK  status: ('A' for Active; 'I' for Inactive)
REMARK    1  A    between atoms: C1_2  and  C2_3 
REMARK    2  A    between atoms: C2_3  and  C3_4 
REMARK    3  A    between atoms: C3_4  and  C4_5 
REMARK    4  A    between atoms: C9_10  and  N1_11 
REMARK    5  A    between atoms: N1_11  and  C10_12 
REMARK    6  A    between atoms: C10_12  and  C11_13 
REMARK    7  A    between atoms: C11_13  and  C12_14 
ROOT
HETATM    1  C10 UNL     1      21.970   0.167  53.456  1.00  0.00     0.149 C 
ENDROOT
BRANCH   1   2
HETATM    2  N1  UNL     1      23.263   0.754  53.139  1.00  0.00    -0.389 N 
HETATM    3  H12 UNL     1      23.700   0.322  54.014  1.00  0.00     0.159 HD
BRANCH   2   4
HETATM    4  C9  UNL     1      24.500   1.323  52.826  1.00  0.00     0.016 C 
HETATM    5  C8  UNL     1      24.513   2.795  52.601  1.00  0.00     0.058 C 
HETATM    6  C7  UNL     1      25.239   3.107  51.387  1.00  0.00     0.011 C 
HETATM    7  C6  UNL     1      26.419   2.280  51.000  1.00  0.00     0.040 C 
HETATM    8  C5  UNL     1      26.715   1.054  51.735  1.00  0.00    -0.038 A 
HETATM    9  C4  UNL     1      26.889  -0.038  52.438  1.00  0.00    -0.038 A 
HETATM   10  C20 UNL     1      25.597   0.607  52.662  1.00  0.00    -0.000 A 
BRANCH   9  11
HETATM   11  C3  UNL     1      27.559  -1.235  52.952  1.00  0.00     0.047 C 
BRANCH  11  12
HETATM   12  C2  UNL     1      28.961  -0.860  53.428  1.00  0.00     0.074 C 
BRANCH  12  13
HETATM   13  C1  UNL     1      28.811  -0.039  54.654  1.00  0.00     0.231 C 
HETATM   14  O1  UNL     1      28.820   1.062  55.142  1.00  0.00    -0.307 OA
ENDBRANCH  12  13
ENDBRANCH  11  12
ENDBRANCH   9  11
ENDBRANCH   2   4
ENDBRANCH   1   2
BRANCH   1  15
HETATM   15  C11 UNL     1      21.019   0.243  52.338  1.00  0.00     0.031 C 
BRANCH  15  16
HETATM   16  C12 UNL     1      20.094   0.507  51.456  1.00  0.00     0.091 A 
HETATM   17  O2  UNL     1      20.331   1.316  50.309  1.00  0.00    -0.261 OA
HETATM   18  C13 UNL     1      19.313   1.547  49.420  1.00  0.00     0.370 A 
HETATM   19  O3  UNL     1      19.729   2.286  48.481  1.00  0.00    -0.238 OA
HETATM   20  N2  UNL     1      18.081   0.970  49.695  1.00  0.00    -0.301 N 
HETATM   21  C14 UNL     1      17.777   0.171  50.795  1.00  0.00     0.050 A 
HETATM   22  H16 UNL     1      17.385   1.199  48.976  1.00  0.00     0.171 HD
HETATM   23  C15 UNL     1      16.541  -0.372  50.882  1.00  0.00     0.030 A 
HETATM   24  C19 UNL     1      18.778  -0.073  51.694  1.00  0.00     0.025 A 
HETATM   25  C16 UNL     1      16.249  -1.203  51.929  1.00  0.00     0.002 A 
HETATM   26  C17 UNL     1      17.166  -1.521  52.905  1.00  0.00     0.001 A 
HETATM   27  C18 UNL     1      18.454  -0.923  52.746  1.00  0.00     0.016 A 
ENDBRANCH  15  16
ENDBRANCH   1  15
TORSDOF 7
ENDMDL
