MODEL 1
REMARK VINA RESULT:      -9.0      0.000      0.000
REMARK  4 active torsions:
REMARK  status: ('A' for Active; 'I' for Inactive)
REMARK    1  A    between atoms: O1_1  and  C1_2 
REMARK    2  A    between atoms: C8_9  and  N1_10 
REMARK    3  A    between atoms: N1_10  and  C9_11 
REMARK    4  A    between atoms: C12_15  and  C13_16 
ROOT
HETATM    1  N1  UNL     1      22.915  -0.893  54.588  1.00  0.00    -0.335 N 
HETATM    2  H6  UNL     1      23.170  -0.885  55.567  1.00  0.00     0.168 HD
ENDROOT
BRANCH   1   3
HETATM    3  C8  UNL     1      21.716  -1.194  53.951  1.00  0.00     0.095 C 
HETATM    4  C7  UNL     1      20.457  -0.869  53.568  1.00  0.00    -0.051 C 
HETATM    5  C6  UNL     1      20.792   0.434  54.291  1.00  0.00     0.116 C 
HETATM    6  C18 UNL     1      19.125  -0.469  53.194  1.00  0.00     0.063 C 
HETATM    7  C5  UNL     1      20.507   1.560  53.317  1.00  0.00    -0.172 C 
HETATM    8  C4  UNL     1      20.287   2.401  52.618  1.00  0.00     0.022 C 
HETATM    9  C3  UNL     1      19.978   3.654  51.620  1.00  0.00     0.101 C 
HETATM   10  C2  UNL     1      18.830   3.381  50.957  1.00  0.00    -0.009 C 
HETATM   11  C1  UNL     1      18.866   2.231  50.269  1.00  0.00     0.072 C 
HETATM   12  C20 UNL     1      18.998   1.023  51.079  1.00  0.00     0.033 C 
HETATM   13  C19 UNL     1      19.140  -0.182  51.667  1.00  0.00    -0.020 C 
BRANCH  11  14
HETATM   14  O1  UNL     1      18.859   1.413  49.126  1.00  0.00    -0.360 OA
HETATM   15  H1  UNL     1      19.247   1.761  48.221  1.00  0.00     0.217 HD
ENDBRANCH  11  14
ENDBRANCH   1   3
BRANCH   1  16
HETATM   16  C9  UNL     1      23.985  -0.540  53.797  1.00  0.00     0.220 A 
HETATM   17  N2  UNL     1      24.174   0.385  52.991  1.00  0.00    -0.247 NA
HETATM   18  C10 UNL     1      24.850   1.121  52.124  1.00  0.00     0.154 A 
HETATM   19  C11 UNL     1      26.287   0.553  51.936  1.00  0.00     0.060 A 
HETATM   20  C12 UNL     1      25.819  -0.139  52.680  1.00  0.00     0.115 A 
HETATM   21  N4  UNL     1      25.344  -1.138  53.667  1.00  0.00    -0.237 NA
BRANCH  20  22
HETATM   22  C13 UNL     1      27.265  -0.887  52.986  1.00  0.00    -0.008 A 
HETATM   23  C14 UNL     1      28.363  -0.211  53.325  1.00  0.00     0.013 A 
HETATM   24  C15 UNL     1      29.798  -0.036  53.697  1.00  0.00     0.020 A 
HETATM   25  C16 UNL     1      29.753  -1.386  53.544  1.00  0.00     0.116 A 
HETATM   26  N3  UNL     1      29.181  -2.526  53.281  1.00  0.00    -0.272 NA
HETATM   27  C17 UNL     1      27.787  -2.249  52.964  1.00  0.00     0.126 A 
ENDBRANCH  20  22
ENDBRANCH   1  16
TORSDOF 4
ENDMDL
MODEL 2
REMARK VINA RESULT:      -8.7      2.617      4.906
REMARK  4 active torsions:
REMARK  status: ('A' for Active; 'I' for Inactive)
REMARK    1  A    between atoms: O1_1  and  C1_2 
REMARK    2  A    between atoms: C8_9  and  N1_10 
REMARK    3  A    between atoms: N1_10  and  C9_11 
REMARK    4  A    between atoms: C12_15  and  C13_16 
ROOT
HETATM    1  N1  UNL     1      26.552   3.505  50.557  1.00  0.00    -0.335 N 
HETATM    2  H6  UNL     1      27.299   3.464  49.876  1.00  0.00     0.168 HD
ENDROOT
BRANCH   1   3
HETATM    3  C8  UNL     1      25.424   4.315  50.638  1.00  0.00     0.095 C 
HETATM    4  C7  UNL     1      24.163   4.642  50.260  1.00  0.00    -0.051 C 
HETATM    5  C6  UNL     1      24.336   3.423  49.356  1.00  0.00     0.116 C 
HETATM    6  C18 UNL     1      22.827   4.944  49.815  1.00  0.00     0.063 C 
HETATM    7  C5  UNL     1      23.151   2.515  49.616  1.00  0.00    -0.172 C 
HETATM    8  C4  UNL     1      22.276   1.843  49.782  1.00  0.00     0.022 C 
HETATM    9  C3  UNL     1      21.012   0.836  50.006  1.00  0.00     0.101 C 
HETATM   10  C2  UNL     1      19.896   1.593  50.122  1.00  0.00    -0.009 C 
HETATM   11  C1  UNL     1      19.958   2.494  51.111  1.00  0.00     0.072 C 
HETATM   12  C20 UNL     1      20.968   3.536  50.945  1.00  0.00     0.033 C 
HETATM   13  C19 UNL     1      21.857   4.549  50.963  1.00  0.00    -0.020 C 
BRANCH  11  14
HETATM   14  O1  UNL     1      19.603   3.092  52.333  1.00  0.00    -0.360 OA
HETATM   15  H1  UNL     1      20.192   2.953  53.183  1.00  0.00     0.217 HD
ENDBRANCH  11  14
ENDBRANCH   1   3
BRANCH   1  16
HETATM   16  C9  UNL     1      26.741   2.577  51.555  1.00  0.00     0.220 A 
HETATM   17  N2  UNL     1      27.699   2.317  52.301  1.00  0.00    -0.247 NA
HETATM   18  C10 UNL     1      28.349   1.694  53.270  1.00  0.00     0.154 A 
HETATM   19  C11 UNL     1      27.439   0.614  53.925  1.00  0.00     0.060 A 
HETATM   20  C12 UNL     1      26.791   1.068  53.134  1.00  0.00     0.115 A 
HETATM   21  N4  UNL     1      25.815   1.562  52.134  1.00  0.00    -0.237 NA
BRANCH  20  22
HETATM   22  C13 UNL     1      25.450   0.269  53.687  1.00  0.00    -0.008 A 
HETATM   23  C14 UNL     1      24.225   0.527  53.231  1.00  0.00     0.013 A 
HETATM   24  C15 UNL     1      22.742   0.378  53.140  1.00  0.00     0.020 A 
HETATM   25  C16 UNL     1      23.015  -0.535  54.110  1.00  0.00     0.116 A 
HETATM   26  N3  UNL     1      23.788  -1.204  54.917  1.00  0.00    -0.272 NA
HETATM   27  C17 UNL     1      25.153  -0.753  54.685  1.00  0.00     0.126 A 
ENDBRANCH  20  22
ENDBRANCH   1  16
TORSDOF 4
ENDMDL
MODEL 3
REMARK VINA RESULT:      -8.6      3.327      4.814
REMARK  4 active torsions:
REMARK  status: ('A' for Active; 'I' for Inactive)
REMARK    1  A    between atoms: O1_1  and  C1_2 
REMARK    2  A    between atoms: C8_9  and  N1_10 
REMARK    3  A    between atoms: N1_10  and  C9_11 
REMARK    4  A    between atoms: C12_15  and  C13_16 
ROOT
HETATM    1  N1  UNL     1      21.097   0.585  51.473  1.00  0.00    -0.335 N 
HETATM    2  H6  UNL     1      20.099   0.611  51.640  1.00  0.00     0.168 HD
ENDROOT
BRANCH   1   3
HETATM    3  C8  UNL     1      21.857   0.968  50.373  1.00  0.00     0.095 C 
HETATM    4  C7  UNL     1      22.303   1.907  49.503  1.00  0.00    -0.051 C 
HETATM    5  C6  UNL     1      21.418   2.820  50.350  1.00  0.00     0.116 C 
HETATM    6  C18 UNL     1      22.737   2.947  48.606  1.00  0.00     0.063 C 
HETATM    7  C5  UNL     1      22.285   3.984  50.788  1.00  0.00    -0.172 C 
HETATM    8  C4  UNL     1      22.904   4.856  51.105  1.00  0.00     0.022 C 
HETATM    9  C3  UNL     1      23.783   6.143  51.588  1.00  0.00     0.101 C 
HETATM   10  C2  UNL     1      24.561   6.526  50.549  1.00  0.00    -0.009 C 
HETATM   11  C1  UNL     1      25.364   5.555  50.093  1.00  0.00     0.072 C 
HETATM   12  C20 UNL     1      24.681   4.406  49.503  1.00  0.00     0.033 C 
HETATM   13  C19 UNL     1      24.218   3.267  48.951  1.00  0.00    -0.020 C 
BRANCH  11  14
HETATM   14  O1  UNL     1      26.586   4.916  49.820  1.00  0.00    -0.360 OA
HETATM   15  H1  UNL     1      26.823   4.614  48.849  1.00  0.00     0.217 HD
ENDBRANCH  11  14
ENDBRANCH   1   3
BRANCH   1  16
HETATM   16  C9  UNL     1      21.766   0.067  52.559  1.00  0.00     0.220 A 
HETATM   17  N2  UNL     1      21.424  -0.683  53.487  1.00  0.00    -0.247 NA
HETATM   18  C10 UNL     1      21.580  -1.407  54.583  1.00  0.00     0.154 A 
HETATM   19  C11 UNL     1      23.051  -1.321  55.084  1.00  0.00     0.060 A 
HETATM   20  C12 UNL     1      23.041  -0.682  54.167  1.00  0.00     0.115 A 
HETATM   21  N4  UNL     1      23.191   0.194  52.980  1.00  0.00    -0.237 NA
BRANCH  20  22
HETATM   22  C13 UNL     1      24.691  -0.534  54.179  1.00  0.00    -0.008 A 
HETATM   23  C14 UNL     1      25.421  -0.576  53.065  1.00  0.00     0.013 A 
HETATM   24  C15 UNL     1      26.672  -0.553  52.250  1.00  0.00     0.020 A 
HETATM   25  C16 UNL     1      27.196  -0.411  53.497  1.00  0.00     0.116 A 
HETATM   26  N3  UNL     1      27.144  -0.308  54.794  1.00  0.00    -0.272 NA
HETATM   27  C17 UNL     1      25.742  -0.380  55.180  1.00  0.00     0.126 A 
ENDBRANCH  20  22
ENDBRANCH   1  16
TORSDOF 4
ENDMDL
MODEL 4
REMARK VINA RESULT:      -8.5      6.413      8.732
REMARK  4 active torsions:
REMARK  status: ('A' for Active; 'I' for Inactive)
REMARK    1  A    between atoms: O1_1  and  C1_2 
REMARK    2  A    between atoms: C8_9  and  N1_10 
REMARK    3  A    between atoms: N1_10  and  C9_11 
REMARK    4  A    between atoms: C12_15  and  C13_16 
ROOT
HETATM    1  N1  UNL     1      25.842   4.451  49.777  1.00  0.00    -0.335 N 
HETATM    2  H6  UNL     1      25.051   5.076  49.693  1.00  0.00     0.168 HD
ENDROOT
BRANCH   1   3
HETATM    3  C8  UNL     1      27.122   4.507  49.236  1.00  0.00     0.095 C 
HETATM    4  C7  UNL     1      28.078   5.126  48.500  1.00  0.00    -0.051 C 
HETATM    5  C6  UNL     1      26.980   6.175  48.331  1.00  0.00     0.116 C 
HETATM    6  C18 UNL     1      29.050   5.828  47.703  1.00  0.00     0.063 C 
HETATM    7  C5  UNL     1      27.581   7.505  48.739  1.00  0.00    -0.172 C 
HETATM    8  C4  UNL     1      28.013   8.495  49.019  1.00  0.00     0.022 C 
HETATM    9  C3  UNL     1      28.613   9.957  49.426  1.00  0.00     0.101 C 
HETATM   10  C2  UNL     1      29.874  10.036  48.941  1.00  0.00    -0.009 C 
HETATM   11  C1  UNL     1      30.681   9.060  49.380  1.00  0.00     0.072 C 
HETATM   12  C20 UNL     1      30.317   7.711  48.954  1.00  0.00     0.033 C 
HETATM   13  C19 UNL     1      30.115   6.407  48.676  1.00  0.00    -0.020 C 
BRANCH  11  14
HETATM   14  O1  UNL     1      31.767   8.502  50.076  1.00  0.00    -0.360 OA
HETATM   15  H1  UNL     1      32.736   8.570  49.692  1.00  0.00     0.217 HD
ENDBRANCH  11  14
ENDBRANCH   1   3
BRANCH   1  16
HETATM   16  C9  UNL     1      25.536   3.372  50.575  1.00  0.00     0.220 A 
HETATM   17  N2  UNL     1      24.479   2.768  50.817  1.00  0.00    -0.247 NA
HETATM   18  C10 UNL     1      23.707   1.841  51.359  1.00  0.00     0.154 A 
HETATM   19  C11 UNL     1      24.552   0.889  52.254  1.00  0.00     0.060 A 
HETATM   20  C12 UNL     1      25.300   1.618  51.856  1.00  0.00     0.115 A 
HETATM   21  N4  UNL     1      26.407   2.500  51.415  1.00  0.00    -0.237 NA
BRANCH  20  22
HETATM   22  C13 UNL     1      26.569   0.733  52.449  1.00  0.00    -0.008 A 
HETATM   23  C14 UNL     1      26.601  -0.598  52.394  1.00  0.00     0.013 A 
HETATM   24  C15 UNL     1      27.168  -1.961  52.618  1.00  0.00     0.020 A 
HETATM   25  C16 UNL     1      28.145  -1.200  53.179  1.00  0.00     0.116 A 
HETATM   26  N3  UNL     1      28.709  -0.084  53.543  1.00  0.00    -0.272 NA
HETATM   27  C17 UNL     1      27.827   1.001  53.138  1.00  0.00     0.126 A 
ENDBRANCH  20  22
ENDBRANCH   1  16
TORSDOF 4
ENDMDL
MODEL 5
REMARK VINA RESULT:      -8.5      5.072      6.573
REMARK  4 active torsions:
REMARK  status: ('A' for Active; 'I' for Inactive)
REMARK    1  A    between atoms: O1_1  and  C1_2 
REMARK    2  A    between atoms: C8_9  and  N1_10 
REMARK    3  A    between atoms: N1_10  and  C9_11 
REMARK    4  A    between atoms: C12_15  and  C13_16 
ROOT
HETATM    1  N1  UNL     1      23.765   4.246  51.347  1.00  0.00    -0.335 N 
HETATM    2  H6  UNL     1      24.208   4.381  52.247  1.00  0.00     0.168 HD
ENDROOT
BRANCH   1   3
HETATM    3  C8  UNL     1      22.732   3.405  50.946  1.00  0.00     0.095 C 
HETATM    4  C7  UNL     1      22.204   2.170  50.767  1.00  0.00    -0.051 C 
HETATM    5  C6  UNL     1      23.551   1.733  51.339  1.00  0.00     0.116 C 
HETATM    6  C18 UNL     1      21.698   0.832  50.595  1.00  0.00     0.063 C 
HETATM    7  C5  UNL     1      23.253   0.805  52.499  1.00  0.00    -0.172 C 
HETATM    8  C4  UNL     1      23.051   0.106  53.345  1.00  0.00     0.022 C 
HETATM    9  C3  UNL     1      22.790  -0.917  54.589  1.00  0.00     0.101 C 
HETATM   10  C2  UNL     1      21.766  -1.733  54.246  1.00  0.00    -0.009 C 
HETATM   11  C1  UNL     1      20.640  -1.079  53.932  1.00  0.00     0.072 C 
HETATM   12  C20 UNL     1      20.717  -0.237  52.742  1.00  0.00     0.033 C 
HETATM   13  C19 UNL     1      20.620   0.601  51.690  1.00  0.00    -0.020 C 
BRANCH  11  14
HETATM   14  O1  UNL     1      19.301  -0.675  54.080  1.00  0.00    -0.360 OA
HETATM   15  H1  UNL     1      18.845  -0.680  55.019  1.00  0.00     0.217 HD
ENDBRANCH  11  14
ENDBRANCH   1   3
BRANCH   1  16
HETATM   16  C9  UNL     1      24.327   5.063  50.393  1.00  0.00     0.220 A 
HETATM   17  N2  UNL     1      23.946   6.107  49.838  1.00  0.00    -0.247 NA
HETATM   18  C10 UNL     1      24.027   7.152  49.032  1.00  0.00     0.154 A 
HETATM   19  C11 UNL     1      25.390   7.153  48.280  1.00  0.00     0.060 A 
HETATM   20  C12 UNL     1      25.437   6.238  48.923  1.00  0.00     0.115 A 
HETATM   21  N4  UNL     1      25.651   5.001  49.709  1.00  0.00    -0.237 NA
BRANCH  20  22
HETATM   22  C13 UNL     1      27.039   6.002  48.574  1.00  0.00    -0.008 A 
HETATM   23  C14 UNL     1      27.825   6.979  48.125  1.00  0.00     0.013 A 
HETATM   24  C15 UNL     1      29.094   7.595  47.635  1.00  0.00     0.020 A 
HETATM   25  C16 UNL     1      29.509   6.314  47.829  1.00  0.00     0.116 A 
HETATM   26  N3  UNL     1      29.363   5.065  48.165  1.00  0.00    -0.272 NA
HETATM   27  C17 UNL     1      27.978   4.885  48.580  1.00  0.00     0.126 A 
ENDBRANCH  20  22
ENDBRANCH   1  16
TORSDOF 4
ENDMDL
MODEL 6
REMARK VINA RESULT:      -8.4      2.254      3.825
REMARK  4 active torsions:
REMARK  status: ('A' for Active; 'I' for Inactive)
REMARK    1  A    between atoms: O1_1  and  C1_2 
REMARK    2  A    between atoms: C8_9  and  N1_10 
REMARK    3  A    between atoms: N1_10  and  C9_11 
REMARK    4  A    between atoms: C12_15  and  C13_16 
ROOT
HETATM    1  N1  UNL     1      25.963   2.971  50.667  1.00  0.00    -0.335 N 
HETATM    2  H6  UNL     1      26.822   2.880  50.140  1.00  0.00     0.168 HD
ENDROOT
BRANCH   1   3
HETATM    3  C8  UNL     1      24.969   3.943  50.646  1.00  0.00     0.095 C 
HETATM    4  C7  UNL     1      23.802   4.443  50.171  1.00  0.00    -0.051 C 
HETATM    5  C6  UNL     1      23.847   3.181  49.311  1.00  0.00     0.116 C 
HETATM    6  C18 UNL     1      22.561   4.926  49.623  1.00  0.00     0.063 C 
HETATM    7  C5  UNL     1      22.523   2.471  49.506  1.00  0.00    -0.172 C 
HETATM    8  C4  UNL     1      21.547   1.944  49.626  1.00  0.00     0.022 C 
HETATM    9  C3  UNL     1      20.131   1.147  49.781  1.00  0.00     0.101 C 
HETATM   10  C2  UNL     1      19.139   2.068  49.797  1.00  0.00    -0.009 C 
HETATM   11  C1  UNL     1      19.270   2.984  50.766  1.00  0.00     0.072 C 
HETATM   12  C20 UNL     1      20.436   3.854  50.648  1.00  0.00     0.033 C 
HETATM   13  C19 UNL     1      21.466   4.723  50.707  1.00  0.00    -0.020 C 
BRANCH  11  14
HETATM   14  O1  UNL     1      18.928   3.670  51.944  1.00  0.00    -0.360 OA
HETATM   15  H1  UNL     1      19.630   3.801  52.706  1.00  0.00     0.217 HD
ENDBRANCH  11  14
ENDBRANCH   1   3
BRANCH   1  16
HETATM   16  C9  UNL     1      25.808   1.920  51.542  1.00  0.00     0.220 A 
HETATM   17  N2  UNL     1      24.831   1.469  52.161  1.00  0.00    -0.247 NA
HETATM   18  C10 UNL     1      24.176   0.646  52.963  1.00  0.00     0.154 A 
HETATM   19  C11 UNL     1      25.133  -0.452  53.510  1.00  0.00     0.060 A 
HETATM   20  C12 UNL     1      25.788   0.173  52.854  1.00  0.00     0.115 A 
HETATM   21  N4  UNL     1      26.781   0.899  52.027  1.00  0.00    -0.237 NA
BRANCH  20  22
HETATM   22  C13 UNL     1      27.038  -0.909  52.965  1.00  0.00    -0.008 A 
HETATM   23  C14 UNL     1      28.263  -0.551  53.347  1.00  0.00     0.013 A 
HETATM   24  C15 UNL     1      29.707  -0.753  53.667  1.00  0.00     0.020 A 
HETATM   25  C16 UNL     1      29.362  -2.019  53.310  1.00  0.00     0.116 A 
HETATM   26  N3  UNL     1      28.547  -2.950  52.904  1.00  0.00    -0.272 NA
HETATM   27  C17 UNL     1      27.244  -2.330  52.707  1.00  0.00     0.126 A 
ENDBRANCH  20  22
ENDBRANCH   1  16
TORSDOF 4
ENDMDL
MODEL 7
REMARK VINA RESULT:      -8.3      5.275      7.028
REMARK  4 active torsions:
REMARK  status: ('A' for Active; 'I' for Inactive)
REMARK    1  A    between atoms: O1_1  and  C1_2 
REMARK    2  A    between atoms: C8_9  and  N1_10 
REMARK    3  A    between atoms: N1_10  and  C9_11 
REMARK    4  A    between atoms: C12_15  and  C13_16 
ROOT
HETATM    1  N1  UNL     1      25.186   3.502  51.837  1.00  0.00    -0.335 N 
HETATM    2  H6  UNL     1      24.645   4.150  52.394  1.00  0.00     0.168 HD
ENDROOT
BRANCH   1   3
HETATM    3  C8  UNL     1      25.931   3.683  50.677  1.00  0.00     0.095 C 
HETATM    4  C7  UNL     1      26.239   4.381  49.556  1.00  0.00    -0.051 C 
HETATM    5  C6  UNL     1      25.125   5.294  50.064  1.00  0.00     0.116 C 
HETATM    6  C18 UNL     1      26.517   5.161  48.378  1.00  0.00     0.063 C 
HETATM    7  C5  UNL     1      25.698   6.696  50.114  1.00  0.00    -0.172 C 
HETATM    8  C4  UNL     1      26.099   7.737  50.142  1.00  0.00     0.022 C 
HETATM    9  C3  UNL     1      26.656   9.269  50.196  1.00  0.00     0.101 C 
HETATM   10  C2  UNL     1      27.416   9.473  49.094  1.00  0.00    -0.009 C 
HETATM   11  C1  UNL     1      28.432   8.608  48.975  1.00  0.00     0.072 C 
HETATM   12  C20 UNL     1      28.046   7.214  48.777  1.00  0.00     0.033 C 
HETATM   13  C19 UNL     1      27.870   5.887  48.612  1.00  0.00    -0.020 C 
BRANCH  11  14
HETATM   14  O1  UNL     1      29.777   8.200  48.927  1.00  0.00    -0.360 OA
HETATM   15  H1  UNL     1      30.083   7.323  49.405  1.00  0.00     0.217 HD
ENDBRANCH  11  14
ENDBRANCH   1   3
BRANCH   1  16
HETATM   16  C9  UNL     1      25.134   2.233  52.368  1.00  0.00     0.220 A 
HETATM   17  N2  UNL     1      24.197   1.479  52.676  1.00  0.00    -0.247 NA
HETATM   18  C10 UNL     1      23.624   0.370  53.114  1.00  0.00     0.154 A 
HETATM   19  C11 UNL     1      24.705  -0.679  53.505  1.00  0.00     0.060 A 
HETATM   20  C12 UNL     1      25.299   0.201  53.154  1.00  0.00     0.115 A 
HETATM   21  N4  UNL     1      26.223   1.277  52.722  1.00  0.00    -0.237 NA
BRANCH  20  22
HETATM   22  C13 UNL     1      26.712  -0.664  53.182  1.00  0.00    -0.008 A 
HETATM   23  C14 UNL     1      27.877  -0.119  53.526  1.00  0.00     0.013 A 
HETATM   24  C15 UNL     1      29.348  -0.088  53.783  1.00  0.00     0.020 A 
HETATM   25  C16 UNL     1      29.198  -1.385  53.401  1.00  0.00     0.116 A 
HETATM   26  N3  UNL     1      28.529  -2.427  52.999  1.00  0.00    -0.272 NA
HETATM   27  C17 UNL     1      27.135  -2.025  52.872  1.00  0.00     0.126 A 
ENDBRANCH  20  22
ENDBRANCH   1  16
TORSDOF 4
ENDMDL
MODEL 8
REMARK VINA RESULT:      -8.3      6.007      7.248
REMARK  4 active torsions:
REMARK  status: ('A' for Active; 'I' for Inactive)
REMARK    1  A    between atoms: O1_1  and  C1_2 
REMARK    2  A    between atoms: C8_9  and  N1_10 
REMARK    3  A    between atoms: N1_10  and  C9_11 
REMARK    4  A    between atoms: C12_15  and  C13_16 
ROOT
HETATM    1  N1  UNL     1      26.532   3.237  49.308  1.00  0.00    -0.335 N 
HETATM    2  H6  UNL     1      26.432   2.626  48.508  1.00  0.00     0.168 HD
ENDROOT
BRANCH   1   3
HETATM    3  C8  UNL     1      26.207   3.060  50.649  1.00  0.00     0.095 C 
HETATM    4  C7  UNL     1      25.302   3.007  51.658  1.00  0.00    -0.051 C 
HETATM    5  C6  UNL     1      24.324   3.309  50.524  1.00  0.00     0.116 C 
HETATM    6  C18 UNL     1      24.297   2.968  52.688  1.00  0.00     0.063 C 
HETATM    7  C5  UNL     1      23.242   2.250  50.587  1.00  0.00    -0.172 C 
HETATM    8  C4  UNL     1      22.428   1.488  50.629  1.00  0.00     0.022 C 
HETATM    9  C3  UNL     1      21.225   0.386  50.661  1.00  0.00     0.101 C 
HETATM   10  C2  UNL     1      20.903   0.164  51.957  1.00  0.00    -0.009 C 
HETATM   11  C1  UNL     1      21.935  -0.247  52.706  1.00  0.00     0.072 C 
HETATM   12  C20 UNL     1      23.017   0.722  52.864  1.00  0.00     0.033 C 
HETATM   13  C19 UNL     1      24.108   1.480  53.094  1.00  0.00    -0.020 C 
BRANCH  11  14
HETATM   14  O1  UNL     1      22.675  -1.140  53.501  1.00  0.00    -0.360 OA
HETATM   15  H1  UNL     1      22.223  -1.988  53.909  1.00  0.00     0.217 HD
ENDBRANCH  11  14
ENDBRANCH   1   3
BRANCH   1  16
HETATM   16  C9  UNL     1      27.093   4.440  48.943  1.00  0.00     0.220 A 
HETATM   17  N2  UNL     1      26.643   5.594  48.858  1.00  0.00    -0.247 NA
HETATM   18  C10 UNL     1      26.679   6.898  48.638  1.00  0.00     0.154 A 
HETATM   19  C11 UNL     1      28.115   7.338  48.229  1.00  0.00     0.060 A 
HETATM   20  C12 UNL     1      28.207   6.235  48.388  1.00  0.00     0.115 A 
HETATM   21  N4  UNL     1      28.490   4.790  48.558  1.00  0.00    -0.237 NA
BRANCH  20  22
HETATM   22  C13 UNL     1      29.858   6.294  48.267  1.00  0.00    -0.008 A 
HETATM   23  C14 UNL     1      30.566   7.356  48.649  1.00  0.00     0.013 A 
HETATM   24  C15 UNL     1      31.800   8.167  48.870  1.00  0.00     0.020 A 
HETATM   25  C16 UNL     1      32.345   7.046  48.326  1.00  0.00     0.116 A 
HETATM   26  N3  UNL     1      32.316   5.851  47.809  1.00  0.00    -0.272 NA
HETATM   27  C17 UNL     1      30.923   5.428  47.771  1.00  0.00     0.126 A 
ENDBRANCH  20  22
ENDBRANCH   1  16
TORSDOF 4
ENDMDL
MODEL 9
REMARK VINA RESULT:      -8.1      6.133      8.809
REMARK  4 active torsions:
REMARK  status: ('A' for Active; 'I' for Inactive)
REMARK    1  A    between atoms: O1_1  and  C1_2 
REMARK    2  A    between atoms: C8_9  and  N1_10 
REMARK    3  A    between atoms: N1_10  and  C9_11 
REMARK    4  A    between atoms: C12_15  and  C13_16 
ROOT
HETATM    1  N1  UNL     1      25.761   4.054  50.408  1.00  0.00    -0.335 N 
HETATM    2  H6  UNL     1      24.954   4.640  50.581  1.00  0.00     0.168 HD
ENDROOT
BRANCH   1   3
HETATM    3  C8  UNL     1      26.903   4.262  49.643  1.00  0.00     0.095 C 
HETATM    4  C7  UNL     1      27.628   4.989  48.757  1.00  0.00    -0.051 C 
HETATM    5  C6  UNL     1      26.402   5.899  48.813  1.00  0.00     0.116 C 
HETATM    6  C18 UNL     1      28.346   5.801  47.809  1.00  0.00     0.063 C 
HETATM    7  C5  UNL     1      26.907   7.293  49.130  1.00  0.00    -0.172 C 
HETATM    8  C4  UNL     1      27.263   8.328  49.346  1.00  0.00     0.022 C 
HETATM    9  C3  UNL     1      27.750   9.852  49.665  1.00  0.00     0.101 C 
HETATM   10  C2  UNL     1      28.883  10.079  48.959  1.00  0.00    -0.009 C 
HETATM   11  C1  UNL     1      29.865   9.208  49.223  1.00  0.00     0.072 C 
HETATM   12  C20 UNL     1      29.591   7.824  48.844  1.00  0.00     0.033 C 
HETATM   13  C19 UNL     1      29.497   6.505  48.582  1.00  0.00    -0.020 C 
BRANCH  11  14
HETATM   14  O1  UNL     1      31.120   8.786  49.697  1.00  0.00    -0.360 OA
HETATM   15  H1  UNL     1      31.197   8.240  50.583  1.00  0.00     0.217 HD
ENDBRANCH  11  14
ENDBRANCH   1   3
BRANCH   1  16
HETATM   16  C9  UNL     1      25.650   2.854  51.072  1.00  0.00     0.220 A 
HETATM   17  N2  UNL     1      26.481   2.089  51.588  1.00  0.00    -0.247 NA
HETATM   18  C10 UNL     1      26.905   1.028  52.253  1.00  0.00     0.154 A 
HETATM   19  C11 UNL     1      25.700   0.143  52.686  1.00  0.00     0.060 A 
HETATM   20  C12 UNL     1      25.225   0.997  52.142  1.00  0.00     0.115 A 
HETATM   21  N4  UNL     1      24.449   2.056  51.453  1.00  0.00    -0.237 NA
BRANCH  20  22
HETATM   22  C13 UNL     1      23.706   0.531  52.611  1.00  0.00    -0.008 A 
HETATM   23  C14 UNL     1      23.493  -0.264  53.659  1.00  0.00     0.013 A 
HETATM   24  C15 UNL     1      22.681  -1.059  54.628  1.00  0.00     0.020 A 
HETATM   25  C16 UNL     1      21.693  -0.572  53.830  1.00  0.00     0.116 A 
HETATM   26  N3  UNL     1      21.212   0.111  52.831  1.00  0.00    -0.272 NA
HETATM   27  C17 UNL     1      22.338   0.728  52.144  1.00  0.00     0.126 A 
ENDBRANCH  20  22
ENDBRANCH   1  16
TORSDOF 4
ENDMDL
