MODEL 1
REMARK VINA RESULT:      -7.0      0.000      0.000
REMARK  2 active torsions:
REMARK  status: ('A' for Active; 'I' for Inactive)
REMARK    1  A    between atoms: C11_11  and  N1_12 
REMARK    2  A    between atoms: C14_17  and  N4_18 
ROOT
HETATM    1  C1  UNL     1      33.400   2.841  48.093  1.00  0.00     0.019 C 
HETATM    2  C2  UNL     1      34.625   3.636  47.758  1.00  0.00     0.040 C 
HETATM    3  C3  UNL     1      34.439   3.246  46.240  1.00  0.00    -0.017 C 
HETATM    4  C4  UNL     1      34.276   4.084  45.193  1.00  0.00     0.009 C 
HETATM    5  C5  UNL     1      34.372   5.285  45.867  1.00  0.00    -0.025 C 
HETATM    6  C6  UNL     1      34.663   4.951  47.237  1.00  0.00    -0.014 C 
HETATM    7  C7  UNL     1      35.031   5.959  48.353  1.00  0.00     0.041 C 
HETATM    8  C8  UNL     1      35.933   6.961  48.598  1.00  0.00     0.032 C 
HETATM    9  C9  UNL     1      35.338   8.312  48.135  1.00  0.00     0.036 C 
HETATM   10  C10 UNL     1      34.133   8.065  47.557  1.00  0.00     0.086 C 
HETATM   11  C11 UNL     1      33.402   7.728  46.251  1.00  0.00     0.055 C 
HETATM   12  C12 UNL     1      33.896   6.709  45.373  1.00  0.00     0.043 C 
HETATM   13  N2  UNL     1      32.833   7.832  48.259  1.00  0.00    -0.213 N 
HETATM   14  N3  UNL     1      31.738   8.431  48.127  1.00  0.00    -0.175 NA
HETATM   15  C13 UNL     1      30.909   7.629  48.928  1.00  0.00     0.172 A 
HETATM   16  C14 UNL     1      31.463   6.488  49.596  1.00  0.00     0.091 A 
HETATM   17  C15 UNL     1      32.697   6.644  49.141  1.00  0.00     0.158 A 
HETATM   18  N5  UNL     1      33.791   5.545  49.106  1.00  0.00    -0.339 N 
HETATM   19  H15 UNL     1      33.858   4.616  49.323  1.00  0.00     0.167 HD
ENDROOT
BRANCH  11  20
HETATM   20  N1  UNL     1      32.169   8.400  46.157  1.00  0.00    -0.397 N 
HETATM   21  H9  UNL     1      31.961   8.840  47.121  1.00  0.00     0.156 HD
HETATM   22  H10 UNL     1      31.812   8.283  45.143  1.00  0.00     0.156 HD
ENDBRANCH  11  20
BRANCH  16  23
HETATM   23  N4  UNL     1      31.351   5.380  50.402  1.00  0.00    -0.395 N 
HETATM   24  H13 UNL     1      31.215   5.562  51.442  1.00  0.00     0.156 HD
HETATM   25  H14 UNL     1      31.417   4.483  49.848  1.00  0.00     0.156 HD
ENDBRANCH  16  23
TORSDOF 2
ENDMDL
MODEL 2
REMARK VINA RESULT:      -6.8      7.466     10.163
REMARK  2 active torsions:
REMARK  status: ('A' for Active; 'I' for Inactive)
REMARK    1  A    between atoms: C11_11  and  N1_12 
REMARK    2  A    between atoms: C14_17  and  N4_18 
ROOT
HETATM    1  C1  UNL     1      26.805   1.990  51.366  1.00  0.00     0.019 C 
HETATM    2  C2  UNL     1      25.321   1.873  51.194  1.00  0.00     0.040 C 
HETATM    3  C3  UNL     1      25.153   1.954  52.761  1.00  0.00    -0.017 C 
HETATM    4  C4  UNL     1      24.449   2.869  53.463  1.00  0.00     0.009 C 
HETATM    5  C5  UNL     1      23.943   3.602  52.408  1.00  0.00    -0.025 C 
HETATM    6  C6  UNL     1      24.383   2.933  51.212  1.00  0.00    -0.014 C 
HETATM    7  C7  UNL     1      23.932   3.272  49.769  1.00  0.00     0.041 C 
HETATM    8  C8  UNL     1      22.778   3.418  49.044  1.00  0.00     0.032 C 
HETATM    9  C9  UNL     1      22.318   4.893  49.102  1.00  0.00     0.036 C 
HETATM   10  C10 UNL     1      23.167   5.566  49.922  1.00  0.00     0.086 C 
HETATM   11  C11 UNL     1      23.454   5.996  51.367  1.00  0.00     0.055 C 
HETATM   12  C12 UNL     1      23.343   5.063  52.448  1.00  0.00     0.043 C 
HETATM   13  N2  UNL     1      24.523   6.093  49.573  1.00  0.00    -0.213 N 
HETATM   14  N3  UNL     1      24.973   7.260  49.671  1.00  0.00    -0.175 NA
HETATM   15  C13 UNL     1      26.323   7.042  49.349  1.00  0.00     0.172 A 
HETATM   16  C14 UNL     1      26.768   5.715  49.037  1.00  0.00     0.091 A 
HETATM   17  C15 UNL     1      25.590   5.131  49.196  1.00  0.00     0.158 A 
HETATM   18  N5  UNL     1      25.360   3.614  49.426  1.00  0.00    -0.339 N 
HETATM   19  H15 UNL     1      25.900   2.833  49.538  1.00  0.00     0.167 HD
ENDROOT
BRANCH  11  20
HETATM   20  N1  UNL     1      23.982   7.299  51.427  1.00  0.00    -0.397 N 
HETATM   21  H9  UNL     1      24.973   7.233  51.851  1.00  0.00     0.156 HD
HETATM   22  H10 UNL     1      23.241   7.969  51.015  1.00  0.00     0.156 HD
ENDBRANCH  11  20
BRANCH  16  23
HETATM   23  N4  UNL     1      27.747   4.811  48.697  1.00  0.00    -0.395 N 
HETATM   24  H13 UNL     1      28.085   4.166  49.471  1.00  0.00     0.156 HD
HETATM   25  H14 UNL     1      28.024   4.898  47.681  1.00  0.00     0.156 HD
ENDBRANCH  16  23
TORSDOF 2
ENDMDL
MODEL 3
REMARK VINA RESULT:      -6.8      1.829      3.728
REMARK  2 active torsions:
REMARK  status: ('A' for Active; 'I' for Inactive)
REMARK    1  A    between atoms: C11_11  and  N1_12 
REMARK    2  A    between atoms: C14_17  and  N4_18 
ROOT
HETATM    1  C1  UNL     1      33.401   4.296  44.527  1.00  0.00     0.019 C 
HETATM    2  C2  UNL     1      32.797   4.265  45.898  1.00  0.00     0.040 C 
HETATM    3  C3  UNL     1      33.920   3.251  46.348  1.00  0.00    -0.017 C 
HETATM    4  C4  UNL     1      34.818   3.413  47.344  1.00  0.00     0.009 C 
HETATM    5  C5  UNL     1      34.402   4.646  47.806  1.00  0.00    -0.025 C 
HETATM    6  C6  UNL     1      33.237   4.989  47.032  1.00  0.00    -0.014 C 
HETATM    7  C7  UNL     1      32.306   6.199  47.289  1.00  0.00     0.041 C 
HETATM    8  C8  UNL     1      31.568   6.750  48.303  1.00  0.00     0.032 C 
HETATM    9  C9  UNL     1      32.436   7.772  49.074  1.00  0.00     0.036 C 
HETATM   10  C10 UNL     1      33.689   7.742  48.546  1.00  0.00     0.086 C 
HETATM   11  C11 UNL     1      35.074   7.086  48.614  1.00  0.00     0.055 C 
HETATM   12  C12 UNL     1      35.210   5.663  48.706  1.00  0.00     0.043 C 
HETATM   13  N2  UNL     1      34.151   8.422  47.297  1.00  0.00    -0.213 N 
HETATM   14  N3  UNL     1      35.099   9.229  47.134  1.00  0.00    -0.175 NA
HETATM   15  C13 UNL     1      35.098   9.344  45.734  1.00  0.00     0.172 A 
HETATM   16  C14 UNL     1      34.140   8.605  44.966  1.00  0.00     0.091 A 
HETATM   17  C15 UNL     1      33.553   8.020  45.998  1.00  0.00     0.158 A 
HETATM   18  N5  UNL     1      32.674   6.743  45.931  1.00  0.00    -0.339 N 
HETATM   19  H15 UNL     1      32.396   6.119  45.263  1.00  0.00     0.167 HD
ENDROOT
BRANCH  11  20
HETATM   20  N1  UNL     1      36.103   8.021  48.398  1.00  0.00    -0.397 N 
HETATM   21  H9  UNL     1      35.686   8.845  47.837  1.00  0.00     0.156 HD
HETATM   22  H10 UNL     1      36.995   7.637  48.874  1.00  0.00     0.156 HD
ENDBRANCH  11  20
BRANCH  16  23
HETATM   23  N4  UNL     1      33.582   8.216  43.771  1.00  0.00    -0.395 N 
HETATM   24  H13 UNL     1      32.701   8.731  43.470  1.00  0.00     0.156 HD
HETATM   25  H14 UNL     1      34.132   7.438  43.316  1.00  0.00     0.156 HD
ENDBRANCH  16  23
TORSDOF 2
ENDMDL
MODEL 4
REMARK VINA RESULT:      -6.7      3.344      6.337
REMARK  2 active torsions:
REMARK  status: ('A' for Active; 'I' for Inactive)
REMARK    1  A    between atoms: C11_11  and  N1_12 
REMARK    2  A    between atoms: C14_17  and  N4_18 
ROOT
HETATM    1  C1  UNL     1      27.386   4.786  48.961  1.00  0.00     0.019 C 
HETATM    2  C2  UNL     1      26.816   5.967  48.236  1.00  0.00     0.040 C 
HETATM    3  C3  UNL     1      25.963   6.316  49.517  1.00  0.00    -0.017 C 
HETATM    4  C4  UNL     1      25.991   7.461  50.233  1.00  0.00     0.009 C 
HETATM    5  C5  UNL     1      26.912   8.160  49.478  1.00  0.00    -0.025 C 
HETATM    6  C6  UNL     1      27.232   7.314  48.357  1.00  0.00    -0.014 C 
HETATM    7  C7  UNL     1      28.091   7.721  47.135  1.00  0.00     0.041 C 
HETATM    8  C8  UNL     1      28.145   8.700  46.177  1.00  0.00     0.032 C 
HETATM    9  C9  UNL     1      29.035   9.861  46.678  1.00  0.00     0.036 C 
HETATM   10  C10 UNL     1      29.422   9.576  47.949  1.00  0.00     0.086 C 
HETATM   11  C11 UNL     1      29.072   9.706  49.437  1.00  0.00     0.055 C 
HETATM   12  C12 UNL     1      27.747   9.431  49.908  1.00  0.00     0.043 C 
HETATM   13  N2  UNL     1      30.530   8.661  48.365  1.00  0.00    -0.213 N 
HETATM   14  N3  UNL     1      31.523   8.894  49.097  1.00  0.00    -0.175 NA
HETATM   15  C13 UNL     1      32.058   7.602  49.222  1.00  0.00     0.172 A 
HETATM   16  C14 UNL     1      31.411   6.504  48.565  1.00  0.00     0.091 A 
HETATM   17  C15 UNL     1      30.432   7.217  48.031  1.00  0.00     0.158 A 
HETATM   18  N5  UNL     1      29.087   6.651  47.505  1.00  0.00    -0.339 N 
HETATM   19  H15 UNL     1      28.654   5.799  47.464  1.00  0.00     0.167 HD
ENDROOT
BRANCH  11  20
HETATM   20  N1  UNL     1      30.216   9.940  50.223  1.00  0.00    -0.397 N 
HETATM   21  H9  UNL     1      30.594  10.919  49.969  1.00  0.00     0.156 HD
HETATM   22  H10 UNL     1      30.359   9.073  50.853  1.00  0.00     0.156 HD
ENDBRANCH  11  20
BRANCH  16  23
HETATM   23  N4  UNL     1      31.301   5.169  48.255  1.00  0.00    -0.395 N 
HETATM   24  H13 UNL     1      31.761   4.486  48.929  1.00  0.00     0.156 HD
HETATM   25  H14 UNL     1      30.757   5.017  47.362  1.00  0.00     0.156 HD
ENDBRANCH  16  23
TORSDOF 2
ENDMDL
MODEL 5
REMARK VINA RESULT:      -6.6     11.734     13.943
REMARK  2 active torsions:
REMARK  status: ('A' for Active; 'I' for Inactive)
REMARK    1  A    between atoms: C11_11  and  N1_12 
REMARK    2  A    between atoms: C14_17  and  N4_18 
ROOT
HETATM    1  C1  UNL     1      22.914   0.014  53.829  1.00  0.00     0.019 C 
HETATM    2  C2  UNL     1      22.205  -0.474  52.602  1.00  0.00     0.040 C 
HETATM    3  C3  UNL     1      20.974  -0.885  53.500  1.00  0.00    -0.017 C 
HETATM    4  C4  UNL     1      19.701  -0.448  53.395  1.00  0.00     0.009 C 
HETATM    5  C5  UNL     1      19.850   0.372  52.293  1.00  0.00    -0.025 C 
HETATM    6  C6  UNL     1      21.216   0.220  51.865  1.00  0.00    -0.014 C 
HETATM    7  C7  UNL     1      21.826   0.802  50.567  1.00  0.00     0.041 C 
HETATM    8  C8  UNL     1      21.595   0.804  49.216  1.00  0.00     0.032 C 
HETATM    9  C9  UNL     1      20.694   2.006  48.850  1.00  0.00     0.036 C 
HETATM   10  C10 UNL     1      20.350   2.640  50.002  1.00  0.00     0.086 C 
HETATM   11  C11 UNL     1      19.334   2.713  51.150  1.00  0.00     0.055 C 
HETATM   12  C12 UNL     1      18.883   1.525  51.811  1.00  0.00     0.043 C 
HETATM   13  N2  UNL     1      21.184   3.611  50.775  1.00  0.00    -0.213 N 
HETATM   14  N3  UNL     1      20.914   4.783  51.134  1.00  0.00    -0.175 NA
HETATM   15  C13 UNL     1      22.023   5.063  51.949  1.00  0.00     0.172 A 
HETATM   16  C14 UNL     1      23.036   4.064  52.130  1.00  0.00     0.091 A 
HETATM   17  C15 UNL     1      22.463   3.144  51.369  1.00  0.00     0.158 A 
HETATM   18  N5  UNL     1      22.772   1.624  51.405  1.00  0.00    -0.339 N 
HETATM   19  H15 UNL     1      23.325   1.034  51.915  1.00  0.00     0.167 HD
ENDROOT
BRANCH  11  20
HETATM   20  N1  UNL     1      19.083   4.043  51.537  1.00  0.00    -0.397 N 
HETATM   21  H9  UNL     1      19.235   4.108  52.605  1.00  0.00     0.156 HD
HETATM   22  H10 UNL     1      18.828   4.598  50.646  1.00  0.00     0.156 HD
ENDBRANCH  11  20
BRANCH  16  23
HETATM   23  N4  UNL     1      24.213   3.614  52.680  1.00  0.00    -0.395 N 
HETATM   24  H13 UNL     1      24.171   3.296  53.694  1.00  0.00     0.156 HD
HETATM   25  H14 UNL     1      25.010   3.655  51.987  1.00  0.00     0.156 HD
ENDBRANCH  16  23
TORSDOF 2
ENDMDL
MODEL 6
REMARK VINA RESULT:      -6.5      9.471     11.718
REMARK  2 active torsions:
REMARK  status: ('A' for Active; 'I' for Inactive)
REMARK    1  A    between atoms: C11_11  and  N1_12 
REMARK    2  A    between atoms: C14_17  and  N4_18 
ROOT
HETATM    1  C1  UNL     1      26.149   0.951  52.262  1.00  0.00     0.019 C 
HETATM    2  C2  UNL     1      25.911   2.430  52.259  1.00  0.00     0.040 C 
HETATM    3  C3  UNL     1      26.741   2.542  50.922  1.00  0.00    -0.017 C 
HETATM    4  C4  UNL     1      26.319   3.024  49.733  1.00  0.00     0.009 C 
HETATM    5  C5  UNL     1      25.038   3.391  50.096  1.00  0.00    -0.025 C 
HETATM    6  C6  UNL     1      24.934   3.128  51.508  1.00  0.00    -0.014 C 
HETATM    7  C7  UNL     1      23.748   3.531  52.417  1.00  0.00     0.041 C 
HETATM    8  C8  UNL     1      23.027   4.646  52.758  1.00  0.00     0.032 C 
HETATM    9  C9  UNL     1      21.818   4.787  51.805  1.00  0.00     0.036 C 
HETATM   10  C10 UNL     1      21.897   3.798  50.876  1.00  0.00     0.086 C 
HETATM   11  C11 UNL     1      22.449   3.395  49.502  1.00  0.00     0.055 C 
HETATM   12  C12 UNL     1      23.808   3.673  49.145  1.00  0.00     0.043 C 
HETATM   13  N2  UNL     1      21.483   2.371  51.048  1.00  0.00    -0.213 N 
HETATM   14  N3  UNL     1      20.683   1.686  50.365  1.00  0.00    -0.175 NA
HETATM   15  C13 UNL     1      20.878   0.419  50.940  1.00  0.00     0.172 A 
HETATM   16  C14 UNL     1      21.816   0.267  52.013  1.00  0.00     0.091 A 
HETATM   17  C15 UNL     1      22.191   1.536  52.052  1.00  0.00     0.158 A 
HETATM   18  N5  UNL     1      23.495   2.071  52.700  1.00  0.00    -0.339 N 
HETATM   19  H15 UNL     1      24.265   1.703  53.132  1.00  0.00     0.167 HD
ENDROOT
BRANCH  11  20
HETATM   20  N1  UNL     1      21.531   2.606  48.784  1.00  0.00    -0.397 N 
HETATM   21  H9  UNL     1      21.496   1.634  49.253  1.00  0.00     0.156 HD
HETATM   22  H10 UNL     1      21.128   3.219  47.990  1.00  0.00     0.156 HD
ENDBRANCH  11  20
BRANCH  16  23
HETATM   23  N4  UNL     1      22.485  -0.495  52.942  1.00  0.00    -0.395 N 
HETATM   24  H13 UNL     1      22.643  -1.517  52.691  1.00  0.00     0.156 HD
HETATM   25  H14 UNL     1      22.752   0.070  53.793  1.00  0.00     0.156 HD
ENDBRANCH  16  23
TORSDOF 2
ENDMDL
MODEL 7
REMARK VINA RESULT:      -6.4     10.869     12.715
REMARK  2 active torsions:
REMARK  status: ('A' for Active; 'I' for Inactive)
REMARK    1  A    between atoms: C11_11  and  N1_12 
REMARK    2  A    between atoms: C14_17  and  N4_18 
ROOT
HETATM    1  C1  UNL     1      24.830   2.233  53.039  1.00  0.00     0.019 C 
HETATM    2  C2  UNL     1      24.198   1.363  51.996  1.00  0.00     0.040 C 
HETATM    3  C3  UNL     1      23.416   0.599  53.133  1.00  0.00    -0.017 C 
HETATM    4  C4  UNL     1      22.078   0.473  53.265  1.00  0.00     0.009 C 
HETATM    5  C5  UNL     1      21.689   1.149  52.126  1.00  0.00    -0.025 C 
HETATM    6  C6  UNL     1      22.903   1.511  51.443  1.00  0.00    -0.014 C 
HETATM    7  C7  UNL     1      22.993   2.135  50.029  1.00  0.00     0.041 C 
HETATM    8  C8  UNL     1      22.564   1.888  48.751  1.00  0.00     0.032 C 
HETATM    9  C9  UNL     1      21.197   2.575  48.526  1.00  0.00     0.036 C 
HETATM   10  C10 UNL     1      20.815   3.146  49.699  1.00  0.00     0.086 C 
HETATM   11  C11 UNL     1      20.064   2.937  51.021  1.00  0.00     0.055 C 
HETATM   12  C12 UNL     1      20.264   1.753  51.801  1.00  0.00     0.043 C 
HETATM   13  N2  UNL     1      21.283   4.452  50.255  1.00  0.00    -0.213 N 
HETATM   14  N3  UNL     1      20.612   5.450  50.615  1.00  0.00    -0.175 NA
HETATM   15  C13 UNL     1      21.622   6.244  51.185  1.00  0.00     0.172 A 
HETATM   16  C14 UNL     1      22.973   5.765  51.200  1.00  0.00     0.091 A 
HETATM   17  C15 UNL     1      22.719   4.611  50.601  1.00  0.00     0.158 A 
HETATM   18  N5  UNL     1      23.634   3.359  50.632  1.00  0.00    -0.339 N 
HETATM   19  H15 UNL     1      24.458   3.104  51.045  1.00  0.00     0.167 HD
ENDROOT
BRANCH  11  20
HETATM   20  N1  UNL     1      19.349   4.088  51.400  1.00  0.00    -0.397 N 
HETATM   21  H9  UNL     1      19.110   3.995  52.449  1.00  0.00     0.156 HD
HETATM   22  H10 UNL     1      19.270   4.723  50.529  1.00  0.00     0.156 HD
ENDBRANCH  11  20
BRANCH  16  23
HETATM   23  N4  UNL     1      24.303   5.894  51.522  1.00  0.00    -0.395 N 
HETATM   24  H13 UNL     1      24.962   5.165  51.115  1.00  0.00     0.156 HD
HETATM   25  H14 UNL     1      24.475   6.727  52.148  1.00  0.00     0.156 HD
ENDBRANCH  16  23
TORSDOF 2
ENDMDL
MODEL 8
REMARK VINA RESULT:      -6.3      1.979      4.853
REMARK  2 active torsions:
REMARK  status: ('A' for Active; 'I' for Inactive)
REMARK    1  A    between atoms: C11_11  and  N1_12 
REMARK    2  A    between atoms: C14_17  and  N4_18 
ROOT
HETATM    1  C1  UNL     1      32.492   9.723  46.461  1.00  0.00     0.019 C 
HETATM    2  C2  UNL     1      33.082   9.181  47.726  1.00  0.00     0.040 C 
HETATM    3  C3  UNL     1      31.655   9.243  48.396  1.00  0.00    -0.017 C 
HETATM    4  C4  UNL     1      30.955   8.218  48.930  1.00  0.00     0.009 C 
HETATM    5  C5  UNL     1      31.878   7.209  48.736  1.00  0.00    -0.025 C 
HETATM    6  C6  UNL     1      33.043   7.837  48.170  1.00  0.00    -0.014 C 
HETATM    7  C7  UNL     1      34.412   7.155  47.931  1.00  0.00     0.041 C 
HETATM    8  C8  UNL     1      35.357   6.443  48.623  1.00  0.00     0.032 C 
HETATM    9  C9  UNL     1      35.042   4.933  48.519  1.00  0.00     0.036 C 
HETATM   10  C10 UNL     1      33.876   4.793  47.835  1.00  0.00     0.086 C 
HETATM   11  C11 UNL     1      32.348   4.717  47.944  1.00  0.00     0.055 C 
HETATM   12  C12 UNL     1      31.621   5.649  48.753  1.00  0.00     0.043 C 
HETATM   13  N2  UNL     1      33.696   4.844  46.352  1.00  0.00    -0.213 N 
HETATM   14  N3  UNL     1      33.178   3.998  45.583  1.00  0.00    -0.175 NA
HETATM   15  C13 UNL     1      33.167   4.720  44.378  1.00  0.00     0.172 A 
HETATM   16  C14 UNL     1      33.684   6.058  44.352  1.00  0.00     0.091 A 
HETATM   17  C15 UNL     1      34.008   6.107  45.634  1.00  0.00     0.158 A 
HETATM   18  N5  UNL     1      34.254   7.402  46.452  1.00  0.00    -0.339 N 
HETATM   19  H15 UNL     1      34.209   8.345  46.301  1.00  0.00     0.167 HD
ENDROOT
BRANCH  11  20
HETATM   20  N1  UNL     1      31.808   3.777  47.046  1.00  0.00    -0.397 N 
HETATM   21  H9  UNL     1      30.931   3.347  47.508  1.00  0.00     0.156 HD
HETATM   22  H10 UNL     1      32.428   3.782  46.160  1.00  0.00     0.156 HD
ENDBRANCH  11  20
BRANCH  16  23
HETATM   23  N4  UNL     1      33.971   7.236  43.704  1.00  0.00    -0.395 N 
HETATM   24  H13 UNL     1      34.917   7.293  43.221  1.00  0.00     0.156 HD
HETATM   25  H14 UNL     1      33.180   7.931  43.786  1.00  0.00     0.156 HD
ENDBRANCH  16  23
TORSDOF 2
ENDMDL
MODEL 9
REMARK VINA RESULT:      -6.2     10.712     13.022
REMARK  2 active torsions:
REMARK  status: ('A' for Active; 'I' for Inactive)
REMARK    1  A    between atoms: C11_11  and  N1_12 
REMARK    2  A    between atoms: C14_17  and  N4_18 
ROOT
HETATM    1  C1  UNL     1      19.607   0.389  52.135  1.00  0.00     0.019 C 
HETATM    2  C2  UNL     1      19.771   1.177  50.872  1.00  0.00     0.040 C 
HETATM    3  C3  UNL     1      18.807   2.280  51.458  1.00  0.00    -0.017 C 
HETATM    4  C4  UNL     1      19.084   3.587  51.662  1.00  0.00     0.009 C 
HETATM    5  C5  UNL     1      20.375   3.607  51.174  1.00  0.00    -0.025 C 
HETATM    6  C6  UNL     1      20.633   2.283  50.672  1.00  0.00    -0.014 C 
HETATM    7  C7  UNL     1      21.884   1.848  49.870  1.00  0.00     0.041 C 
HETATM    8  C8  UNL     1      22.580   2.210  48.746  1.00  0.00     0.032 C 
HETATM    9  C9  UNL     1      23.679   3.228  49.129  1.00  0.00     0.036 C 
HETATM   10  C10 UNL     1      23.556   3.502  50.455  1.00  0.00     0.086 C 
HETATM   11  C11 UNL     1      22.889   4.402  51.503  1.00  0.00     0.055 C 
HETATM   12  C12 UNL     1      21.489   4.698  51.435  1.00  0.00     0.043 C 
HETATM   13  N2  UNL     1      24.053   2.668  51.593  1.00  0.00    -0.213 N 
HETATM   14  N3  UNL     1      24.813   2.986  52.540  1.00  0.00    -0.175 NA
HETATM   15  C13 UNL     1      24.739   1.825  53.327  1.00  0.00     0.172 A 
HETATM   16  C14 UNL     1      23.921   0.730  52.894  1.00  0.00     0.091 A 
HETATM   17  C15 UNL     1      23.491   1.306  51.783  1.00  0.00     0.158 A 
HETATM   18  N5  UNL     1      22.234   0.886  50.977  1.00  0.00    -0.339 N 
HETATM   19  H15 UNL     1      21.530   0.244  51.062  1.00  0.00     0.167 HD
ENDROOT
BRANCH  11  20
HETATM   20  N1  UNL     1      23.767   4.710  52.559  1.00  0.00    -0.397 N 
HETATM   21  H9  UNL     1      23.222   4.594  53.484  1.00  0.00     0.156 HD
HETATM   22  H10 UNL     1      24.725   4.954  52.123  1.00  0.00     0.156 HD
ENDBRANCH  11  20
BRANCH  16  23
HETATM   23  N4  UNL     1      23.386  -0.526  53.061  1.00  0.00    -0.395 N 
HETATM   24  H13 UNL     1      23.336  -0.891  54.059  1.00  0.00     0.156 HD
HETATM   25  H14 UNL     1      23.094  -0.953  52.140  1.00  0.00     0.156 HD
ENDBRANCH  16  23
TORSDOF 2
ENDMDL
