MODEL 1
REMARK VINA RESULT:      -7.9      0.000      0.000
REMARK  9 active torsions:
REMARK  status: ('A' for Active; 'I' for Inactive)
REMARK    1  A    between atoms: C2_2  and  O1_3 
REMARK    2  A    between atoms: O1_3  and  C3_4 
REMARK    3  A    between atoms: C9_12  and  N3_13 
REMARK    4  A    between atoms: N3_13  and  C10_14 
REMARK    5  A    between atoms: C17_23  and  N4_24 
REMARK    6  A    between atoms: N4_24  and  C18_25 
REMARK    7  A    between atoms: N4_24  and  O2_30 
REMARK    8  A    between atoms: C19_26  and  C20_27 
REMARK    9  A    between atoms: C20_27  and  N5_28 
ROOT
HETATM    1  C3  UNL     1      26.699   0.282  53.285  1.00  0.00     0.078 A 
HETATM    2  C4  UNL     1      26.427  -0.307  54.465  1.00  0.00     0.067 A 
HETATM    3  C5  UNL     1      24.990  -0.607  54.545  1.00  0.00     0.070 A 
HETATM    4  N1  UNL     1      24.215  -1.189  55.477  1.00  0.00    -0.259 NA
HETATM    5  C6  UNL     1      22.895  -1.388  55.336  1.00  0.00     0.142 A 
HETATM    6  C7  UNL     1      22.343  -0.952  54.152  1.00  0.00     0.089 A 
HETATM    7  C8  UNL     1      20.910  -1.183  54.032  1.00  0.00     0.103 C 
HETATM    8  N2  UNL     1      19.770  -1.361  53.919  1.00  0.00    -0.191 NA
HETATM    9  C9  UNL     1      23.078  -0.344  53.153  1.00  0.00     0.066 A 
HETATM   10  C16 UNL     1      24.437  -0.169  53.360  1.00  0.00     0.030 A 
HETATM   11  C17 UNL     1      25.436   0.427  52.486  1.00  0.00     0.208 A 
ENDROOT
BRANCH   9  12
HETATM   12  N3  UNL     1      22.326   0.009  52.009  1.00  0.00    -0.354 N 
HETATM   13  H8  UNL     1      22.167  -0.976  51.686  1.00  0.00     0.166 HD
BRANCH  12  14
HETATM   14  C10 UNL     1      21.800   1.109  51.280  1.00  0.00     0.034 A 
HETATM   15  C11 UNL     1      20.860   1.893  51.909  1.00  0.00     0.032 A 
HETATM   16  C12 UNL     1      20.379   2.947  51.189  1.00  0.00     0.046 A 
HETATM   17  C13 UNL     1      20.795   3.226  49.909  1.00  0.00     0.138 A 
HETATM   18  F1  UNL     1      20.278   4.288  49.235  1.00  0.00    -0.204 F 
HETATM   19  C14 UNL     1      21.734   2.460  49.255  1.00  0.00     0.074 A 
HETATM   20 CL1  UNL     1      22.310   2.754  47.631  1.00  0.00    -0.081 Cl
HETATM   21  C15 UNL     1      22.210   1.400  49.998  1.00  0.00     0.056 A 
ENDBRANCH  12  14
ENDBRANCH   9  12
BRANCH  11  22
HETATM   22  N4  UNL     1      25.205   1.797  52.108  1.00  0.00    -0.255 N 
BRANCH  22  23
HETATM   23  C18 UNL     1      24.635   2.719  53.015  1.00  0.00     0.116 C 
HETATM   24  C19 UNL     1      23.940   3.803  53.262  1.00  0.00     0.022 C 
BRANCH  24  25
HETATM   25  C20 UNL     1      23.217   4.892  52.569  1.00  0.00     0.298 C 
BRANCH  25  26
HETATM   26  N5  UNL     1      24.101   6.034  52.443  1.00  0.00     0.082 N 
HETATM   27  C21 UNL     1      24.075   6.474  51.066  1.00  0.00     0.307 C 
HETATM   28  H17 UNL     1      23.829   6.811  53.089  1.00  0.00     0.315 HD
ENDBRANCH  25  26
ENDBRANCH  24  25
ENDBRANCH  22  23
BRANCH  22  29
HETATM   29  O2  UNL     1      25.564   2.080  50.837  1.00  0.00    -0.282 OA
HETATM   30  C22 UNL     1      26.550   3.045  50.778  1.00  0.00     0.238 C 
ENDBRANCH  22  29
ENDBRANCH  11  22
BRANCH   1  31
HETATM   31  O1  UNL     1      27.998   0.655  52.982  1.00  0.00    -0.353 OA
BRANCH  31  32
HETATM   32  C2  UNL     1      29.044   0.426  53.906  1.00  0.00     0.171 C 
HETATM   33  C1  UNL     1      29.942  -0.717  53.518  1.00  0.00     0.034 C 
ENDBRANCH  31  32
ENDBRANCH   1  31
TORSDOF 9
ENDMDL
MODEL 2
REMARK VINA RESULT:      -7.8      2.960      5.325
REMARK  9 active torsions:
REMARK  status: ('A' for Active; 'I' for Inactive)
REMARK    1  A    between atoms: C2_2  and  O1_3 
REMARK    2  A    between atoms: O1_3  and  C3_4 
REMARK    3  A    between atoms: C9_12  and  N3_13 
REMARK    4  A    between atoms: N3_13  and  C10_14 
REMARK    5  A    between atoms: C17_23  and  N4_24 
REMARK    6  A    between atoms: N4_24  and  C18_25 
REMARK    7  A    between atoms: N4_24  and  O2_30 
REMARK    8  A    between atoms: C19_26  and  C20_27 
REMARK    9  A    between atoms: C20_27  and  N5_28 
ROOT
HETATM    1  C3  UNL     1      24.046   3.598  49.579  1.00  0.00     0.078 A 
HETATM    2  C4  UNL     1      25.380   3.415  49.577  1.00  0.00     0.067 A 
HETATM    3  C5  UNL     1      25.773   2.641  50.764  1.00  0.00     0.070 A 
HETATM    4  N1  UNL     1      26.950   2.184  51.225  1.00  0.00    -0.259 NA
HETATM    5  C6  UNL     1      27.087   1.462  52.348  1.00  0.00     0.142 A 
HETATM    6  C7  UNL     1      25.925   1.199  53.040  1.00  0.00     0.089 A 
HETATM    7  C8  UNL     1      26.108   0.415  54.252  1.00  0.00     0.103 C 
HETATM    8  N2  UNL     1      26.236  -0.211  55.220  1.00  0.00    -0.191 NA
HETATM    9  C9  UNL     1      24.682   1.640  52.626  1.00  0.00     0.066 A 
HETATM   10  C16 UNL     1      24.610   2.380  51.457  1.00  0.00     0.030 A 
HETATM   11  C17 UNL     1      23.448   2.954  50.797  1.00  0.00     0.208 A 
ENDROOT
BRANCH   9  12
HETATM   12  N3  UNL     1      23.616   1.245  53.466  1.00  0.00    -0.354 N 
HETATM   13  H8  UNL     1      23.855   1.904  54.247  1.00  0.00     0.166 HD
BRANCH  12  14
HETATM   14  C10 UNL     1      22.499   0.374  53.564  1.00  0.00     0.034 A 
HETATM   15  C11 UNL     1      22.575  -0.652  54.479  1.00  0.00     0.032 A 
HETATM   16  C12 UNL     1      21.484  -1.468  54.558  1.00  0.00     0.046 A 
HETATM   17  C13 UNL     1      20.365  -1.292  53.779  1.00  0.00     0.138 A 
HETATM   18  F1  UNL     1      19.309  -2.139  53.897  1.00  0.00    -0.204 F 
HETATM   19  C14 UNL     1      20.260  -0.276  52.857  1.00  0.00     0.074 A 
HETATM   20 CL1  UNL     1      18.872   0.008  51.834  1.00  0.00    -0.081 Cl
HETATM   21  C15 UNL     1      21.371   0.539  52.791  1.00  0.00     0.056 A 
ENDBRANCH  12  14
ENDBRANCH   9  12
BRANCH  11  22
HETATM   22  N4  UNL     1      22.686   3.900  51.572  1.00  0.00    -0.255 N 
BRANCH  22  23
HETATM   23  C18 UNL     1      23.282   5.077  52.078  1.00  0.00     0.116 C 
HETATM   24  C19 UNL     1      23.862   6.239  51.892  1.00  0.00     0.022 C 
BRANCH  24  25
HETATM   25  C20 UNL     1      24.308   7.146  50.811  1.00  0.00     0.298 C 
BRANCH  25  26
HETATM   26  N5  UNL     1      25.756   7.199  50.813  1.00  0.00     0.082 N 
HETATM   27  C21 UNL     1      26.213   7.098  49.445  1.00  0.00     0.307 C 
HETATM   28  H17 UNL     1      26.114   8.073  51.263  1.00  0.00     0.315 HD
ENDBRANCH  25  26
ENDBRANCH  24  25
ENDBRANCH  22  23
BRANCH  22  29
HETATM   29  O2  UNL     1      21.401   3.535  51.766  1.00  0.00    -0.282 OA
HETATM   30  C22 UNL     1      20.515   4.433  51.202  1.00  0.00     0.238 C 
ENDBRANCH  22  29
ENDBRANCH  11  22
BRANCH   1  31
HETATM   31  O1  UNL     1      23.442   4.301  48.550  1.00  0.00    -0.353 OA
BRANCH  31  32
HETATM   32  C2  UNL     1      22.262   3.810  47.944  1.00  0.00     0.171 C 
HETATM   33  C1  UNL     1      22.395   2.401  47.436  1.00  0.00     0.034 C 
ENDBRANCH  31  32
ENDBRANCH   1  31
TORSDOF 9
ENDMDL
MODEL 3
REMARK VINA RESULT:      -7.8      3.369      5.930
REMARK  9 active torsions:
REMARK  status: ('A' for Active; 'I' for Inactive)
REMARK    1  A    between atoms: C2_2  and  O1_3 
REMARK    2  A    between atoms: O1_3  and  C3_4 
REMARK    3  A    between atoms: C9_12  and  N3_13 
REMARK    4  A    between atoms: N3_13  and  C10_14 
REMARK    5  A    between atoms: C17_23  and  N4_24 
REMARK    6  A    between atoms: N4_24  and  C18_25 
REMARK    7  A    between atoms: N4_24  and  O2_30 
REMARK    8  A    between atoms: C19_26  and  C20_27 
REMARK    9  A    between atoms: C20_27  and  N5_28 
ROOT
HETATM    1  C3  UNL     1      22.667   4.898  51.184  1.00  0.00     0.078 A 
HETATM    2  C4  UNL     1      21.384   4.741  51.564  1.00  0.00     0.067 A 
HETATM    3  C5  UNL     1      21.208   3.410  52.162  1.00  0.00     0.070 A 
HETATM    4  N1  UNL     1      20.157   2.768  52.702  1.00  0.00    -0.259 NA
HETATM    5  C6  UNL     1      20.219   1.533  53.224  1.00  0.00     0.142 A 
HETATM    6  C7  UNL     1      21.454   0.923  53.180  1.00  0.00     0.089 A 
HETATM    7  C8  UNL     1      21.488  -0.415  53.754  1.00  0.00     0.103 C 
HETATM    8  N2  UNL     1      21.532  -1.481  54.208  1.00  0.00    -0.191 NA
HETATM    9  C9  UNL     1      22.575   1.522  52.639  1.00  0.00     0.066 A 
HETATM   10  C16 UNL     1      22.443   2.799  52.117  1.00  0.00     0.030 A 
HETATM   11  C17 UNL     1      23.446   3.654  51.502  1.00  0.00     0.208 A 
ENDROOT
BRANCH   9  12
HETATM   12  N3  UNL     1      23.747   0.735  52.712  1.00  0.00    -0.354 N 
HETATM   13  H8  UNL     1      23.460   0.057  51.964  1.00  0.00     0.166 HD
BRANCH  12  14
HETATM   14  C10 UNL     1      24.995   0.600  53.375  1.00  0.00     0.034 A 
HETATM   15  C11 UNL     1      25.135  -0.452  54.253  1.00  0.00     0.032 A 
HETATM   16  C12 UNL     1      26.347  -0.562  54.869  1.00  0.00     0.046 A 
HETATM   17  C13 UNL     1      27.381   0.316  54.642  1.00  0.00     0.138 A 
HETATM   18  F1  UNL     1      28.566   0.161  55.288  1.00  0.00    -0.204 F 
HETATM   19  C14 UNL     1      27.270   1.376  53.771  1.00  0.00     0.074 A 
HETATM   20 CL1  UNL     1      28.539   2.530  53.434  1.00  0.00    -0.081 Cl
HETATM   21  C15 UNL     1      26.039   1.472  53.156  1.00  0.00     0.056 A 
ENDBRANCH  12  14
ENDBRANCH   9  12
BRANCH  11  22
HETATM   22  N4  UNL     1      24.093   3.123  50.330  1.00  0.00    -0.255 N 
BRANCH  22  23
HETATM   23  C18 UNL     1      25.477   3.305  50.115  1.00  0.00     0.116 C 
HETATM   24  C19 UNL     1      26.481   3.996  49.629  1.00  0.00     0.022 C 
BRANCH  24  25
HETATM   25  C20 UNL     1      26.770   5.235  48.874  1.00  0.00     0.298 C 
BRANCH  25  26
HETATM   26  N5  UNL     1      28.200   5.468  48.887  1.00  0.00     0.082 N 
HETATM   27  C21 UNL     1      28.486   6.573  48.000  1.00  0.00     0.307 C 
HETATM   28  H17 UNL     1      28.555   5.662  49.852  1.00  0.00     0.315 HD
ENDBRANCH  25  26
ENDBRANCH  24  25
ENDBRANCH  22  23
BRANCH  22  29
HETATM   29  O2  UNL     1      23.255   2.478  49.490  1.00  0.00    -0.282 OA
HETATM   30  C22 UNL     1      23.094   3.154  48.296  1.00  0.00     0.238 C 
ENDBRANCH  22  29
ENDBRANCH  11  22
BRANCH   1  31
HETATM   31  O1  UNL     1      23.074   6.083  50.594  1.00  0.00    -0.353 OA
BRANCH  31  32
HETATM   32  C2  UNL     1      24.180   6.797  51.110  1.00  0.00     0.171 C 
HETATM   33  C1  UNL     1      24.430   8.101  50.404  1.00  0.00     0.034 C 
ENDBRANCH  31  32
ENDBRANCH   1  31
TORSDOF 9
ENDMDL
MODEL 4
REMARK VINA RESULT:      -7.6      3.239      6.120
REMARK  9 active torsions:
REMARK  status: ('A' for Active; 'I' for Inactive)
REMARK    1  A    between atoms: C2_2  and  O1_3 
REMARK    2  A    between atoms: O1_3  and  C3_4 
REMARK    3  A    between atoms: C9_12  and  N3_13 
REMARK    4  A    between atoms: N3_13  and  C10_14 
REMARK    5  A    between atoms: C17_23  and  N4_24 
REMARK    6  A    between atoms: N4_24  and  C18_25 
REMARK    7  A    between atoms: N4_24  and  O2_30 
REMARK    8  A    between atoms: C19_26  and  C20_27 
REMARK    9  A    between atoms: C20_27  and  N5_28 
ROOT
HETATM    1  C3  UNL     1      22.725   5.391  51.273  1.00  0.00     0.078 A 
HETATM    2  C4  UNL     1      21.497   5.098  51.741  1.00  0.00     0.067 A 
HETATM    3  C5  UNL     1      21.453   3.690  52.160  1.00  0.00     0.070 A 
HETATM    4  N1  UNL     1      20.497   2.912  52.698  1.00  0.00    -0.259 NA
HETATM    5  C6  UNL     1      20.678   1.624  53.033  1.00  0.00     0.142 A 
HETATM    6  C7  UNL     1      21.933   1.110  52.792  1.00  0.00     0.089 A 
HETATM    7  C8  UNL     1      22.096  -0.287  53.166  1.00  0.00     0.103 C 
HETATM    8  N2  UNL     1      22.243  -1.399  53.461  1.00  0.00    -0.191 NA
HETATM    9  C9  UNL     1      22.961   1.851  52.241  1.00  0.00     0.066 A 
HETATM   10  C16 UNL     1      22.709   3.175  51.918  1.00  0.00     0.030 A 
HETATM   11  C17 UNL     1      23.598   4.171  51.341  1.00  0.00     0.208 A 
ENDROOT
BRANCH   9  12
HETATM   12  N3  UNL     1      24.176   1.142  52.096  1.00  0.00    -0.354 N 
HETATM   13  H8  UNL     1      23.852   0.552  51.291  1.00  0.00     0.166 HD
BRANCH  12  14
HETATM   14  C10 UNL     1      25.490   1.005  52.617  1.00  0.00     0.034 A 
HETATM   15  C11 UNL     1      26.066   2.121  53.181  1.00  0.00     0.032 A 
HETATM   16  C12 UNL     1      27.325   1.958  53.681  1.00  0.00     0.046 A 
HETATM   17  C13 UNL     1      27.996   0.759  53.634  1.00  0.00     0.138 A 
HETATM   18  F1  UNL     1      29.251   0.655  54.144  1.00  0.00    -0.204 F 
HETATM   19  C14 UNL     1      27.445  -0.373  53.077  1.00  0.00     0.074 A 
HETATM   20 CL1  UNL     1      28.237  -1.928  52.980  1.00  0.00    -0.081 Cl
HETATM   21  C15 UNL     1      26.172  -0.191  52.577  1.00  0.00     0.056 A 
ENDBRANCH  12  14
ENDBRANCH   9  12
BRANCH  11  22
HETATM   22  N4  UNL     1      24.153   3.847  50.052  1.00  0.00    -0.255 N 
BRANCH  22  23
HETATM   23  C18 UNL     1      23.335   3.774  48.902  1.00  0.00     0.116 C 
HETATM   24  C19 UNL     1      22.598   3.087  48.062  1.00  0.00     0.022 C 
BRANCH  24  25
HETATM   25  C20 UNL     1      22.120   1.711  47.805  1.00  0.00     0.298 C 
BRANCH  25  26
HETATM   26  N5  UNL     1      21.630   1.146  49.047  1.00  0.00     0.082 N 
HETATM   27  C21 UNL     1      20.275   1.609  49.249  1.00  0.00     0.307 C 
HETATM   28  H17 UNL     1      21.672   0.101  49.044  1.00  0.00     0.315 HD
ENDBRANCH  25  26
ENDBRANCH  24  25
ENDBRANCH  22  23
BRANCH  22  29
HETATM   29  O2  UNL     1      25.483   3.615  50.074  1.00  0.00    -0.282 OA
HETATM   30  C22 UNL     1      26.187   4.552  49.341  1.00  0.00     0.238 C 
ENDBRANCH  22  29
ENDBRANCH  11  22
BRANCH   1  31
HETATM   31  O1  UNL     1      23.007   6.669  50.821  1.00  0.00    -0.353 OA
BRANCH  31  32
HETATM   32  C2  UNL     1      24.265   7.259  51.081  1.00  0.00     0.171 C 
HETATM   33  C1  UNL     1      24.759   8.130  49.958  1.00  0.00     0.034 C 
ENDBRANCH  31  32
ENDBRANCH   1  31
TORSDOF 9
ENDMDL
MODEL 5
REMARK VINA RESULT:      -7.5      1.941      2.629
REMARK  9 active torsions:
REMARK  status: ('A' for Active; 'I' for Inactive)
REMARK    1  A    between atoms: C2_2  and  O1_3 
REMARK    2  A    between atoms: O1_3  and  C3_4 
REMARK    3  A    between atoms: C9_12  and  N3_13 
REMARK    4  A    between atoms: N3_13  and  C10_14 
REMARK    5  A    between atoms: C17_23  and  N4_24 
REMARK    6  A    between atoms: N4_24  and  C18_25 
REMARK    7  A    between atoms: N4_24  and  O2_30 
REMARK    8  A    between atoms: C19_26  and  C20_27 
REMARK    9  A    between atoms: C20_27  and  N5_28 
ROOT
HETATM    1  C3  UNL     1      25.899  -0.515  53.919  1.00  0.00     0.078 A 
HETATM    2  C4  UNL     1      24.962  -0.950  54.782  1.00  0.00     0.067 A 
HETATM    3  C5  UNL     1      23.625  -0.644  54.252  1.00  0.00     0.070 A 
HETATM    4  N1  UNL     1      22.377  -0.869  54.700  1.00  0.00    -0.259 NA
HETATM    5  C6  UNL     1      21.266  -0.517  54.033  1.00  0.00     0.142 A 
HETATM    6  C7  UNL     1      21.464   0.111  52.823  1.00  0.00     0.089 A 
HETATM    7  C8  UNL     1      20.241   0.478  52.125  1.00  0.00     0.103 C 
HETATM    8  N2  UNL     1      19.275   0.777  51.556  1.00  0.00    -0.191 NA
HETATM    9  C9  UNL     1      22.717   0.376  52.303  1.00  0.00     0.066 A 
HETATM   10  C16 UNL     1      23.823  -0.014  53.042  1.00  0.00     0.030 A 
HETATM   11  C17 UNL     1      25.238   0.132  52.735  1.00  0.00     0.208 A 
ENDROOT
BRANCH   9  12
HETATM   12  N3  UNL     1      22.702   1.008  51.040  1.00  0.00    -0.354 N 
HETATM   13  H8  UNL     1      22.954   0.149  50.494  1.00  0.00     0.166 HD
BRANCH  12  14
HETATM   14  C10 UNL     1      22.483   2.249  50.384  1.00  0.00     0.034 A 
HETATM   15  C11 UNL     1      22.500   2.248  49.007  1.00  0.00     0.032 A 
HETATM   16  C12 UNL     1      22.278   3.451  48.404  1.00  0.00     0.046 A 
HETATM   17  C13 UNL     1      22.050   4.608  49.111  1.00  0.00     0.138 A 
HETATM   18  F1  UNL     1      21.840   5.781  48.457  1.00  0.00    -0.204 F 
HETATM   19  C14 UNL     1      22.027   4.639  50.486  1.00  0.00     0.074 A 
HETATM   20 CL1  UNL     1      21.745   6.070  51.450  1.00  0.00    -0.081 Cl
HETATM   21  C15 UNL     1      22.252   3.415  51.080  1.00  0.00     0.056 A 
ENDBRANCH  12  14
ENDBRANCH   9  12
BRANCH  11  22
HETATM   22  N4  UNL     1      25.704   1.481  52.542  1.00  0.00    -0.255 N 
BRANCH  22  23
HETATM   23  C18 UNL     1      26.283   1.885  51.318  1.00  0.00     0.116 C 
HETATM   24  C19 UNL     1      26.363   2.717  50.308  1.00  0.00     0.022 C 
BRANCH  24  25
HETATM   25  C20 UNL     1      25.754   3.961  49.787  1.00  0.00     0.298 C 
BRANCH  25  26
HETATM   26  N5  UNL     1      26.736   5.024  49.846  1.00  0.00     0.082 N 
HETATM   27  C21 UNL     1      27.553   4.951  48.655  1.00  0.00     0.307 C 
HETATM   28  H17 UNL     1      26.288   5.965  49.935  1.00  0.00     0.315 HD
ENDBRANCH  25  26
ENDBRANCH  24  25
ENDBRANCH  22  23
BRANCH  22  29
HETATM   29  O2  UNL     1      25.548   2.272  53.625  1.00  0.00    -0.282 OA
HETATM   30  C22 UNL     1      24.657   3.302  53.392  1.00  0.00     0.238 C 
ENDBRANCH  22  29
ENDBRANCH  11  22
BRANCH   1  31
HETATM   31  O1  UNL     1      27.242  -0.696  54.205  1.00  0.00    -0.353 OA
BRANCH  31  32
HETATM   32  C2  UNL     1      27.946   0.259  54.973  1.00  0.00     0.171 C 
HETATM   33  C1  UNL     1      28.999   0.994  54.191  1.00  0.00     0.034 C 
ENDBRANCH  31  32
ENDBRANCH   1  31
TORSDOF 9
ENDMDL
MODEL 6
REMARK VINA RESULT:      -7.2      2.803      5.650
REMARK  9 active torsions:
REMARK  status: ('A' for Active; 'I' for Inactive)
REMARK    1  A    between atoms: C2_2  and  O1_3 
REMARK    2  A    between atoms: O1_3  and  C3_4 
REMARK    3  A    between atoms: C9_12  and  N3_13 
REMARK    4  A    between atoms: N3_13  and  C10_14 
REMARK    5  A    between atoms: C17_23  and  N4_24 
REMARK    6  A    between atoms: N4_24  and  C18_25 
REMARK    7  A    between atoms: N4_24  and  O2_30 
REMARK    8  A    between atoms: C19_26  and  C20_27 
REMARK    9  A    between atoms: C20_27  and  N5_28 
ROOT
HETATM    1  C3  UNL     1      21.077   0.393  53.417  1.00  0.00     0.078 A 
HETATM    2  C4  UNL     1      21.939  -0.604  53.693  1.00  0.00     0.067 A 
HETATM    3  C5  UNL     1      23.314  -0.146  53.451  1.00  0.00     0.070 A 
HETATM    4  N1  UNL     1      24.521  -0.726  53.579  1.00  0.00    -0.259 NA
HETATM    5  C6  UNL     1      25.683  -0.107  53.317  1.00  0.00     0.142 A 
HETATM    6  C7  UNL     1      25.586   1.200  52.893  1.00  0.00     0.089 A 
HETATM    7  C8  UNL     1      26.863   1.843  52.618  1.00  0.00     0.103 C 
HETATM    8  N2  UNL     1      27.872   2.370  52.397  1.00  0.00    -0.191 NA
HETATM    9  C9  UNL     1      24.381   1.858  52.737  1.00  0.00     0.066 A 
HETATM   10  C16 UNL     1      23.218   1.162  53.024  1.00  0.00     0.030 A 
HETATM   11  C17 UNL     1      21.834   1.605  52.955  1.00  0.00     0.208 A 
ENDROOT
BRANCH   9  12
HETATM   12  N3  UNL     1      24.501   3.201  52.312  1.00  0.00    -0.354 N 
HETATM   13  H8  UNL     1      24.849   3.566  53.232  1.00  0.00     0.166 HD
BRANCH  12  14
HETATM   14  C10 UNL     1      24.328   4.071  51.203  1.00  0.00     0.034 A 
HETATM   15  C11 UNL     1      24.492   3.533  49.946  1.00  0.00     0.032 A 
HETATM   16  C12 UNL     1      24.311   4.389  48.899  1.00  0.00     0.046 A 
HETATM   17  C13 UNL     1      23.983   5.713  49.068  1.00  0.00     0.138 A 
HETATM   18  F1  UNL     1      23.819   6.522  47.988  1.00  0.00    -0.204 F 
HETATM   19  C14 UNL     1      23.812   6.278  50.312  1.00  0.00     0.074 A 
HETATM   20 CL1  UNL     1      23.397   7.951  50.602  1.00  0.00    -0.081 Cl
HETATM   21  C15 UNL     1      23.998   5.399  51.358  1.00  0.00     0.056 A 
ENDBRANCH  12  14
ENDBRANCH   9  12
BRANCH  11  22
HETATM   22  N4  UNL     1      21.379   2.050  51.662  1.00  0.00    -0.255 N 
BRANCH  22  23
HETATM   23  C18 UNL     1      21.547   1.245  50.513  1.00  0.00     0.116 C 
HETATM   24  C19 UNL     1      21.592   1.103  49.210  1.00  0.00     0.022 C 
BRANCH  24  25
HETATM   25  C20 UNL     1      21.458   1.882  47.960  1.00  0.00     0.298 C 
BRANCH  25  26
HETATM   26  N5  UNL     1      20.982   3.212  48.286  1.00  0.00     0.082 N 
HETATM   27  C21 UNL     1      19.600   3.310  47.871  1.00  0.00     0.307 C 
HETATM   28  H17 UNL     1      21.082   3.423  49.305  1.00  0.00     0.315 HD
ENDBRANCH  25  26
ENDBRANCH  24  25
ENDBRANCH  22  23
BRANCH  22  29
HETATM   29  O2  UNL     1      20.816   3.277  51.675  1.00  0.00    -0.282 OA
HETATM   30  C22 UNL     1      19.436   3.216  51.642  1.00  0.00     0.238 C 
ENDBRANCH  22  29
ENDBRANCH  11  22
BRANCH   1  31
HETATM   31  O1  UNL     1      19.716   0.195  53.576  1.00  0.00    -0.353 OA
BRANCH  31  32
HETATM   32  C2  UNL     1      19.011  -0.668  52.705  1.00  0.00     0.171 C 
HETATM   33  C1  UNL     1      18.177  -1.691  53.427  1.00  0.00     0.034 C 
ENDBRANCH  31  32
ENDBRANCH   1  31
TORSDOF 9
ENDMDL
MODEL 7
REMARK VINA RESULT:      -7.1      1.670      2.222
REMARK  9 active torsions:
REMARK  status: ('A' for Active; 'I' for Inactive)
REMARK    1  A    between atoms: C2_2  and  O1_3 
REMARK    2  A    between atoms: O1_3  and  C3_4 
REMARK    3  A    between atoms: C9_12  and  N3_13 
REMARK    4  A    between atoms: N3_13  and  C10_14 
REMARK    5  A    between atoms: C17_23  and  N4_24 
REMARK    6  A    between atoms: N4_24  and  C18_25 
REMARK    7  A    between atoms: N4_24  and  O2_30 
REMARK    8  A    between atoms: C19_26  and  C20_27 
REMARK    9  A    between atoms: C20_27  and  N5_28 
ROOT
HETATM    1  C3  UNL     1      25.379   0.641  52.733  1.00  0.00     0.078 A 
HETATM    2  C4  UNL     1      24.822   0.017  53.789  1.00  0.00     0.067 A 
HETATM    3  C5  UNL     1      23.367  -0.071  53.597  1.00  0.00     0.070 A 
HETATM    4  N1  UNL     1      22.365  -0.595  54.325  1.00  0.00    -0.259 NA
HETATM    5  C6  UNL     1      21.078  -0.586  53.946  1.00  0.00     0.142 A 
HETATM    6  C7  UNL     1      20.811   0.009  52.733  1.00  0.00     0.089 A 
HETATM    7  C8  UNL     1      19.407   0.002  52.351  1.00  0.00     0.103 C 
HETATM    8  N2  UNL     1      18.292   0.003  52.032  1.00  0.00    -0.191 NA
HETATM    9  C9  UNL     1      21.790   0.570  51.934  1.00  0.00     0.066 A 
HETATM   10  C16 UNL     1      23.100   0.526  52.383  1.00  0.00     0.030 A 
HETATM   11  C17 UNL     1      24.311   1.026  51.750  1.00  0.00     0.208 A 
ENDROOT
BRANCH   9  12
HETATM   12  N3  UNL     1      21.310   1.109  50.719  1.00  0.00    -0.354 N 
HETATM   13  H8  UNL     1      20.439   0.525  50.686  1.00  0.00     0.166 HD
BRANCH  12  14
HETATM   14  C10 UNL     1      21.594   2.049  49.693  1.00  0.00     0.034 A 
HETATM   15  C11 UNL     1      22.196   1.575  48.549  1.00  0.00     0.032 A 
HETATM   16  C12 UNL     1      22.450   2.498  47.577  1.00  0.00     0.046 A 
HETATM   17  C13 UNL     1      22.131   3.829  47.713  1.00  0.00     0.138 A 
HETATM   18  F1  UNL     1      22.411   4.706  46.713  1.00  0.00    -0.204 F 
HETATM   19  C14 UNL     1      21.529   4.331  48.844  1.00  0.00     0.074 A 
HETATM   20 CL1  UNL     1      21.097   6.008  49.086  1.00  0.00    -0.081 Cl
HETATM   21  C15 UNL     1      21.280   3.385  49.816  1.00  0.00     0.056 A 
ENDBRANCH  12  14
ENDBRANCH   9  12
BRANCH  11  22
HETATM   22  N4  UNL     1      24.337   2.439  51.470  1.00  0.00    -0.255 N 
BRANCH  22  23
HETATM   23  C18 UNL     1      23.815   3.375  52.390  1.00  0.00     0.116 C 
HETATM   24  C19 UNL     1      23.368   4.575  52.675  1.00  0.00     0.022 C 
BRANCH  24  25
HETATM   25  C20 UNL     1      23.115   5.891  52.048  1.00  0.00     0.298 C 
BRANCH  25  26
HETATM   26  N5  UNL     1      24.356   6.638  52.010  1.00  0.00     0.082 N 
HETATM   27  C21 UNL     1      24.579   7.074  50.650  1.00  0.00     0.307 C 
HETATM   28  H17 UNL     1      24.342   7.453  52.666  1.00  0.00     0.315 HD
ENDBRANCH  25  26
ENDBRANCH  24  25
ENDBRANCH  22  23
BRANCH  22  29
HETATM   29  O2  UNL     1      24.878   2.747  50.272  1.00  0.00    -0.282 OA
HETATM   30  C22 UNL     1      26.059   3.453  50.400  1.00  0.00     0.238 C 
ENDBRANCH  22  29
ENDBRANCH  11  22
BRANCH   1  31
HETATM   31  O1  UNL     1      26.749   0.837  52.689  1.00  0.00    -0.353 OA
BRANCH  31  32
HETATM   32  C2  UNL     1      27.440   1.320  53.824  1.00  0.00     0.171 C 
HETATM   33  C1  UNL     1      28.483   2.352  53.492  1.00  0.00     0.034 C 
ENDBRANCH  31  32
ENDBRANCH   1  31
TORSDOF 9
ENDMDL
MODEL 8
REMARK VINA RESULT:      -7.1      2.329      3.534
REMARK  9 active torsions:
REMARK  status: ('A' for Active; 'I' for Inactive)
REMARK    1  A    between atoms: C2_2  and  O1_3 
REMARK    2  A    between atoms: O1_3  and  C3_4 
REMARK    3  A    between atoms: C9_12  and  N3_13 
REMARK    4  A    between atoms: N3_13  and  C10_14 
REMARK    5  A    between atoms: C17_23  and  N4_24 
REMARK    6  A    between atoms: N4_24  and  C18_25 
REMARK    7  A    between atoms: N4_24  and  O2_30 
REMARK    8  A    between atoms: C19_26  and  C20_27 
REMARK    9  A    between atoms: C20_27  and  N5_28 
ROOT
HETATM    1  C3  UNL     1      23.605   0.140  53.331  1.00  0.00     0.078 A 
HETATM    2  C4  UNL     1      22.607  -0.315  54.112  1.00  0.00     0.067 A 
HETATM    3  C5  UNL     1      21.333  -0.225  53.385  1.00  0.00     0.070 A 
HETATM    4  N1  UNL     1      20.065  -0.551  53.692  1.00  0.00    -0.259 NA
HETATM    5  C6  UNL     1      19.028  -0.402  52.852  1.00  0.00     0.142 A 
HETATM    6  C7  UNL     1      19.326   0.121  51.614  1.00  0.00     0.089 A 
HETATM    7  C8  UNL     1      18.181   0.270  50.728  1.00  0.00     0.103 C 
HETATM    8  N2  UNL     1      17.278   0.393  50.009  1.00  0.00    -0.191 NA
HETATM    9  C9  UNL     1      20.605   0.480  51.231  1.00  0.00     0.066 A 
HETATM   10  C16 UNL     1      21.631   0.301  52.145  1.00  0.00     0.030 A 
HETATM   11  C17 UNL     1      23.052   0.582  52.007  1.00  0.00     0.208 A 
ENDROOT
BRANCH   9  12
HETATM   12  N3  UNL     1      20.700   0.978  49.912  1.00  0.00    -0.354 N 
HETATM   13  H8  UNL     1      20.229   0.156  49.461  1.00  0.00     0.166 HD
BRANCH  12  14
HETATM   14  C10 UNL     1      21.160   2.071  49.132  1.00  0.00     0.034 A 
HETATM   15  C11 UNL     1      21.851   1.778  47.978  1.00  0.00     0.032 A 
HETATM   16  C12 UNL     1      22.274   2.848  47.243  1.00  0.00     0.046 A 
HETATM   17  C13 UNL     1      22.034   4.149  47.617  1.00  0.00     0.138 A 
HETATM   18  F1  UNL     1      22.483   5.176  46.849  1.00  0.00    -0.204 F 
HETATM   19  C14 UNL     1      21.346   4.472  48.764  1.00  0.00     0.074 A 
HETATM   20 CL1  UNL     1      21.005   6.100  49.302  1.00  0.00    -0.081 Cl
HETATM   21  C15 UNL     1      20.926   3.379  49.494  1.00  0.00     0.056 A 
ENDBRANCH  12  14
ENDBRANCH   9  12
BRANCH  11  22
HETATM   22  N4  UNL     1      23.397   1.951  51.721  1.00  0.00    -0.255 N 
BRANCH  22  23
HETATM   23  C18 UNL     1      24.331   2.272  50.710  1.00  0.00     0.116 C 
HETATM   24  C19 UNL     1      24.948   3.152  49.958  1.00  0.00     0.022 C 
BRANCH  24  25
HETATM   25  C20 UNL     1      25.013   4.608  49.702  1.00  0.00     0.298 C 
BRANCH  25  26
HETATM   26  N5  UNL     1      26.356   5.073  49.988  1.00  0.00     0.082 N 
HETATM   27  C21 UNL     1      27.225   4.625  48.923  1.00  0.00     0.307 C 
HETATM   28  H17 UNL     1      26.394   6.114  50.089  1.00  0.00     0.315 HD
ENDBRANCH  25  26
ENDBRANCH  24  25
ENDBRANCH  22  23
BRANCH  22  29
HETATM   29  O2  UNL     1      22.768   2.848  52.510  1.00  0.00    -0.282 OA
HETATM   30  C22 UNL     1      23.649   3.743  53.085  1.00  0.00     0.238 C 
ENDBRANCH  22  29
ENDBRANCH  11  22
BRANCH   1  31
HETATM   31  O1  UNL     1      24.906   0.149  53.805  1.00  0.00    -0.353 OA
BRANCH  31  32
HETATM   32  C2  UNL     1      25.868  -0.742  53.274  1.00  0.00     0.171 C 
HETATM   33  C1  UNL     1      26.754  -0.111  52.235  1.00  0.00     0.034 C 
ENDBRANCH  31  32
ENDBRANCH   1  31
TORSDOF 9
ENDMDL
MODEL 9
REMARK VINA RESULT:      -7.1      2.066      3.365
REMARK  9 active torsions:
REMARK  status: ('A' for Active; 'I' for Inactive)
REMARK    1  A    between atoms: C2_2  and  O1_3 
REMARK    2  A    between atoms: O1_3  and  C3_4 
REMARK    3  A    between atoms: C9_12  and  N3_13 
REMARK    4  A    between atoms: N3_13  and  C10_14 
REMARK    5  A    between atoms: C17_23  and  N4_24 
REMARK    6  A    between atoms: N4_24  and  C18_25 
REMARK    7  A    between atoms: N4_24  and  O2_30 
REMARK    8  A    between atoms: C19_26  and  C20_27 
REMARK    9  A    between atoms: C20_27  and  N5_28 
ROOT
HETATM    1  C3  UNL     1      26.361   2.792  51.072  1.00  0.00     0.078 A 
HETATM    2  C4  UNL     1      26.881   1.871  51.905  1.00  0.00     0.067 A 
HETATM    3  C5  UNL     1      25.799   1.062  52.482  1.00  0.00     0.070 A 
HETATM    4  N1  UNL     1      25.771   0.026  53.339  1.00  0.00    -0.259 NA
HETATM    5  C6  UNL     1      24.647  -0.597  53.728  1.00  0.00     0.142 A 
HETATM    6  C7  UNL     1      23.474  -0.111  53.193  1.00  0.00     0.089 A 
HETATM    7  C8  UNL     1      22.275  -0.808  53.634  1.00  0.00     0.103 C 
HETATM    8  N2  UNL     1      21.309  -1.353  53.974  1.00  0.00    -0.191 NA
HETATM    9  C9  UNL     1      23.428   0.950  52.309  1.00  0.00     0.066 A 
HETATM   10  C16 UNL     1      24.624   1.549  51.947  1.00  0.00     0.030 A 
HETATM   11  C17 UNL     1      24.865   2.662  51.043  1.00  0.00     0.208 A 
ENDROOT
BRANCH   9  12
HETATM   12  N3  UNL     1      22.128   1.278  51.861  1.00  0.00    -0.354 N 
HETATM   13  H8  UNL     1      21.657   1.100  52.782  1.00  0.00     0.166 HD
BRANCH  12  14
HETATM   14  C10 UNL     1      21.381   1.709  50.733  1.00  0.00     0.034 A 
HETATM   15  C11 UNL     1      21.795   1.270  49.495  1.00  0.00     0.032 A 
HETATM   16  C12 UNL     1      21.054   1.692  48.430  1.00  0.00     0.046 A 
HETATM   17  C13 UNL     1      19.955   2.508  48.564  1.00  0.00     0.138 A 
HETATM   18  F1  UNL     1      19.256   2.901  47.467  1.00  0.00    -0.204 F 
HETATM   19  C14 UNL     1      19.518   2.961  49.788  1.00  0.00     0.074 A 
HETATM   20 CL1  UNL     1      18.132   3.999  50.033  1.00  0.00    -0.081 Cl
HETATM   21  C15 UNL     1      20.277   2.525  50.853  1.00  0.00     0.056 A 
ENDBRANCH  12  14
ENDBRANCH   9  12
BRANCH  11  22
HETATM   22  N4  UNL     1      24.221   3.904  51.388  1.00  0.00    -0.255 N 
BRANCH  22  23
HETATM   23  C18 UNL     1      24.029   4.919  50.424  1.00  0.00     0.116 C 
HETATM   24  C19 UNL     1      24.136   6.168  50.037  1.00  0.00     0.022 C 
BRANCH  24  25
HETATM   25  C20 UNL     1      24.624   7.483  50.508  1.00  0.00     0.298 C 
BRANCH  25  26
HETATM   26  N5  UNL     1      26.049   7.393  50.753  1.00  0.00     0.082 N 
HETATM   27  C21 UNL     1      26.693   8.498  50.080  1.00  0.00     0.307 C 
HETATM   28  H17 UNL     1      26.271   7.397  51.776  1.00  0.00     0.315 HD
ENDBRANCH  25  26
ENDBRANCH  24  25
ENDBRANCH  22  23
BRANCH  22  29
HETATM   29  O2  UNL     1      23.857   3.987  52.685  1.00  0.00    -0.282 OA
HETATM   30  C22 UNL     1      22.674   4.682  52.850  1.00  0.00     0.238 C 
ENDBRANCH  22  29
ENDBRANCH  11  22
BRANCH   1  31
HETATM   31  O1  UNL     1      27.195   3.673  50.405  1.00  0.00    -0.353 OA
BRANCH  31  32
HETATM   32  C2  UNL     1      26.989   3.957  49.035  1.00  0.00     0.171 C 
HETATM   33  C1  UNL     1      27.836   5.092  48.528  1.00  0.00     0.034 C 
ENDBRANCH  31  32
ENDBRANCH   1  31
TORSDOF 9
ENDMDL
