MODEL 1
REMARK VINA RESULT:      -8.4      0.000      0.000
REMARK  0 active torsions:
REMARK  status: ('A' for Active; 'I' for Inactive)
ROOT
HETATM    1  C1  UNL     1      18.169  -0.142  50.343  1.00  0.00     0.071 C 
HETATM    2  C2  UNL     1      19.380   0.375  51.204  1.00  0.00     0.264 C 
HETATM    3  O1  UNL     1      19.021   0.437  52.471  1.00  0.00    -0.358 OA
HETATM    4  C3  UNL     1      19.408  -0.363  53.458  1.00  0.00     0.198 C 
HETATM    5  C4  UNL     1      20.771  -0.555  53.851  1.00  0.00    -0.001 C 
HETATM    6  C5  UNL     1      22.077  -0.621  54.089  1.00  0.00     0.001 C 
HETATM    7  C6  UNL     1      22.875   0.166  53.257  1.00  0.00     0.044 C 
HETATM    8  C7  UNL     1      23.673   0.867  52.527  1.00  0.00     0.139 C 
HETATM    9  F1  UNL     1      24.545   0.229  53.394  1.00  0.00    -0.204 F 
HETATM   10  C8  UNL     1      24.361   1.720  51.648  1.00  0.00     0.108 C 
HETATM   11  C9  UNL     1      25.694   1.954  51.376  1.00  0.00     0.104 C 
HETATM   12  N1  UNL     1      26.792   2.137  51.135  1.00  0.00    -0.191 NA
HETATM   13  C10 UNL     1      23.489   2.431  50.983  1.00  0.00     0.071 C 
HETATM   14  C11 UNL     1      23.496   3.451  49.948  1.00  0.00     0.193 C 
HETATM   15  N2  UNL     1      22.753   2.686  48.837  1.00  0.00    -0.380 N 
HETATM   16  C12 UNL     1      21.861   1.496  49.220  1.00  0.00     0.141 C 
HETATM   17  C13 UNL     1      21.054   1.780  50.280  1.00  0.00     0.166 C 
HETATM   18  O2  UNL     1      19.722   1.625  50.539  1.00  0.00    -0.303 OA
HETATM   19  N3  UNL     1      22.065   2.352  51.239  1.00  0.00    -0.301 N 
HETATM   20  C14 UNL     1      21.233   3.072  52.183  1.00  0.00     0.102 C 
HETATM   21  C15 UNL     1      21.498   4.428  52.333  1.00  0.00     0.057 C 
HETATM   22  C16 UNL     1      22.146   5.302  51.287  1.00  0.00     0.101 C 
HETATM   23  C17 UNL     1      22.881   4.738  50.262  1.00  0.00     0.108 C 
HETATM   24  O3  UNL     1      23.079   5.689  49.250  1.00  0.00    -0.348 OA
HETATM   25  C18 UNL     1      23.137   7.073  49.520  1.00  0.00     0.202 C 
HETATM   26  C19 UNL     1      21.803   7.429  50.208  1.00  0.00     0.202 C 
HETATM   27  O4  UNL     1      21.922   6.688  51.457  1.00  0.00    -0.346 OA
HETATM   28  H11 UNL     1      22.710   2.768  47.766  1.00  0.00     0.160 HD
ENDROOT
TORSDOF 0
ENDMDL
MODEL 2
REMARK VINA RESULT:      -8.4      2.636      4.613
REMARK  0 active torsions:
REMARK  status: ('A' for Active; 'I' for Inactive)
ROOT
HETATM    1  C1  UNL     1      26.336   2.422  53.734  1.00  0.00     0.071 C 
HETATM    2  C2  UNL     1      24.986   1.988  53.053  1.00  0.00     0.264 C 
HETATM    3  O1  UNL     1      25.112   0.769  52.567  1.00  0.00    -0.358 OA
HETATM    4  C3  UNL     1      24.565  -0.345  53.036  1.00  0.00     0.198 C 
HETATM    5  C4  UNL     1      23.156  -0.549  53.185  1.00  0.00    -0.001 C 
HETATM    6  C5  UNL     1      21.828  -0.576  53.260  1.00  0.00     0.001 C 
HETATM    7  C6  UNL     1      21.183   0.587  52.834  1.00  0.00     0.044 C 
HETATM    8  C7  UNL     1      20.522   1.626  52.456  1.00  0.00     0.139 C 
HETATM    9  F1  UNL     1      19.515   0.756  52.844  1.00  0.00    -0.204 F 
HETATM   10  C8  UNL     1      19.992   2.835  51.975  1.00  0.00     0.108 C 
HETATM   11  C9  UNL     1      18.727   3.385  51.930  1.00  0.00     0.104 C 
HETATM   12  N1  UNL     1      17.687   3.850  51.908  1.00  0.00    -0.191 NA
HETATM   13  C10 UNL     1      20.962   3.541  51.455  1.00  0.00     0.071 C 
HETATM   14  C11 UNL     1      21.129   4.837  50.820  1.00  0.00     0.193 C 
HETATM   15  N2  UNL     1      22.066   5.500  51.846  1.00  0.00    -0.380 N 
HETATM   16  C12 UNL     1      22.887   4.611  52.789  1.00  0.00     0.141 C 
HETATM   17  C13 UNL     1      23.490   3.582  52.130  1.00  0.00     0.166 C 
HETATM   18  O2  UNL     1      24.756   3.070  52.105  1.00  0.00    -0.303 OA
HETATM   19  N3  UNL     1      22.318   3.042  51.352  1.00  0.00    -0.301 N 
HETATM   20  C14 UNL     1      22.961   2.259  50.316  1.00  0.00     0.102 C 
HETATM   21  C15 UNL     1      22.659   2.603  49.003  1.00  0.00     0.057 C 
HETATM   22  C16 UNL     1      22.199   3.968  48.553  1.00  0.00     0.101 C 
HETATM   23  C17 UNL     1      21.664   4.861  49.461  1.00  0.00     0.108 C 
HETATM   24  O3  UNL     1      21.640   6.144  48.896  1.00  0.00    -0.348 OA
HETATM   25  C18 UNL     1      21.521   6.352  47.505  1.00  0.00     0.202 C 
HETATM   26  C19 UNL     1      22.707   5.606  46.860  1.00  0.00     0.202 C 
HETATM   27  O4  UNL     1      22.376   4.222  47.173  1.00  0.00    -0.346 OA
HETATM   28  H11 UNL     1      22.298   6.518  52.105  1.00  0.00     0.160 HD
ENDROOT
TORSDOF 0
ENDMDL
MODEL 3
REMARK VINA RESULT:      -8.2      3.099      6.513
REMARK  0 active torsions:
REMARK  status: ('A' for Active; 'I' for Inactive)
ROOT
HETATM    1  C1  UNL     1      26.043   9.554  50.065  1.00  0.00     0.071 C 
HETATM    2  C2  UNL     1      25.876   8.051  49.631  1.00  0.00     0.264 C 
HETATM    3  O1  UNL     1      26.294   7.905  48.389  1.00  0.00    -0.358 OA
HETATM    4  C3  UNL     1      27.401   7.300  47.978  1.00  0.00     0.198 C 
HETATM    5  C4  UNL     1      27.716   5.929  48.246  1.00  0.00    -0.001 C 
HETATM    6  C5  UNL     1      27.858   4.651  48.582  1.00  0.00     0.001 C 
HETATM    7  C6  UNL     1      26.812   4.113  49.334  1.00  0.00     0.044 C 
HETATM    8  C7  UNL     1      25.883   3.550  50.028  1.00  0.00     0.139 C 
HETATM    9  F1  UNL     1      26.793   2.519  49.855  1.00  0.00    -0.204 F 
HETATM   10  C8  UNL     1      24.759   3.121  50.753  1.00  0.00     0.108 C 
HETATM   11  C9  UNL     1      24.431   1.963  51.430  1.00  0.00     0.104 C 
HETATM   12  N1  UNL     1      24.164   1.016  52.005  1.00  0.00    -0.191 NA
HETATM   13  C10 UNL     1      23.857   4.066  50.729  1.00  0.00     0.071 C 
HETATM   14  C11 UNL     1      22.525   4.297  51.261  1.00  0.00     0.193 C 
HETATM   15  N2  UNL     1      22.825   5.497  52.178  1.00  0.00    -0.380 N 
HETATM   16  C12 UNL     1      24.078   6.343  51.912  1.00  0.00     0.141 C 
HETATM   17  C13 UNL     1      24.216   6.655  50.593  1.00  0.00     0.166 C 
HETATM   18  O2  UNL     1      24.466   7.805  49.900  1.00  0.00    -0.303 OA
HETATM   19  N3  UNL     1      24.036   5.292  49.978  1.00  0.00    -0.301 N 
HETATM   20  C14 UNL     1      23.726   5.606  48.597  1.00  0.00     0.102 C 
HETATM   21  C15 UNL     1      22.522   5.116  48.105  1.00  0.00     0.057 C 
HETATM   22  C16 UNL     1      21.317   4.783  48.950  1.00  0.00     0.101 C 
HETATM   23  C17 UNL     1      21.452   4.564  50.307  1.00  0.00     0.108 C 
HETATM   24  O3  UNL     1      20.191   4.621  50.918  1.00  0.00    -0.348 OA
HETATM   25  C18 UNL     1      19.007   4.273  50.232  1.00  0.00     0.202 C 
HETATM   26  C19 UNL     1      18.943   5.194  48.998  1.00  0.00     0.202 C 
HETATM   27  O4  UNL     1      20.096   4.730  48.238  1.00  0.00    -0.346 OA
HETATM   28  H11 UNL     1      22.349   5.920  53.045  1.00  0.00     0.160 HD
ENDROOT
TORSDOF 0
ENDMDL
MODEL 4
REMARK VINA RESULT:      -8.2      1.924      5.839
REMARK  0 active torsions:
REMARK  status: ('A' for Active; 'I' for Inactive)
ROOT
HETATM    1  C1  UNL     1      23.483   8.150  50.428  1.00  0.00     0.071 C 
HETATM    2  C2  UNL     1      23.935   6.680  50.103  1.00  0.00     0.264 C 
HETATM    3  O1  UNL     1      24.364   6.618  48.858  1.00  0.00    -0.358 OA
HETATM    4  C3  UNL     1      25.617   6.481  48.444  1.00  0.00     0.198 C 
HETATM    5  C4  UNL     1      26.464   5.380  48.791  1.00  0.00    -0.001 C 
HETATM    6  C5  UNL     1      27.115   4.297  49.206  1.00  0.00     0.001 C 
HETATM    7  C6  UNL     1      26.384   3.443  50.034  1.00  0.00     0.044 C 
HETATM    8  C7  UNL     1      25.770   2.609  50.802  1.00  0.00     0.139 C 
HETATM    9  F1  UNL     1      27.018   2.023  50.661  1.00  0.00    -0.204 F 
HETATM   10  C8  UNL     1      24.924   1.821  51.599  1.00  0.00     0.108 C 
HETATM   11  C9  UNL     1      25.101   0.686  52.366  1.00  0.00     0.104 C 
HETATM   12  N1  UNL     1      25.246  -0.239  53.013  1.00  0.00    -0.191 NA
HETATM   13  C10 UNL     1      23.716   2.318  51.549  1.00  0.00     0.071 C 
HETATM   14  C11 UNL     1      22.410   2.032  52.118  1.00  0.00     0.193 C 
HETATM   15  N2  UNL     1      22.207   3.319  52.939  1.00  0.00    -0.380 N 
HETATM   16  C12 UNL     1      23.006   4.575  52.565  1.00  0.00     0.141 C 
HETATM   17  C13 UNL     1      22.993   4.812  51.224  1.00  0.00     0.166 C 
HETATM   18  O2  UNL     1      22.748   5.907  50.445  1.00  0.00    -0.303 OA
HETATM   19  N3  UNL     1      23.375   3.448  50.710  1.00  0.00    -0.301 N 
HETATM   20  C14 UNL     1      22.951   3.503  49.324  1.00  0.00     0.102 C 
HETATM   21  C15 UNL     1      22.044   2.532  48.917  1.00  0.00     0.057 C 
HETATM   22  C16 UNL     1      21.086   1.807  49.830  1.00  0.00     0.101 C 
HETATM   23  C17 UNL     1      21.311   1.769  51.192  1.00  0.00     0.108 C 
HETATM   24  O3  UNL     1      20.142   1.359  51.849  1.00  0.00    -0.348 OA
HETATM   25  C18 UNL     1      19.194   0.511  51.237  1.00  0.00     0.202 C 
HETATM   26  C19 UNL     1      18.750   1.229  49.947  1.00  0.00     0.202 C 
HETATM   27  O4  UNL     1      19.984   1.211  49.173  1.00  0.00    -0.346 OA
HETATM   28  H11 UNL     1      21.609   3.580  53.794  1.00  0.00     0.160 HD
ENDROOT
TORSDOF 0
ENDMDL
MODEL 5
REMARK VINA RESULT:      -7.9      6.443      9.669
REMARK  0 active torsions:
REMARK  status: ('A' for Active; 'I' for Inactive)
ROOT
HETATM    1  C1  UNL     1      23.859   6.977  51.207  1.00  0.00     0.071 C 
HETATM    2  C2  UNL     1      24.629   7.160  49.848  1.00  0.00     0.264 C 
HETATM    3  O1  UNL     1      24.218   6.251  48.986  1.00  0.00    -0.358 OA
HETATM    4  C3  UNL     1      23.456   6.441  47.917  1.00  0.00     0.198 C 
HETATM    5  C4  UNL     1      23.792   7.316  46.834  1.00  0.00    -0.001 C 
HETATM    6  C5  UNL     1      24.249   8.164  45.919  1.00  0.00     0.001 C 
HETATM    7  C6  UNL     1      25.482   8.750  46.212  1.00  0.00     0.044 C 
HETATM    8  C7  UNL     1      26.615   9.328  46.417  1.00  0.00     0.139 C 
HETATM    9  F1  UNL     1      26.235   9.843  45.188  1.00  0.00    -0.204 F 
HETATM   10  C8  UNL     1      27.869   9.825  46.812  1.00  0.00     0.108 C 
HETATM   11  C9  UNL     1      28.721  10.794  46.321  1.00  0.00     0.104 C 
HETATM   12  N1  UNL     1      29.419  11.605  45.930  1.00  0.00    -0.191 NA
HETATM   13  C10 UNL     1      28.263   9.175  47.874  1.00  0.00     0.071 C 
HETATM   14  C11 UNL     1      29.400   9.179  48.780  1.00  0.00     0.193 C 
HETATM   15  N2  UNL     1      28.681   9.577  50.082  1.00  0.00    -0.380 N 
HETATM   16  C12 UNL     1      27.168   9.346  50.199  1.00  0.00     0.141 C 
HETATM   17  C13 UNL     1      26.803   8.107  49.766  1.00  0.00     0.166 C 
HETATM   18  O2  UNL     1      26.022   7.107  50.270  1.00  0.00    -0.303 OA
HETATM   19  N3  UNL     1      27.509   8.073  48.435  1.00  0.00    -0.301 N 
HETATM   20  C14 UNL     1      27.538   6.655  48.130  1.00  0.00     0.102 C 
HETATM   21  C15 UNL     1      28.792   6.094  47.918  1.00  0.00     0.057 C 
HETATM   22  C16 UNL     1      30.085   6.635  48.476  1.00  0.00     0.101 C 
HETATM   23  C17 UNL     1      30.168   7.944  48.908  1.00  0.00     0.108 C 
HETATM   24  O3  UNL     1      31.323   8.108  49.686  1.00  0.00    -0.348 OA
HETATM   25  C18 UNL     1      32.481   7.325  49.487  1.00  0.00     0.202 C 
HETATM   26  C19 UNL     1      32.038   5.858  49.655  1.00  0.00     0.202 C 
HETATM   27  O4  UNL     1      31.145   5.699  48.515  1.00  0.00    -0.346 OA
HETATM   28  H11 UNL     1      28.994  10.032  51.005  1.00  0.00     0.160 HD
ENDROOT
TORSDOF 0
ENDMDL
MODEL 6
REMARK VINA RESULT:      -7.7      6.303      8.853
REMARK  0 active torsions:
REMARK  status: ('A' for Active; 'I' for Inactive)
ROOT
HETATM    1  C1  UNL     1      22.843   7.078  46.808  1.00  0.00     0.071 C 
HETATM    2  C2  UNL     1      24.264   7.023  47.480  1.00  0.00     0.264 C 
HETATM    3  O1  UNL     1      24.144   6.611  48.726  1.00  0.00    -0.358 OA
HETATM    4  C3  UNL     1      24.499   5.433  49.223  1.00  0.00     0.198 C 
HETATM    5  C4  UNL     1      25.830   4.907  49.177  1.00  0.00    -0.001 C 
HETATM    6  C5  UNL     1      27.109   4.567  49.050  1.00  0.00     0.001 C 
HETATM    7  C6  UNL     1      27.914   5.505  48.402  1.00  0.00     0.044 C 
HETATM    8  C7  UNL     1      28.716   6.324  47.813  1.00  0.00     0.139 C 
HETATM    9  F1  UNL     1      29.554   5.272  48.144  1.00  0.00    -0.204 F 
HETATM   10  C8  UNL     1      29.423   7.356  47.173  1.00  0.00     0.108 C 
HETATM   11  C9  UNL     1      30.711   7.491  46.693  1.00  0.00     0.104 C 
HETATM   12  N1  UNL     1      31.766   7.601  46.280  1.00  0.00    -0.191 NA
HETATM   13  C10 UNL     1      28.635   8.392  47.050  1.00  0.00     0.071 C 
HETATM   14  C11 UNL     1      28.699   9.733  46.496  1.00  0.00     0.193 C 
HETATM   15  N2  UNL     1      27.629   9.602  45.396  1.00  0.00    -0.380 N 
HETATM   16  C12 UNL     1      26.570   8.498  45.515  1.00  0.00     0.141 C 
HETATM   17  C13 UNL     1      26.034   8.433  46.766  1.00  0.00     0.166 C 
HETATM   18  O2  UNL     1      24.763   8.374  47.262  1.00  0.00    -0.303 OA
HETATM   19  N3  UNL     1      27.292   8.415  47.593  1.00  0.00    -0.301 N 
HETATM   20  C14 UNL     1      26.812   8.795  48.907  1.00  0.00     0.102 C 
HETATM   21  C15 UNL     1      27.395   9.920  49.479  1.00  0.00     0.057 C 
HETATM   22  C16 UNL     1      28.040  11.044  48.706  1.00  0.00     0.101 C 
HETATM   23  C17 UNL     1      28.449  10.852  47.401  1.00  0.00     0.108 C 
HETATM   24  O3  UNL     1      28.685  12.095  46.797  1.00  0.00    -0.348 OA
HETATM   25  C18 UNL     1      29.096  13.225  47.537  1.00  0.00     0.202 C 
HETATM   26  C19 UNL     1      28.009  13.451  48.607  1.00  0.00     0.202 C 
HETATM   27  O4  UNL     1      28.164  12.256  49.425  1.00  0.00    -0.346 OA
HETATM   28  H11 UNL     1      27.429  10.120  44.475  1.00  0.00     0.160 HD
ENDROOT
TORSDOF 0
ENDMDL
MODEL 7
REMARK VINA RESULT:      -7.7      6.617     10.037
REMARK  0 active torsions:
REMARK  status: ('A' for Active; 'I' for Inactive)
ROOT
HETATM    1  C1  UNL     1      30.349  11.860  48.990  1.00  0.00     0.071 C 
HETATM    2  C2  UNL     1      29.992  10.487  48.311  1.00  0.00     0.264 C 
HETATM    3  O1  UNL     1      30.595  10.407  47.142  1.00  0.00    -0.358 OA
HETATM    4  C3  UNL     1      31.629   9.639  46.820  1.00  0.00     0.198 C 
HETATM    5  C4  UNL     1      31.634   8.211  46.921  1.00  0.00    -0.001 C 
HETATM    6  C5  UNL     1      31.475   6.900  47.075  1.00  0.00     0.001 C 
HETATM    7  C6  UNL     1      30.228   6.504  47.564  1.00  0.00     0.044 C 
HETATM    8  C7  UNL     1      29.102   6.066  48.011  1.00  0.00     0.139 C 
HETATM    9  F1  UNL     1      29.823   4.899  47.826  1.00  0.00    -0.204 F 
HETATM   10  C8  UNL     1      27.805   5.796  48.478  1.00  0.00     0.108 C 
HETATM   11  C9  UNL     1      27.153   4.658  48.911  1.00  0.00     0.104 C 
HETATM   12  N1  UNL     1      26.617   3.726  49.286  1.00  0.00    -0.191 NA
HETATM   13  C10 UNL     1      27.111   6.903  48.460  1.00  0.00     0.071 C 
HETATM   14  C11 UNL     1      25.769   7.339  48.807  1.00  0.00     0.193 C 
HETATM   15  N2  UNL     1      26.112   8.333  49.932  1.00  0.00    -0.380 N 
HETATM   16  C12 UNL     1      27.526   8.928  49.996  1.00  0.00     0.141 C 
HETATM   17  C13 UNL     1      27.957   9.359  48.778  1.00  0.00     0.166 C 
HETATM   18  O2  UNL     1      28.535  10.507  48.317  1.00  0.00    -0.303 OA
HETATM   19  N3  UNL     1      27.645   8.146  47.941  1.00  0.00    -0.301 N 
HETATM   20  C14 UNL     1      27.656   8.680  46.593  1.00  0.00     0.102 C 
HETATM   21  C15 UNL     1      26.493   8.512  45.852  1.00  0.00     0.057 C 
HETATM   22  C16 UNL     1      25.113   8.336  46.438  1.00  0.00     0.101 C 
HETATM   23  C17 UNL     1      24.956   7.934  47.750  1.00  0.00     0.108 C 
HETATM   24  O3  UNL     1      23.637   8.177  48.159  1.00  0.00    -0.348 OA
HETATM   25  C18 UNL     1      22.555   8.165  47.253  1.00  0.00     0.202 C 
HETATM   26  C19 UNL     1      22.887   9.221  46.179  1.00  0.00     0.202 C 
HETATM   27  O4  UNL     1      24.054   8.623  45.545  1.00  0.00    -0.346 OA
HETATM   28  H11 UNL     1      25.571   8.738  50.769  1.00  0.00     0.160 HD
ENDROOT
TORSDOF 0
ENDMDL
MODEL 8
REMARK VINA RESULT:      -7.6      2.218      5.551
REMARK  0 active torsions:
REMARK  status: ('A' for Active; 'I' for Inactive)
ROOT
HETATM    1  C1  UNL     1      25.508   7.356  49.896  1.00  0.00     0.071 C 
HETATM    2  C2  UNL     1      25.147   5.826  49.919  1.00  0.00     0.264 C 
HETATM    3  O1  UNL     1      25.949   5.173  49.102  1.00  0.00    -0.358 OA
HETATM    4  C3  UNL     1      26.940   4.354  49.430  1.00  0.00     0.198 C 
HETATM    5  C4  UNL     1      26.779   3.170  50.218  1.00  0.00    -0.001 C 
HETATM    6  C5  UNL     1      26.459   2.112  50.957  1.00  0.00     0.001 C 
HETATM    7  C6  UNL     1      25.109   2.007  51.296  1.00  0.00     0.044 C 
HETATM    8  C7  UNL     1      23.879   1.846  51.645  1.00  0.00     0.139 C 
HETATM    9  F1  UNL     1      24.498   0.747  52.217  1.00  0.00    -0.204 F 
HETATM   10  C8  UNL     1      22.496   1.839  51.893  1.00  0.00     0.108 C 
HETATM   11  C9  UNL     1      21.660   1.068  52.676  1.00  0.00     0.104 C 
HETATM   12  N1  UNL     1      20.969   0.446  53.335  1.00  0.00    -0.191 NA
HETATM   13  C10 UNL     1      21.936   2.783  51.184  1.00  0.00     0.071 C 
HETATM   14  C11 UNL     1      20.605   3.327  50.974  1.00  0.00     0.193 C 
HETATM   15  N2  UNL     1      20.829   4.753  51.509  1.00  0.00    -0.380 N 
HETATM   16  C12 UNL     1      22.259   5.308  51.576  1.00  0.00     0.141 C 
HETATM   17  C13 UNL     1      22.955   5.073  50.428  1.00  0.00     0.166 C 
HETATM   18  O2  UNL     1      23.726   5.838  49.600  1.00  0.00    -0.303 OA
HETATM   19  N3  UNL     1      22.684   3.601  50.251  1.00  0.00    -0.301 N 
HETATM   20  C14 UNL     1      23.005   3.387  48.853  1.00  0.00     0.102 C 
HETATM   21  C15 UNL     1      21.992   2.863  48.059  1.00  0.00     0.057 C 
HETATM   22  C16 UNL     1      20.516   2.997  48.343  1.00  0.00     0.101 C 
HETATM   23  C17 UNL     1      20.072   3.307  49.614  1.00  0.00     0.108 C 
HETATM   24  O3  UNL     1      18.732   3.713  49.555  1.00  0.00    -0.348 OA
HETATM   25  C18 UNL     1      17.846   3.242  48.563  1.00  0.00     0.202 C 
HETATM   26  C19 UNL     1      18.482   3.618  47.210  1.00  0.00     0.202 C 
HETATM   27  O4  UNL     1      19.681   2.790  47.220  1.00  0.00    -0.346 OA
HETATM   28  H11 UNL     1      20.184   5.520  51.900  1.00  0.00     0.160 HD
ENDROOT
TORSDOF 0
ENDMDL
MODEL 9
REMARK VINA RESULT:      -7.2      3.576      6.104
REMARK  0 active torsions:
REMARK  status: ('A' for Active; 'I' for Inactive)
ROOT
HETATM    1  C1  UNL     1      17.940   5.079  48.674  1.00  0.00     0.071 C 
HETATM    2  C2  UNL     1      19.473   5.059  48.321  1.00  0.00     0.264 C 
HETATM    3  O1  UNL     1      19.656   4.391  47.199  1.00  0.00    -0.358 OA
HETATM    4  C3  UNL     1      19.978   4.886  46.011  1.00  0.00     0.198 C 
HETATM    5  C4  UNL     1      21.160   5.649  45.750  1.00  0.00    -0.001 C 
HETATM    6  C5  UNL     1      22.296   6.338  45.678  1.00  0.00     0.001 C 
HETATM    7  C6  UNL     1      23.001   6.451  46.877  1.00  0.00     0.044 C 
HETATM    8  C7  UNL     1      23.706   6.596  47.946  1.00  0.00     0.139 C 
HETATM    9  F1  UNL     1      24.457   7.274  47.000  1.00  0.00    -0.204 F 
HETATM   10  C8  UNL     1      24.333   6.614  49.204  1.00  0.00     0.108 C 
HETATM   11  C9  UNL     1      25.439   7.258  49.721  1.00  0.00     0.104 C 
HETATM   12  N1  UNL     1      26.340   7.801  50.157  1.00  0.00    -0.191 NA
HETATM   13  C10 UNL     1      23.686   5.813  50.008  1.00  0.00     0.071 C 
HETATM   14  C11 UNL     1      23.767   5.381  51.393  1.00  0.00     0.193 C 
HETATM   15  N2  UNL     1      22.423   5.931  51.906  1.00  0.00    -0.380 N 
HETATM   16  C12 UNL     1      21.304   6.225  50.897  1.00  0.00     0.141 C 
HETATM   17  C13 UNL     1      21.139   5.210  50.004  1.00  0.00     0.166 C 
HETATM   18  O2  UNL     1      20.063   4.511  49.534  1.00  0.00    -0.303 OA
HETATM   19  N3  UNL     1      22.566   5.006  49.566  1.00  0.00    -0.301 N 
HETATM   20  C14 UNL     1      22.530   3.683  48.976  1.00  0.00     0.102 C 
HETATM   21  C15 UNL     1      23.394   2.739  49.519  1.00  0.00     0.057 C 
HETATM   22  C16 UNL     1      23.937   2.775  50.926  1.00  0.00     0.101 C 
HETATM   23  C17 UNL     1      23.933   3.953  51.649  1.00  0.00     0.108 C 
HETATM   24  O3  UNL     1      24.150   3.672  53.005  1.00  0.00    -0.348 OA
HETATM   25  C18 UNL     1      24.898   2.552  53.430  1.00  0.00     0.202 C 
HETATM   26  C19 UNL     1      24.197   1.318  52.828  1.00  0.00     0.202 C 
HETATM   27  O4  UNL     1      24.417   1.534  51.404  1.00  0.00    -0.346 OA
HETATM   28  H11 UNL     1      22.042   6.202  52.874  1.00  0.00     0.160 HD
ENDROOT
TORSDOF 0
ENDMDL
