MODEL 1
REMARK VINA RESULT:      -7.6      0.000      0.000
REMARK  3 active torsions:
REMARK  status: ('A' for Active; 'I' for Inactive)
REMARK    1  A    between atoms: O1_2  and  C2_3 
REMARK    2  A    between atoms: C5_6  and  C6_7 
REMARK    3  A    between atoms: C14_18  and  O2_19 
ROOT
HETATM    1  C2  UNL     1      25.926   0.491  52.602  1.00  0.00     0.081 A 
HETATM    2  C3  UNL     1      24.601   0.477  52.562  1.00  0.00     0.051 A 
HETATM    3  C4  UNL     1      24.118  -0.237  53.740  1.00  0.00     0.024 A 
HETATM    4  C5  UNL     1      22.817  -0.497  54.115  1.00  0.00     0.081 A 
HETATM    5  N1  UNL     1      22.669  -1.190  55.275  1.00  0.00    -0.240 NA
HETATM    6  C12 UNL     1      23.716  -1.586  55.993  1.00  0.00     0.234 A 
HETATM    7  N2  UNL     1      24.983  -1.338  55.638  1.00  0.00    -0.242 NA
HETATM    8  C13 UNL     1      25.186  -0.659  54.505  1.00  0.00     0.084 A 
HETATM    9  C14 UNL     1      26.415  -0.224  53.834  1.00  0.00     0.230 A 
ENDROOT
BRANCH   4  10
HETATM   10  C6  UNL     1      21.616  -0.099  53.385  1.00  0.00    -0.005 A 
HETATM   11  C7  UNL     1      21.524   0.942  52.483  1.00  0.00     0.014 A 
HETATM   12  C8  UNL     1      20.344   1.244  51.841  1.00  0.00     0.002 A 
HETATM   13  C9  UNL     1      19.248   0.479  52.118  1.00  0.00     0.019 A 
HETATM   14  C10 UNL     1      19.295  -0.572  53.014  1.00  0.00     0.011 A 
HETATM   15 BR1  UNL     1      17.659  -1.522  53.269  1.00  0.00    -0.051 Br
HETATM   16  C11 UNL     1      20.486  -0.864  53.652  1.00  0.00     0.032 A 
ENDBRANCH   4  10
BRANCH   1  17
HETATM   17  O1  UNL     1      26.748   1.084  51.644  1.00  0.00    -0.357 OA
HETATM   18  C1  UNL     1      26.770   2.486  51.500  1.00  0.00     0.209 C 
ENDBRANCH   1  17
BRANCH   9  19
HETATM   19  O2  UNL     1      27.006   0.792  54.605  1.00  0.00    -0.378 OA
HETATM   20  C15 UNL     1      28.329   0.447  54.780  1.00  0.00     0.203 C 
ENDBRANCH   9  19
TORSDOF 3
ENDMDL
MODEL 2
REMARK VINA RESULT:      -7.4      4.043      6.949
REMARK  3 active torsions:
REMARK  status: ('A' for Active; 'I' for Inactive)
REMARK    1  A    between atoms: O1_2  and  C2_3 
REMARK    2  A    between atoms: C5_6  and  C6_7 
REMARK    3  A    between atoms: C14_18  and  O2_19 
ROOT
HETATM    1  C2  UNL     1      22.982   1.231  52.883  1.00  0.00     0.081 A 
HETATM    2  C3  UNL     1      24.287   1.095  53.074  1.00  0.00     0.051 A 
HETATM    3  C4  UNL     1      24.980   1.863  52.045  1.00  0.00     0.024 A 
HETATM    4  C5  UNL     1      26.336   2.014  51.851  1.00  0.00     0.081 A 
HETATM    5  N1  UNL     1      26.694   2.797  50.799  1.00  0.00    -0.240 NA
HETATM    6  C12 UNL     1      25.788   3.375  50.015  1.00  0.00     0.234 A 
HETATM    7  N2  UNL     1      24.468   3.235  50.195  1.00  0.00    -0.242 NA
HETATM    8  C13 UNL     1      24.061   2.474  51.217  1.00  0.00     0.084 A 
HETATM    9  C14 UNL     1      22.722   2.115  51.693  1.00  0.00     0.230 A 
ENDROOT
BRANCH   4  10
HETATM   10  C6  UNL     1      27.393   1.415  52.662  1.00  0.00    -0.005 A 
HETATM   11  C7  UNL     1      28.228   2.090  53.530  1.00  0.00     0.014 A 
HETATM   12  C8  UNL     1      29.200   1.439  54.257  1.00  0.00     0.002 A 
HETATM   13  C9  UNL     1      29.322   0.089  54.098  1.00  0.00     0.019 A 
HETATM   14  C10 UNL     1      28.508  -0.627  53.241  1.00  0.00     0.011 A 
HETATM   15 BR1  UNL     1      28.835  -2.505  53.157  1.00  0.00    -0.051 Br
HETATM   16  C11 UNL     1      27.537   0.040  52.518  1.00  0.00     0.032 A 
ENDBRANCH   4  10
BRANCH   1  17
HETATM   17  O1  UNL     1      21.993   0.641  53.671  1.00  0.00    -0.357 OA
HETATM   18  C1  UNL     1      22.151  -0.681  54.133  1.00  0.00     0.209 C 
ENDBRANCH   1  17
BRANCH   9  19
HETATM   19  O2  UNL     1      22.124   3.262  52.245  1.00  0.00    -0.378 OA
HETATM   20  C15 UNL     1      20.883   3.391  51.661  1.00  0.00     0.203 C 
ENDBRANCH   9  19
TORSDOF 3
ENDMDL
MODEL 3
REMARK VINA RESULT:      -7.3      1.921      2.294
REMARK  3 active torsions:
REMARK  status: ('A' for Active; 'I' for Inactive)
REMARK    1  A    between atoms: O1_2  and  C2_3 
REMARK    2  A    between atoms: C5_6  and  C6_7 
REMARK    3  A    between atoms: C14_18  and  O2_19 
ROOT
HETATM    1  C2  UNL     1      26.467   1.956  51.951  1.00  0.00     0.081 A 
HETATM    2  C3  UNL     1      25.180   1.637  51.946  1.00  0.00     0.051 A 
HETATM    3  C4  UNL     1      24.942   0.688  53.029  1.00  0.00     0.024 A 
HETATM    4  C5  UNL     1      23.759   0.086  53.401  1.00  0.00     0.081 A 
HETATM    5  N1  UNL     1      23.841  -0.762  54.460  1.00  0.00    -0.240 NA
HETATM    6  C12 UNL     1      24.991  -0.989  55.089  1.00  0.00     0.234 A 
HETATM    7  N2  UNL     1      26.145  -0.409  54.735  1.00  0.00    -0.242 NA
HETATM    8  C13 UNL     1      26.121   0.435  53.699  1.00  0.00     0.084 A 
HETATM    9  C14 UNL     1      27.177   1.226  53.060  1.00  0.00     0.230 A 
ENDROOT
BRANCH   4  10
HETATM   10  C6  UNL     1      22.459   0.280  52.765  1.00  0.00    -0.005 A 
HETATM   11  C7  UNL     1      21.230   0.165  53.383  1.00  0.00     0.014 A 
HETATM   12  C8  UNL     1      20.051   0.367  52.700  1.00  0.00     0.002 A 
HETATM   13  C9  UNL     1      20.124   0.689  51.376  1.00  0.00     0.019 A 
HETATM   14  C10 UNL     1      21.332   0.813  50.717  1.00  0.00     0.011 A 
HETATM   15 BR1  UNL     1      21.227   1.269  48.866  1.00  0.00    -0.051 Br
HETATM   16  C11 UNL     1      22.508   0.608  51.415  1.00  0.00     0.032 A 
ENDBRANCH   4  10
BRANCH   1  17
HETATM   17  O1  UNL     1      27.074   2.841  51.059  1.00  0.00    -0.357 OA
HETATM   18  C1  UNL     1      26.354   3.339  49.955  1.00  0.00     0.209 C 
ENDBRANCH   1  17
BRANCH   9  19
HETATM   19  O2  UNL     1      27.565   2.247  53.945  1.00  0.00    -0.378 OA
HETATM   20  C15 UNL     1      28.941   2.308  53.913  1.00  0.00     0.203 C 
ENDBRANCH   9  19
TORSDOF 3
ENDMDL
MODEL 4
REMARK VINA RESULT:      -7.2      3.992      6.286
REMARK  3 active torsions:
REMARK  status: ('A' for Active; 'I' for Inactive)
REMARK    1  A    between atoms: O1_2  and  C2_3 
REMARK    2  A    between atoms: C5_6  and  C6_7 
REMARK    3  A    between atoms: C14_18  and  O2_19 
ROOT
HETATM    1  C2  UNL     1      27.269   0.966  52.816  1.00  0.00     0.081 A 
HETATM    2  C3  UNL     1      27.108   1.995  51.996  1.00  0.00     0.051 A 
HETATM    3  C4  UNL     1      25.705   2.044  51.597  1.00  0.00     0.024 A 
HETATM    4  C5  UNL     1      25.079   2.940  50.758  1.00  0.00     0.081 A 
HETATM    5  N1  UNL     1      23.748   2.736  50.570  1.00  0.00    -0.240 NA
HETATM    6  C12 UNL     1      23.102   1.734  51.160  1.00  0.00     0.234 A 
HETATM    7  N2  UNL     1      23.701   0.859  51.977  1.00  0.00    -0.242 NA
HETATM    8  C13 UNL     1      25.010   1.014  52.198  1.00  0.00     0.084 A 
HETATM    9  C14 UNL     1      25.958   0.254  53.018  1.00  0.00     0.230 A 
ENDROOT
BRANCH   4  10
HETATM   10  C6  UNL     1      25.714   4.062  50.072  1.00  0.00    -0.005 A 
HETATM   11  C7  UNL     1      26.803   3.984  49.227  1.00  0.00     0.014 A 
HETATM   12  C8  UNL     1      27.335   5.101  48.623  1.00  0.00     0.002 A 
HETATM   13  C9  UNL     1      26.753   6.308  48.880  1.00  0.00     0.019 A 
HETATM   14  C10 UNL     1      25.662   6.433  49.719  1.00  0.00     0.011 A 
HETATM   15 BR1  UNL     1      24.991   8.205  49.953  1.00  0.00    -0.051 Br
HETATM   16  C11 UNL     1      25.139   5.303  50.319  1.00  0.00     0.032 A 
ENDBRANCH   4  10
BRANCH   1  17
HETATM   17  O1  UNL     1      28.478   0.597  53.407  1.00  0.00    -0.357 OA
HETATM   18  C1  UNL     1      28.856  -0.759  53.458  1.00  0.00     0.209 C 
ENDBRANCH   1  17
BRANCH   9  19
HETATM   19  O2  UNL     1      25.654   0.479  54.373  1.00  0.00    -0.378 OA
HETATM   20  C15 UNL     1      25.281  -0.733  54.910  1.00  0.00     0.203 C 
ENDBRANCH   9  19
TORSDOF 3
ENDMDL
MODEL 5
REMARK VINA RESULT:      -7.1      3.516      6.025
REMARK  3 active torsions:
REMARK  status: ('A' for Active; 'I' for Inactive)
REMARK    1  A    between atoms: O1_2  and  C2_3 
REMARK    2  A    between atoms: C5_6  and  C6_7 
REMARK    3  A    between atoms: C14_18  and  O2_19 
ROOT
HETATM    1  C2  UNL     1      22.236   1.744  51.266  1.00  0.00     0.081 A 
HETATM    2  C3  UNL     1      23.392   1.246  51.683  1.00  0.00     0.051 A 
HETATM    3  C4  UNL     1      23.134   0.422  52.860  1.00  0.00     0.024 A 
HETATM    4  C5  UNL     1      24.032  -0.291  53.625  1.00  0.00     0.081 A 
HETATM    5  N1  UNL     1      23.497  -0.974  54.672  1.00  0.00    -0.240 NA
HETATM    6  C12 UNL     1      22.194  -0.949  54.933  1.00  0.00     0.234 A 
HETATM    7  N2  UNL     1      21.313  -0.260  54.196  1.00  0.00    -0.242 NA
HETATM    8  C13 UNL     1      21.785   0.430  53.152  1.00  0.00     0.084 A 
HETATM    9  C14 UNL     1      21.117   1.273  52.157  1.00  0.00     0.230 A 
ENDROOT
BRANCH   4  10
HETATM   10  C6  UNL     1      25.474  -0.369  53.407  1.00  0.00    -0.005 A 
HETATM   11  C7  UNL     1      26.173  -1.490  53.007  1.00  0.00     0.014 A 
HETATM   12  C8  UNL     1      27.538  -1.470  52.827  1.00  0.00     0.002 A 
HETATM   13  C9  UNL     1      28.198  -0.297  53.057  1.00  0.00     0.019 A 
HETATM   14  C10 UNL     1      27.539   0.849  53.460  1.00  0.00     0.011 A 
HETATM   15 BR1  UNL     1      28.636   2.387  53.732  1.00  0.00    -0.051 Br
HETATM   16  C11 UNL     1      26.168   0.813  53.637  1.00  0.00     0.032 A 
ENDBRANCH   4  10
BRANCH   1  17
HETATM   17  O1  UNL     1      22.079   2.583  50.162  1.00  0.00    -0.357 OA
HETATM   18  C1  UNL     1      22.253   2.077  48.859  1.00  0.00     0.209 C 
ENDBRANCH   1  17
BRANCH   9  19
HETATM   19  O2  UNL     1      20.344   0.447  51.322  1.00  0.00    -0.378 OA
HETATM   20  C15 UNL     1      19.087   1.008  51.251  1.00  0.00     0.203 C 
ENDBRANCH   9  19
TORSDOF 3
ENDMDL
MODEL 6
REMARK VINA RESULT:      -6.9      3.887      5.999
REMARK  3 active torsions:
REMARK  status: ('A' for Active; 'I' for Inactive)
REMARK    1  A    between atoms: O1_2  and  C2_3 
REMARK    2  A    between atoms: C5_6  and  C6_7 
REMARK    3  A    between atoms: C14_18  and  O2_19 
ROOT
HETATM    1  C2  UNL     1      24.476   0.257  53.479  1.00  0.00     0.081 A 
HETATM    2  C3  UNL     1      24.738   1.252  52.643  1.00  0.00     0.051 A 
HETATM    3  C4  UNL     1      23.619   1.371  51.713  1.00  0.00     0.024 A 
HETATM    4  C5  UNL     1      23.453   2.264  50.676  1.00  0.00     0.081 A 
HETATM    5  N1  UNL     1      22.296   2.137  49.973  1.00  0.00    -0.240 NA
HETATM    6  C12 UNL     1      21.391   1.210  50.274  1.00  0.00     0.234 A 
HETATM    7  N2  UNL     1      21.542   0.339  51.280  1.00  0.00    -0.242 NA
HETATM    8  C13 UNL     1      22.663   0.420  52.005  1.00  0.00     0.084 A 
HETATM    9  C14 UNL     1      23.142  -0.358  53.151  1.00  0.00     0.230 A 
ENDROOT
BRANCH   4  10
HETATM   10  C6  UNL     1      24.395   3.307  50.281  1.00  0.00    -0.005 A 
HETATM   11  C7  UNL     1      25.618   3.106  49.673  1.00  0.00     0.014 A 
HETATM   12  C8  UNL     1      26.443   4.156  49.336  1.00  0.00     0.002 A 
HETATM   13  C9  UNL     1      26.019   5.422  49.619  1.00  0.00     0.019 A 
HETATM   14  C10 UNL     1      24.803   5.669  50.227  1.00  0.00     0.011 A 
HETATM   15 BR1  UNL     1      24.388   7.506  50.541  1.00  0.00    -0.051 Br
HETATM   16  C11 UNL     1      23.985   4.606  50.560  1.00  0.00     0.032 A 
ENDBRANCH   4  10
BRANCH   1  17
HETATM   17  O1  UNL     1      25.316  -0.160  54.512  1.00  0.00    -0.357 OA
HETATM   18  C1  UNL     1      26.684   0.177  54.492  1.00  0.00     0.209 C 
ENDBRANCH   1  17
BRANCH   9  19
HETATM   19  O2  UNL     1      22.341  -0.047  54.264  1.00  0.00    -0.378 OA
HETATM   20  C15 UNL     1      21.672  -1.199  54.616  1.00  0.00     0.203 C 
ENDBRANCH   9  19
TORSDOF 3
ENDMDL
MODEL 7
REMARK VINA RESULT:      -6.8      1.460      1.829
REMARK  3 active torsions:
REMARK  status: ('A' for Active; 'I' for Inactive)
REMARK    1  A    between atoms: O1_2  and  C2_3 
REMARK    2  A    between atoms: C5_6  and  C6_7 
REMARK    3  A    between atoms: C14_18  and  O2_19 
ROOT
HETATM    1  C2  UNL     1      25.081   1.136  52.118  1.00  0.00     0.081 A 
HETATM    2  C3  UNL     1      23.780   1.369  52.008  1.00  0.00     0.051 A 
HETATM    3  C4  UNL     1      23.087   0.558  53.004  1.00  0.00     0.024 A 
HETATM    4  C5  UNL     1      21.734   0.476  53.256  1.00  0.00     0.081 A 
HETATM    5  N1  UNL     1      21.375  -0.373  54.256  1.00  0.00    -0.240 NA
HETATM    6  C12 UNL     1      22.276  -1.074  54.938  1.00  0.00     0.234 A 
HETATM    7  N2  UNL     1      23.592  -1.001  54.701  1.00  0.00    -0.242 NA
HETATM    8  C13 UNL     1      24.001  -0.180  53.728  1.00  0.00     0.084 A 
HETATM    9  C14 UNL     1      25.337   0.136  53.215  1.00  0.00     0.230 A 
ENDROOT
BRANCH   4  10
HETATM   10  C6  UNL     1      20.683   1.208  52.555  1.00  0.00    -0.005 A 
HETATM   11  C7  UNL     1      20.548   2.580  52.503  1.00  0.00     0.014 A 
HETATM   12  C8  UNL     1      19.520   3.184  51.813  1.00  0.00     0.002 A 
HETATM   13  C9  UNL     1      18.620   2.382  51.172  1.00  0.00     0.019 A 
HETATM   14  C10 UNL     1      18.716   1.004  51.199  1.00  0.00     0.011 A 
HETATM   15 BR1  UNL     1      17.363   0.057  50.241  1.00  0.00    -0.051 Br
HETATM   16  C11 UNL     1      19.754   0.412  51.894  1.00  0.00     0.032 A 
ENDBRANCH   4  10
BRANCH   1  17
HETATM   17  O1  UNL     1      26.068   1.730  51.332  1.00  0.00    -0.357 OA
HETATM   18  C1  UNL     1      25.807   2.944  50.666  1.00  0.00     0.209 C 
ENDBRANCH   1  17
BRANCH   9  19
HETATM   19  O2  UNL     1      26.025   0.875  54.194  1.00  0.00    -0.378 OA
HETATM   20  C15 UNL     1      27.100   0.111  54.594  1.00  0.00     0.203 C 
ENDBRANCH   9  19
TORSDOF 3
ENDMDL
MODEL 8
REMARK VINA RESULT:      -6.8      3.037      4.270
REMARK  3 active torsions:
REMARK  status: ('A' for Active; 'I' for Inactive)
REMARK    1  A    between atoms: O1_2  and  C2_3 
REMARK    2  A    between atoms: C5_6  and  C6_7 
REMARK    3  A    between atoms: C14_18  and  O2_19 
ROOT
HETATM    1  C2  UNL     1      25.747   0.020  54.141  1.00  0.00     0.081 A 
HETATM    2  C3  UNL     1      24.751   0.304  53.314  1.00  0.00     0.051 A 
HETATM    3  C4  UNL     1      25.231   1.280  52.341  1.00  0.00     0.024 A 
HETATM    4  C5  UNL     1      24.546   1.862  51.296  1.00  0.00     0.081 A 
HETATM    5  N1  UNL     1      25.259   2.746  50.548  1.00  0.00    -0.240 NA
HETATM    6  C12 UNL     1      26.532   3.024  50.815  1.00  0.00     0.234 A 
HETATM    7  N2  UNL     1      27.206   2.464  51.827  1.00  0.00    -0.242 NA
HETATM    8  C13 UNL     1      26.552   1.586  52.596  1.00  0.00     0.084 A 
HETATM    9  C14 UNL     1      26.975   0.804  53.761  1.00  0.00     0.230 A 
ENDROOT
BRANCH   4  10
HETATM   10  C6  UNL     1      23.152   1.613  50.937  1.00  0.00    -0.005 A 
HETATM   11  C7  UNL     1      22.266   0.818  51.635  1.00  0.00     0.014 A 
HETATM   12  C8  UNL     1      20.965   0.642  51.218  1.00  0.00     0.002 A 
HETATM   13  C9  UNL     1      20.563   1.280  50.081  1.00  0.00     0.019 A 
HETATM   14  C10 UNL     1      21.417   2.085  49.351  1.00  0.00     0.011 A 
HETATM   15 BR1  UNL     1      20.670   2.891  47.790  1.00  0.00    -0.051 Br
HETATM   16  C11 UNL     1      22.720   2.253  49.781  1.00  0.00     0.032 A 
ENDBRANCH   4  10
BRANCH   1  17
HETATM   17  O1  UNL     1      25.670  -0.876  55.208  1.00  0.00    -0.357 OA
HETATM   18  C1  UNL     1      24.414  -1.282  55.701  1.00  0.00     0.209 C 
ENDBRANCH   1  17
BRANCH   9  19
HETATM   19  O2  UNL     1      27.885  -0.177  53.330  1.00  0.00    -0.378 OA
HETATM   20  C15 UNL     1      29.005  -0.068  54.127  1.00  0.00     0.203 C 
ENDBRANCH   9  19
TORSDOF 3
ENDMDL
MODEL 9
REMARK VINA RESULT:      -6.7      4.162      6.222
REMARK  3 active torsions:
REMARK  status: ('A' for Active; 'I' for Inactive)
REMARK    1  A    between atoms: O1_2  and  C2_3 
REMARK    2  A    between atoms: C5_6  and  C6_7 
REMARK    3  A    between atoms: C14_18  and  O2_19 
ROOT
HETATM    1  C2  UNL     1      21.852   1.123  53.050  1.00  0.00     0.081 A 
HETATM    2  C3  UNL     1      22.560   1.886  52.229  1.00  0.00     0.051 A 
HETATM    3  C4  UNL     1      23.937   1.405  52.235  1.00  0.00     0.024 A 
HETATM    4  C5  UNL     1      25.021   1.890  51.535  1.00  0.00     0.081 A 
HETATM    5  N1  UNL     1      26.194   1.233  51.742  1.00  0.00    -0.240 NA
HETATM    6  C12 UNL     1      26.279   0.193  52.566  1.00  0.00     0.234 A 
HETATM    7  N2  UNL     1      25.232  -0.285  53.250  1.00  0.00    -0.242 NA
HETATM    8  C13 UNL     1      24.054   0.323  53.084  1.00  0.00     0.084 A 
HETATM    9  C14 UNL     1      22.732   0.066  53.664  1.00  0.00     0.230 A 
ENDROOT
BRANCH   4  10
HETATM   10  C6  UNL     1      25.012   3.023  50.614  1.00  0.00    -0.005 A 
HETATM   11  C7  UNL     1      23.892   3.697  50.170  1.00  0.00     0.014 A 
HETATM   12  C8  UNL     1      23.982   4.759  49.297  1.00  0.00     0.002 A 
HETATM   13  C9  UNL     1      25.223   5.138  48.873  1.00  0.00     0.019 A 
HETATM   14  C10 UNL     1      26.370   4.492  49.292  1.00  0.00     0.011 A 
HETATM   15 BR1  UNL     1      28.011   5.169  48.588  1.00  0.00    -0.051 Br
HETATM   16  C11 UNL     1      26.265   3.427  50.168  1.00  0.00     0.032 A 
ENDBRANCH   4  10
BRANCH   1  17
HETATM   17  O1  UNL     1      20.489   1.275  53.308  1.00  0.00    -0.357 OA
HETATM   18  C1  UNL     1      19.537   0.829  52.370  1.00  0.00     0.209 C 
ENDBRANCH   1  17
BRANCH   9  19
HETATM   19  O2  UNL     1      22.240  -1.138  53.131  1.00  0.00    -0.378 OA
HETATM   20  C15 UNL     1      21.641  -1.823  54.166  1.00  0.00     0.203 C 
ENDBRANCH   9  19
TORSDOF 3
ENDMDL
