MODEL 1
REMARK VINA RESULT:      -7.9      0.000      0.000
REMARK  7 active torsions:
REMARK  status: ('A' for Active; 'I' for Inactive)
REMARK    1  A    between atoms: C3_4  and  C4_5 
REMARK    2  A    between atoms: C5_6  and  C6_7 
REMARK    3  A    between atoms: C7_8  and  O2_9 
REMARK    4  A    between atoms: O2_9  and  C8_10 
REMARK    5  A    between atoms: C8_10  and  C9_11 
REMARK    6  A    between atoms: C16_21  and  N4_22 
REMARK    7  A    between atoms: N4_22  and  C17_23 
ROOT
HETATM    1  C4  UNL     1      20.699   0.101  52.485  1.00  0.00     0.025 A 
HETATM    2  C5  UNL     1      22.094   0.048  52.527  1.00  0.00     0.070 A 
HETATM    3  N2  UNL     1      22.669  -0.543  53.580  1.00  0.00    -0.241 NA
HETATM    4  C15 UNL     1      21.967  -1.070  54.566  1.00  0.00     0.235 A 
HETATM    5  N3  UNL     1      20.650  -1.000  54.493  1.00  0.00    -0.224 NA
HETATM    6  C16 UNL     1      19.951  -0.439  53.501  1.00  0.00     0.138 A 
ENDROOT
BRANCH   2   7
HETATM    7  C6  UNL     1      22.901   0.630  51.476  1.00  0.00     0.056 C 
HETATM    8  C7  UNL     1      23.902   1.384  51.861  1.00  0.00     0.137 C 
BRANCH   8   9
HETATM    9  O2  UNL     1      24.844   2.078  51.133  1.00  0.00    -0.363 OA
BRANCH   9  10
HETATM   10  C8  UNL     1      26.241   1.929  51.373  1.00  0.00     0.179 C 
BRANCH  10  11
HETATM   11  C9  UNL     1      26.488   1.361  52.758  1.00  0.00     0.013 C 
HETATM   12  C10 UNL     1      27.407   2.182  53.596  1.00  0.00     0.037 C 
HETATM   13  C11 UNL     1      28.828   1.664  53.575  1.00  0.00     0.272 C 
HETATM   14  N1  UNL     1      28.916   0.312  54.086  1.00  0.00     0.084 N 
HETATM   15  C12 UNL     1      30.068  -0.338  53.477  1.00  0.00     0.309 C 
HETATM   16  C13 UNL     1      27.724  -0.470  53.846  1.00  0.00     0.272 C 
HETATM   17  C14 UNL     1      27.060  -0.037  52.565  1.00  0.00     0.037 C 
ENDBRANCH  10  11
ENDBRANCH   9  10
ENDBRANCH   8   9
ENDBRANCH   2   7
BRANCH   1  18
HETATM   18  C3  UNL     1      19.941   0.685  51.388  1.00  0.00     0.059 A 
HETATM   19  C2  UNL     1      19.192   1.299  50.421  1.00  0.00    -0.019 A 
HETATM   20  O1  UNL     1      18.967   1.952  51.651  1.00  0.00     0.000 OA
HETATM   21  C1  UNL     1      17.883   2.913  51.659  1.00  0.00     0.000 C 
ENDBRANCH   1  18
BRANCH   6  22
HETATM   22  N4  UNL     1      18.576  -0.482  53.778  1.00  0.00    -0.338 N 
HETATM   23  H23 UNL     1      17.700  -0.124  54.129  1.00  0.00     0.167 HD
BRANCH  22  24
HETATM   24  C17 UNL     1      17.786  -1.654  53.462  1.00  0.00     0.072 A 
HETATM   25  C18 UNL     1      17.906  -2.995  53.815  1.00  0.00     0.034 A 
HETATM   26  C19 UNL     1      17.004  -3.946  53.419  1.00  0.00     0.021 A 
HETATM   27  C20 UNL     1      15.927  -3.577  52.637  1.00  0.00     0.014 A 
HETATM   28 BR1  UNL     1      14.757  -4.993  52.164  1.00  0.00    -0.051 Br
HETATM   29  C21 UNL     1      15.754  -2.255  52.253  1.00  0.00     0.063 A 
HETATM   30  C22 UNL     1      16.687  -1.305  52.669  1.00  0.00     0.144 A 
HETATM   31  F1  UNL     1      16.291  -0.100  52.135  1.00  0.00    -0.204 F 
ENDBRANCH  22  24
ENDBRANCH   6  22
TORSDOF 7
ENDMDL
MODEL 2
REMARK VINA RESULT:      -7.7      3.973      9.700
REMARK  7 active torsions:
REMARK  status: ('A' for Active; 'I' for Inactive)
REMARK    1  A    between atoms: C3_4  and  C4_5 
REMARK    2  A    between atoms: C5_6  and  C6_7 
REMARK    3  A    between atoms: C7_8  and  O2_9 
REMARK    4  A    between atoms: O2_9  and  C8_10 
REMARK    5  A    between atoms: C8_10  and  C9_11 
REMARK    6  A    between atoms: C16_21  and  N4_22 
REMARK    7  A    between atoms: N4_22  and  C17_23 
ROOT
HETATM    1  C4  UNL     1      21.621   0.006  52.924  1.00  0.00     0.025 A 
HETATM    2  C5  UNL     1      20.733  -0.760  53.683  1.00  0.00     0.070 A 
HETATM    3  N2  UNL     1      21.217  -1.418  54.741  1.00  0.00    -0.241 NA
HETATM    4  C15 UNL     1      22.491  -1.367  55.085  1.00  0.00     0.235 A 
HETATM    5  N3  UNL     1      23.301  -0.634  54.343  1.00  0.00    -0.224 NA
HETATM    6  C16 UNL     1      22.950   0.071  53.263  1.00  0.00     0.138 A 
ENDROOT
BRANCH   2   7
HETATM    7  C6  UNL     1      19.333  -0.859  53.329  1.00  0.00     0.056 C 
HETATM    8  C7  UNL     1      18.716  -1.955  53.697  1.00  0.00     0.137 C 
BRANCH   8   9
HETATM    9  O2  UNL     1      17.412  -2.362  53.519  1.00  0.00    -0.363 OA
BRANCH   9  10
HETATM   10  C8  UNL     1      17.062  -3.739  53.405  1.00  0.00     0.179 C 
BRANCH  10  11
HETATM   11  C9  UNL     1      15.563  -3.897  53.227  1.00  0.00     0.013 C 
HETATM   12  C10 UNL     1      15.165  -5.145  52.516  1.00  0.00     0.037 C 
HETATM   13  C11 UNL     1      14.905  -4.914  51.044  1.00  0.00     0.272 C 
HETATM   14  N1  UNL     1      13.832  -3.967  50.828  1.00  0.00     0.084 N 
HETATM   15  C12 UNL     1      14.043  -3.315  49.543  1.00  0.00     0.309 C 
HETATM   16  C13 UNL     1      13.724  -2.976  51.874  1.00  0.00     0.272 C 
HETATM   17  C14 UNL     1      15.081  -2.675  52.456  1.00  0.00     0.037 C 
ENDBRANCH  10  11
ENDBRANCH   9  10
ENDBRANCH   8   9
ENDBRANCH   2   7
BRANCH   1  18
HETATM   18  C3  UNL     1      21.228   0.797  51.766  1.00  0.00     0.059 A 
HETATM   19  C2  UNL     1      20.828   1.608  50.740  1.00  0.00    -0.019 A 
HETATM   20  O1  UNL     1      20.539   2.248  51.964  1.00  0.00     0.000 OA
HETATM   21  C1  UNL     1      19.719   3.438  51.868  1.00  0.00     0.000 C 
ENDBRANCH   1  18
BRANCH   6  22
HETATM   22  N4  UNL     1      24.073   0.677  52.679  1.00  0.00    -0.338 N 
HETATM   23  H23 UNL     1      24.555   1.358  52.112  1.00  0.00     0.167 HD
BRANCH  22  24
HETATM   24  C17 UNL     1      25.402   0.137  52.878  1.00  0.00     0.072 A 
HETATM   25  C18 UNL     1      25.996  -1.067  52.512  1.00  0.00     0.034 A 
HETATM   26  C19 UNL     1      27.306  -1.356  52.784  1.00  0.00     0.021 A 
HETATM   27  C20 UNL     1      28.083  -0.428  53.448  1.00  0.00     0.014 A 
HETATM   28 BR1  UNL     1      29.879  -0.958  53.756  1.00  0.00    -0.051 Br
HETATM   29  C21 UNL     1      27.548   0.790  53.840  1.00  0.00     0.063 A 
HETATM   30  C22 UNL     1      26.210   1.061  53.551  1.00  0.00     0.144 A 
HETATM   31  F1  UNL     1      25.939   2.309  54.064  1.00  0.00    -0.204 F 
ENDBRANCH  22  24
ENDBRANCH   6  22
TORSDOF 7
ENDMDL
MODEL 3
REMARK VINA RESULT:      -7.7      4.739      7.016
REMARK  7 active torsions:
REMARK  status: ('A' for Active; 'I' for Inactive)
REMARK    1  A    between atoms: C3_4  and  C4_5 
REMARK    2  A    between atoms: C5_6  and  C6_7 
REMARK    3  A    between atoms: C7_8  and  O2_9 
REMARK    4  A    between atoms: O2_9  and  C8_10 
REMARK    5  A    between atoms: C8_10  and  C9_11 
REMARK    6  A    between atoms: C16_21  and  N4_22 
REMARK    7  A    between atoms: N4_22  and  C17_23 
ROOT
HETATM    1  C4  UNL     1      25.075   1.983  51.807  1.00  0.00     0.025 A 
HETATM    2  C5  UNL     1      25.292   3.119  51.025  1.00  0.00     0.070 A 
HETATM    3  N2  UNL     1      24.382   4.098  51.072  1.00  0.00    -0.241 NA
HETATM    4  C15 UNL     1      23.300   4.022  51.825  1.00  0.00     0.235 A 
HETATM    5  N3  UNL     1      23.128   2.932  52.550  1.00  0.00    -0.224 NA
HETATM    6  C16 UNL     1      23.955   1.884  52.595  1.00  0.00     0.138 A 
ENDROOT
BRANCH   2   7
HETATM    7  C6  UNL     1      26.455   3.234  50.171  1.00  0.00     0.056 C 
HETATM    8  C7  UNL     1      26.604   4.373  49.541  1.00  0.00     0.137 C 
BRANCH   8   9
HETATM    9  O2  UNL     1      27.578   4.802  48.666  1.00  0.00    -0.363 OA
BRANCH   9  10
HETATM   10  C8  UNL     1      27.690   6.168  48.274  1.00  0.00     0.179 C 
BRANCH  10  11
HETATM   11  C9  UNL     1      26.511   6.971  48.792  1.00  0.00     0.013 C 
HETATM   12  C10 UNL     1      25.586   7.448  47.726  1.00  0.00     0.037 C 
HETATM   13  C11 UNL     1      25.860   8.880  47.320  1.00  0.00     0.272 C 
HETATM   14  N1  UNL     1      25.702   9.795  48.431  1.00  0.00     0.084 N 
HETATM   15  C12 UNL     1      26.551  10.955  48.199  1.00  0.00     0.309 C 
HETATM   16  C13 UNL     1      26.015   9.201  49.711  1.00  0.00     0.272 C 
HETATM   17  C14 UNL     1      27.088   8.155  49.557  1.00  0.00     0.037 C 
ENDBRANCH  10  11
ENDBRANCH   9  10
ENDBRANCH   8   9
ENDBRANCH   2   7
BRANCH   1  18
HETATM   18  C3  UNL     1      25.995   0.856  51.877  1.00  0.00     0.059 A 
HETATM   19  C2  UNL     1      26.867  -0.185  52.038  1.00  0.00    -0.019 A 
HETATM   20  O1  UNL     1      26.657   0.429  53.291  1.00  0.00     0.000 OA
HETATM   21  C1  UNL     1      27.540  -0.005  54.355  1.00  0.00     0.000 C 
ENDBRANCH   1  18
BRANCH   6  22
HETATM   22  N4  UNL     1      23.432   0.873  53.416  1.00  0.00    -0.338 N 
HETATM   23  H23 UNL     1      23.463   0.180  54.149  1.00  0.00     0.167 HD
BRANCH  22  24
HETATM   24  C17 UNL     1      22.073   0.401  53.247  1.00  0.00     0.072 A 
HETATM   25  C18 UNL     1      21.112   0.627  52.267  1.00  0.00     0.034 A 
HETATM   26  C19 UNL     1      19.876   0.037  52.295  1.00  0.00     0.021 A 
HETATM   27  C20 UNL     1      19.555  -0.817  53.331  1.00  0.00     0.014 A 
HETATM   28 BR1  UNL     1      17.814  -1.566  53.243  1.00  0.00    -0.051 Br
HETATM   29  C21 UNL     1      20.471  -1.081  54.338  1.00  0.00     0.063 A 
HETATM   30  C22 UNL     1      21.723  -0.468  54.287  1.00  0.00     0.144 A 
HETATM   31  F1  UNL     1      22.413  -0.881  55.404  1.00  0.00    -0.204 F 
ENDBRANCH  22  24
ENDBRANCH   6  22
TORSDOF 7
ENDMDL
MODEL 4
REMARK VINA RESULT:      -7.7      4.194      6.042
REMARK  7 active torsions:
REMARK  status: ('A' for Active; 'I' for Inactive)
REMARK    1  A    between atoms: C3_4  and  C4_5 
REMARK    2  A    between atoms: C5_6  and  C6_7 
REMARK    3  A    between atoms: C7_8  and  O2_9 
REMARK    4  A    between atoms: O2_9  and  C8_10 
REMARK    5  A    between atoms: C8_10  and  C9_11 
REMARK    6  A    between atoms: C16_21  and  N4_22 
REMARK    7  A    between atoms: N4_22  and  C17_23 
ROOT
HETATM    1  C4  UNL     1      25.111   1.607  52.723  1.00  0.00     0.025 A 
HETATM    2  C5  UNL     1      26.247   1.490  51.920  1.00  0.00     0.070 A 
HETATM    3  N2  UNL     1      26.787   0.275  51.770  1.00  0.00    -0.241 NA
HETATM    4  C15 UNL     1      26.286  -0.799  52.350  1.00  0.00     0.235 A 
HETATM    5  N3  UNL     1      25.211  -0.649  53.104  1.00  0.00    -0.224 NA
HETATM    6  C16 UNL     1      24.575   0.503  53.338  1.00  0.00     0.138 A 
ENDROOT
BRANCH   2   7
HETATM    7  C6  UNL     1      26.840   2.645  51.281  1.00  0.00     0.056 C 
HETATM    8  C7  UNL     1      26.459   2.890  50.051  1.00  0.00     0.137 C 
BRANCH   8   9
HETATM    9  O2  UNL     1      26.825   3.886  49.172  1.00  0.00    -0.363 OA
BRANCH   9  10
HETATM   10  C8  UNL     1      26.516   5.256  49.417  1.00  0.00     0.179 C 
BRANCH  10  11
HETATM   11  C9  UNL     1      27.036   6.131  48.291  1.00  0.00     0.013 C 
HETATM   12  C10 UNL     1      28.494   5.980  48.029  1.00  0.00     0.037 C 
HETATM   13  C11 UNL     1      29.317   7.059  48.699  1.00  0.00     0.272 C 
HETATM   14  N1  UNL     1      28.957   8.381  48.229  1.00  0.00     0.084 N 
HETATM   15  C12 UNL     1      29.255   9.342  49.282  1.00  0.00     0.309 C 
HETATM   16  C13 UNL     1      27.570   8.491  47.838  1.00  0.00     0.272 C 
HETATM   17  C14 UNL     1      26.714   7.570  48.668  1.00  0.00     0.037 C 
ENDBRANCH  10  11
ENDBRANCH   9  10
ENDBRANCH   8   9
ENDBRANCH   2   7
BRANCH   1  18
HETATM   18  C3  UNL     1      24.402   2.859  52.951  1.00  0.00     0.059 A 
HETATM   19  C2  UNL     1      23.700   4.027  53.074  1.00  0.00    -0.019 A 
HETATM   20  O1  UNL     1      23.464   3.489  51.791  1.00  0.00     0.000 OA
HETATM   21  C1  UNL     1      22.767   4.360  50.868  1.00  0.00     0.000 C 
ENDBRANCH   1  18
BRANCH   6  22
HETATM   22  N4  UNL     1      23.514   0.310  54.236  1.00  0.00    -0.338 N 
HETATM   23  H23 UNL     1      23.095   0.179  55.145  1.00  0.00     0.167 HD
BRANCH  22  24
HETATM   24  C17 UNL     1      22.150   0.181  53.766  1.00  0.00     0.072 A 
HETATM   25  C18 UNL     1      21.352   0.982  52.956  1.00  0.00     0.034 A 
HETATM   26  C19 UNL     1      20.073   0.639  52.608  1.00  0.00     0.021 A 
HETATM   27  C20 UNL     1      19.537  -0.546  53.074  1.00  0.00     0.014 A 
HETATM   28 BR1  UNL     1      17.759  -0.897  52.514  1.00  0.00    -0.051 Br
HETATM   29  C21 UNL     1      20.284  -1.386  53.887  1.00  0.00     0.063 A 
HETATM   30  C22 UNL     1      21.585  -1.014  54.226  1.00  0.00     0.144 A 
HETATM   31  F1  UNL     1      22.079  -2.003  55.046  1.00  0.00    -0.204 F 
ENDBRANCH  22  24
ENDBRANCH   6  22
TORSDOF 7
ENDMDL
MODEL 5
REMARK VINA RESULT:      -7.6      4.920      7.074
REMARK  7 active torsions:
REMARK  status: ('A' for Active; 'I' for Inactive)
REMARK    1  A    between atoms: C3_4  and  C4_5 
REMARK    2  A    between atoms: C5_6  and  C6_7 
REMARK    3  A    between atoms: C7_8  and  O2_9 
REMARK    4  A    between atoms: O2_9  and  C8_10 
REMARK    5  A    between atoms: C8_10  and  C9_11 
REMARK    6  A    between atoms: C16_21  and  N4_22 
REMARK    7  A    between atoms: N4_22  and  C17_23 
ROOT
HETATM    1  C4  UNL     1      25.099   2.181  51.725  1.00  0.00     0.025 A 
HETATM    2  C5  UNL     1      25.397   3.285  50.922  1.00  0.00     0.070 A 
HETATM    3  N2  UNL     1      24.564   4.330  50.958  1.00  0.00    -0.241 NA
HETATM    4  C15 UNL     1      23.485   4.351  51.717  1.00  0.00     0.235 A 
HETATM    5  N3  UNL     1      23.235   3.289  52.463  1.00  0.00    -0.224 NA
HETATM    6  C16 UNL     1      23.980   2.181  52.521  1.00  0.00     0.138 A 
ENDROOT
BRANCH   2   7
HETATM    7  C6  UNL     1      26.559   3.296  50.060  1.00  0.00     0.056 C 
HETATM    8  C7  UNL     1      26.691   4.337  49.275  1.00  0.00     0.137 C 
BRANCH   8   9
HETATM    9  O2  UNL     1      27.660   4.653  48.347  1.00  0.00    -0.363 OA
BRANCH   9  10
HETATM   10  C8  UNL     1      28.657   5.638  48.606  1.00  0.00     0.179 C 
BRANCH  10  11
HETATM   11  C9  UNL     1      28.420   6.874  47.759  1.00  0.00     0.013 C 
HETATM   12  C10 UNL     1      29.615   7.320  46.988  1.00  0.00     0.037 C 
HETATM   13  C11 UNL     1      30.366   8.436  47.679  1.00  0.00     0.272 C 
HETATM   14  N1  UNL     1      29.540   9.612  47.859  1.00  0.00     0.084 N 
HETATM   15  C12 UNL     1      30.026  10.346  49.018  1.00  0.00     0.309 C 
HETATM   16  C13 UNL     1      28.137   9.306  48.020  1.00  0.00     0.272 C 
HETATM   17  C14 UNL     1      27.964   7.975  48.706  1.00  0.00     0.037 C 
ENDBRANCH  10  11
ENDBRANCH   9  10
ENDBRANCH   8   9
ENDBRANCH   2   7
BRANCH   1  18
HETATM   18  C3  UNL     1      25.931   0.989  51.810  1.00  0.00     0.059 A 
HETATM   19  C2  UNL     1      26.764  -0.085  51.957  1.00  0.00    -0.019 A 
HETATM   20  O1  UNL     1      27.183   0.937  52.835  1.00  0.00     0.000 OA
HETATM   21  C1  UNL     1      28.461   0.722  53.480  1.00  0.00     0.000 C 
ENDBRANCH   1  18
BRANCH   6  22
HETATM   22  N4  UNL     1      23.386   1.228  53.362  1.00  0.00    -0.338 N 
HETATM   23  H23 UNL     1      23.355   0.583  54.137  1.00  0.00     0.167 HD
BRANCH  22  24
HETATM   24  C17 UNL     1      22.039   0.754  53.122  1.00  0.00     0.072 A 
HETATM   25  C18 UNL     1      21.126   0.988  52.098  1.00  0.00     0.034 A 
HETATM   26  C19 UNL     1      19.893   0.395  52.059  1.00  0.00     0.021 A 
HETATM   27  C20 UNL     1      19.524  -0.472  53.069  1.00  0.00     0.014 A 
HETATM   28 BR1  UNL     1      17.792  -1.224  52.888  1.00  0.00    -0.051 Br
HETATM   29  C21 UNL     1      20.390  -0.744  54.117  1.00  0.00     0.063 A 
HETATM   30  C22 UNL     1      21.641  -0.127  54.134  1.00  0.00     0.144 A 
HETATM   31  F1  UNL     1      22.277  -0.550  55.279  1.00  0.00    -0.204 F 
ENDBRANCH  22  24
ENDBRANCH   6  22
TORSDOF 7
ENDMDL
MODEL 6
REMARK VINA RESULT:      -7.6      4.105      9.535
REMARK  7 active torsions:
REMARK  status: ('A' for Active; 'I' for Inactive)
REMARK    1  A    between atoms: C3_4  and  C4_5 
REMARK    2  A    between atoms: C5_6  and  C6_7 
REMARK    3  A    between atoms: C7_8  and  O2_9 
REMARK    4  A    between atoms: O2_9  and  C8_10 
REMARK    5  A    between atoms: C8_10  and  C9_11 
REMARK    6  A    between atoms: C16_21  and  N4_22 
REMARK    7  A    between atoms: N4_22  and  C17_23 
ROOT
HETATM    1  C4  UNL     1      21.545   0.328  53.027  1.00  0.00     0.025 A 
HETATM    2  C5  UNL     1      20.616  -0.568  53.561  1.00  0.00     0.070 A 
HETATM    3  N2  UNL     1      21.042  -1.439  54.483  1.00  0.00    -0.241 NA
HETATM    4  C15 UNL     1      22.294  -1.475  54.897  1.00  0.00     0.235 A 
HETATM    5  N3  UNL     1      23.144  -0.613  54.369  1.00  0.00    -0.224 NA
HETATM    6  C16 UNL     1      22.853   0.305  53.442  1.00  0.00     0.138 A 
ENDROOT
BRANCH   2   7
HETATM    7  C6  UNL     1      19.238  -0.575  53.121  1.00  0.00     0.056 C 
HETATM    8  C7  UNL     1      18.510  -1.598  53.500  1.00  0.00     0.137 C 
BRANCH   8   9
HETATM    9  O2  UNL     1      17.190  -1.909  53.256  1.00  0.00    -0.363 OA
BRANCH   9  10
HETATM   10  C8  UNL     1      16.448  -1.278  52.215  1.00  0.00     0.179 C 
BRANCH  10  11
HETATM   11  C9  UNL     1      15.533  -0.209  52.784  1.00  0.00     0.013 C 
HETATM   12  C10 UNL     1      14.082  -0.518  52.650  1.00  0.00     0.037 C 
HETATM   13  C11 UNL     1      13.454   0.158  51.451  1.00  0.00     0.272 C 
HETATM   14  N1  UNL     1      13.553   1.600  51.533  1.00  0.00     0.084 N 
HETATM   15  C12 UNL     1      13.553   2.141  50.181  1.00  0.00     0.309 C 
HETATM   16  C13 UNL     1      14.725   2.054  52.246  1.00  0.00     0.272 C 
HETATM   17  C14 UNL     1      15.865   1.086  52.056  1.00  0.00     0.037 C 
ENDBRANCH  10  11
ENDBRANCH   9  10
ENDBRANCH   8   9
ENDBRANCH   2   7
BRANCH   1  18
HETATM   18  C3  UNL     1      21.215   1.347  52.041  1.00  0.00     0.059 A 
HETATM   19  C2  UNL     1      20.921   2.238  51.045  1.00  0.00    -0.019 A 
HETATM   20  O1  UNL     1      21.239   0.993  50.461  1.00  0.00     0.000 OA
HETATM   21  C1  UNL     1      21.403   1.003  49.022  1.00  0.00     0.000 C 
ENDBRANCH   1  18
BRANCH   6  22
HETATM   22  N4  UNL     1      24.006   1.006  53.058  1.00  0.00    -0.338 N 
HETATM   23  H23 UNL     1      24.520   1.795  52.696  1.00  0.00     0.167 HD
BRANCH  22  24
HETATM   24  C17 UNL     1      25.316   0.393  53.140  1.00  0.00     0.072 A 
HETATM   25  C18 UNL     1      25.806  -0.841  52.726  1.00  0.00     0.034 A 
HETATM   26  C19 UNL     1      27.117  -1.204  52.880  1.00  0.00     0.021 A 
HETATM   27  C20 UNL     1      28.001  -0.321  53.470  1.00  0.00     0.014 A 
HETATM   28 BR1  UNL     1      29.785  -0.951  53.617  1.00  0.00    -0.051 Br
HETATM   29  C21 UNL     1      27.571   0.924  53.903  1.00  0.00     0.063 A 
HETATM   30  C22 UNL     1      26.230   1.269  53.735  1.00  0.00     0.144 A 
HETATM   31  F1  UNL     1      26.076   2.530  54.266  1.00  0.00    -0.204 F 
ENDBRANCH  22  24
ENDBRANCH   6  22
TORSDOF 7
ENDMDL
MODEL 7
REMARK VINA RESULT:      -7.5      5.369      7.396
REMARK  7 active torsions:
REMARK  status: ('A' for Active; 'I' for Inactive)
REMARK    1  A    between atoms: C3_4  and  C4_5 
REMARK    2  A    between atoms: C5_6  and  C6_7 
REMARK    3  A    between atoms: C7_8  and  O2_9 
REMARK    4  A    between atoms: O2_9  and  C8_10 
REMARK    5  A    between atoms: C8_10  and  C9_11 
REMARK    6  A    between atoms: C16_21  and  N4_22 
REMARK    7  A    between atoms: N4_22  and  C17_23 
ROOT
HETATM    1  C4  UNL     1      25.128   3.348  51.056  1.00  0.00     0.025 A 
HETATM    2  C5  UNL     1      25.599   4.158  50.020  1.00  0.00     0.070 A 
HETATM    3  N2  UNL     1      24.880   5.236  49.689  1.00  0.00    -0.241 NA
HETATM    4  C15 UNL     1      23.755   5.552  50.303  1.00  0.00     0.235 A 
HETATM    5  N3  UNL     1      23.340   4.762  51.277  1.00  0.00    -0.224 NA
HETATM    6  C16 UNL     1      23.959   3.658  51.706  1.00  0.00     0.138 A 
ENDROOT
BRANCH   2   7
HETATM    7  C6  UNL     1      26.817   3.836  49.309  1.00  0.00     0.056 C 
HETATM    8  C7  UNL     1      27.529   4.852  48.884  1.00  0.00     0.137 C 
BRANCH   8   9
HETATM    9  O2  UNL     1      28.715   4.896  48.184  1.00  0.00    -0.363 OA
BRANCH   9  10
HETATM   10  C8  UNL     1      29.374   6.126  47.896  1.00  0.00     0.179 C 
BRANCH  10  11
HETATM   11  C9  UNL     1      30.873   5.989  48.091  1.00  0.00     0.013 C 
HETATM   12  C10 UNL     1      31.668   7.094  47.486  1.00  0.00     0.037 C 
HETATM   13  C11 UNL     1      32.223   6.730  46.126  1.00  0.00     0.272 C 
HETATM   14  N1  UNL     1      33.108   5.587  46.194  1.00  0.00     0.084 N 
HETATM   15  C12 UNL     1      33.087   4.909  44.905  1.00  0.00     0.309 C 
HETATM   16  C13 UNL     1      32.764   4.658  47.246  1.00  0.00     0.272 C 
HETATM   17  C14 UNL     1      31.275   4.654  47.479  1.00  0.00     0.037 C 
ENDBRANCH  10  11
ENDBRANCH   9  10
ENDBRANCH   8   9
ENDBRANCH   2   7
BRANCH   1  18
HETATM   18  C3  UNL     1      25.822   2.163  51.541  1.00  0.00     0.059 A 
HETATM   19  C2  UNL     1      26.529   1.109  52.051  1.00  0.00    -0.019 A 
HETATM   20  O1  UNL     1      27.040   2.305  52.598  1.00  0.00     0.000 OA
HETATM   21  C1  UNL     1      28.275   2.173  53.344  1.00  0.00     0.000 C 
ENDBRANCH   1  18
BRANCH   6  22
HETATM   22  N4  UNL     1      23.207   3.025  52.708  1.00  0.00    -0.338 N 
HETATM   23  H23 UNL     1      23.027   2.685  53.640  1.00  0.00     0.167 HD
BRANCH  22  24
HETATM   24  C17 UNL     1      21.916   2.438  52.416  1.00  0.00     0.072 A 
HETATM   25  C18 UNL     1      20.635   2.973  52.327  1.00  0.00     0.034 A 
HETATM   26  C19 UNL     1      19.541   2.218  51.999  1.00  0.00     0.021 A 
HETATM   27  C20 UNL     1      19.697   0.870  51.744  1.00  0.00     0.014 A 
HETATM   28 BR1  UNL     1      18.101  -0.052  51.299  1.00  0.00    -0.051 Br
HETATM   29  C21 UNL     1      20.950   0.279  51.818  1.00  0.00     0.063 A 
HETATM   30  C22 UNL     1      22.049   1.069  52.155  1.00  0.00     0.144 A 
HETATM   31  F1  UNL     1      23.144   0.236  52.177  1.00  0.00    -0.204 F 
ENDBRANCH  22  24
ENDBRANCH   6  22
TORSDOF 7
ENDMDL
MODEL 8
REMARK VINA RESULT:      -7.5      2.924      3.997
REMARK  7 active torsions:
REMARK  status: ('A' for Active; 'I' for Inactive)
REMARK    1  A    between atoms: C3_4  and  C4_5 
REMARK    2  A    between atoms: C5_6  and  C6_7 
REMARK    3  A    between atoms: C7_8  and  O2_9 
REMARK    4  A    between atoms: O2_9  and  C8_10 
REMARK    5  A    between atoms: C8_10  and  C9_11 
REMARK    6  A    between atoms: C16_21  and  N4_22 
REMARK    7  A    between atoms: N4_22  and  C17_23 
ROOT
HETATM    1  C4  UNL     1      18.735   0.283  51.695  1.00  0.00     0.025 A 
HETATM    2  C5  UNL     1      19.609  -0.397  52.547  1.00  0.00     0.070 A 
HETATM    3  N2  UNL     1      19.088  -1.276  53.410  1.00  0.00    -0.241 NA
HETATM    4  C15 UNL     1      17.792  -1.516  53.480  1.00  0.00     0.235 A 
HETATM    5  N3  UNL     1      16.996  -0.853  52.659  1.00  0.00    -0.224 NA
HETATM    6  C16 UNL     1      17.384   0.050  51.754  1.00  0.00     0.138 A 
ENDROOT
BRANCH   2   7
HETATM    7  C6  UNL     1      21.034  -0.150  52.517  1.00  0.00     0.056 C 
HETATM    8  C7  UNL     1      21.622   0.011  53.677  1.00  0.00     0.137 C 
BRANCH   8   9
HETATM    9  O2  UNL     1      22.939   0.262  53.997  1.00  0.00    -0.363 OA
BRANCH   9  10
HETATM   10  C8  UNL     1      23.940   0.419  52.995  1.00  0.00     0.179 C 
BRANCH  10  11
HETATM   11  C9  UNL     1      25.091  -0.541  53.233  1.00  0.00     0.013 C 
HETATM   12  C10 UNL     1      25.522  -0.631  54.656  1.00  0.00     0.037 C 
HETATM   13  C11 UNL     1      26.723   0.239  54.953  1.00  0.00     0.272 C 
HETATM   14  N1  UNL     1      27.873  -0.139  54.158  1.00  0.00     0.084 N 
HETATM   15  C12 UNL     1      28.721   1.031  53.986  1.00  0.00     0.309 C 
HETATM   16  C13 UNL     1      27.521  -0.689  52.869  1.00  0.00     0.272 C 
HETATM   17  C14 UNL     1      26.246  -0.067  52.361  1.00  0.00     0.037 C 
ENDBRANCH  10  11
ENDBRANCH   9  10
ENDBRANCH   8   9
ENDBRANCH   2   7
BRANCH   1  18
HETATM   18  C3  UNL     1      19.165   1.243  50.688  1.00  0.00     0.059 A 
HETATM   19  C2  UNL     1      19.591   2.206  49.815  1.00  0.00    -0.019 A 
HETATM   20  O1  UNL     1      19.732   2.694  51.132  1.00  0.00     0.000 OA
HETATM   21  C1  UNL     1      20.051   4.102  51.245  1.00  0.00     0.000 C 
ENDBRANCH   1  18
BRANCH   6  22
HETATM   22  N4  UNL     1      16.273   0.607  51.102  1.00  0.00    -0.338 N 
HETATM   23  H23 UNL     1      15.695   0.830  50.305  1.00  0.00     0.167 HD
BRANCH  22  24
HETATM   24  C17 UNL     1      15.272   1.354  51.835  1.00  0.00     0.072 A 
HETATM   25  C18 UNL     1      14.069   0.986  52.429  1.00  0.00     0.034 A 
HETATM   26  C19 UNL     1      13.282   1.873  53.113  1.00  0.00     0.021 A 
HETATM   27  C20 UNL     1      13.683   3.190  53.227  1.00  0.00     0.014 A 
HETATM   28 BR1  UNL     1      12.501   4.307  54.203  1.00  0.00    -0.051 Br
HETATM   29  C21 UNL     1      14.873   3.617  52.655  1.00  0.00     0.063 A 
HETATM   30  C22 UNL     1      15.656   2.694  51.963  1.00  0.00     0.144 A 
HETATM   31  F1  UNL     1      16.750   3.380  51.487  1.00  0.00    -0.204 F 
ENDBRANCH  22  24
ENDBRANCH   6  22
TORSDOF 7
ENDMDL
MODEL 9
REMARK VINA RESULT:      -7.4      5.359      7.431
REMARK  7 active torsions:
REMARK  status: ('A' for Active; 'I' for Inactive)
REMARK    1  A    between atoms: C3_4  and  C4_5 
REMARK    2  A    between atoms: C5_6  and  C6_7 
REMARK    3  A    between atoms: C7_8  and  O2_9 
REMARK    4  A    between atoms: O2_9  and  C8_10 
REMARK    5  A    between atoms: C8_10  and  C9_11 
REMARK    6  A    between atoms: C16_21  and  N4_22 
REMARK    7  A    between atoms: N4_22  and  C17_23 
ROOT
HETATM    1  C4  UNL     1      24.237   4.898  50.285  1.00  0.00     0.025 A 
HETATM    2  C5  UNL     1      24.104   6.264  50.545  1.00  0.00     0.070 A 
HETATM    3  N2  UNL     1      22.890   6.727  50.862  1.00  0.00    -0.241 NA
HETATM    4  C15 UNL     1      21.830   5.945  50.935  1.00  0.00     0.235 A 
HETATM    5  N3  UNL     1      21.994   4.659  50.681  1.00  0.00    -0.224 NA
HETATM    6  C16 UNL     1      23.146   4.067  50.353  1.00  0.00     0.138 A 
ENDROOT
BRANCH   2   7
HETATM    7  C6  UNL     1      25.237   7.160  50.457  1.00  0.00     0.056 C 
HETATM    8  C7  UNL     1      25.392   7.792  49.320  1.00  0.00     0.137 C 
BRANCH   8   9
HETATM    9  O2  UNL     1      26.349   8.696  48.910  1.00  0.00    -0.363 OA
BRANCH   9  10
HETATM   10  C8  UNL     1      27.689   8.644  49.393  1.00  0.00     0.179 C 
BRANCH  10  11
HETATM   11  C9  UNL     1      28.647   8.278  48.275  1.00  0.00     0.013 C 
HETATM   12  C10 UNL     1      28.474   6.892  47.756  1.00  0.00     0.037 C 
HETATM   13  C11 UNL     1      29.458   5.919  48.367  1.00  0.00     0.272 C 
HETATM   14  N1  UNL     1      30.829   6.288  48.081  1.00  0.00     0.084 N 
HETATM   15  C12 UNL     1      31.678   5.773  49.146  1.00  0.00     0.309 C 
HETATM   16  C13 UNL     1      31.020   7.714  47.942  1.00  0.00     0.272 C 
HETATM   17  C14 UNL     1      30.055   8.463  48.824  1.00  0.00     0.037 C 
ENDBRANCH  10  11
ENDBRANCH   9  10
ENDBRANCH   8   9
ENDBRANCH   2   7
BRANCH   1  18
HETATM   18  C3  UNL     1      25.500   4.252  49.959  1.00  0.00     0.059 A 
HETATM   19  C2  UNL     1      26.676   3.591  49.732  1.00  0.00    -0.019 A 
HETATM   20  O1  UNL     1      26.094   3.088  50.915  1.00  0.00     0.000 OA
HETATM   21  C1  UNL     1      26.936   2.209  51.700  1.00  0.00     0.000 C 
ENDBRANCH   1  18
BRANCH   6  22
HETATM   22  N4  UNL     1      22.946   2.704  50.086  1.00  0.00    -0.338 N 
HETATM   23  H23 UNL     1      22.839   1.892  49.497  1.00  0.00     0.167 HD
BRANCH  22  24
HETATM   24  C17 UNL     1      22.728   1.756  51.160  1.00  0.00     0.072 A 
HETATM   25  C18 UNL     1      23.323   1.590  52.406  1.00  0.00     0.034 A 
HETATM   26  C19 UNL     1      22.926   0.623  53.291  1.00  0.00     0.021 A 
HETATM   27  C20 UNL     1      21.896  -0.230  52.947  1.00  0.00     0.014 A 
HETATM   28 BR1  UNL     1      21.447  -1.517  54.267  1.00  0.00    -0.051 Br
HETATM   29  C21 UNL     1      21.264  -0.115  51.718  1.00  0.00     0.063 A 
HETATM   30  C22 UNL     1      21.688   0.878  50.834  1.00  0.00     0.144 A 
HETATM   31  F1  UNL     1      20.917   0.754  49.700  1.00  0.00    -0.204 F 
ENDBRANCH  22  24
ENDBRANCH   6  22
TORSDOF 7
ENDMDL
