MODEL 1
REMARK VINA RESULT:      -8.8      0.000      0.000
REMARK  5 active torsions:
REMARK  status: ('A' for Active; 'I' for Inactive)
REMARK    1  A    between atoms: O1_2  and  C2_3 
REMARK    2  A    between atoms: C3_4  and  C4_5 
REMARK    3  A    between atoms: C5_6  and  C6_7 
REMARK    4  A    between atoms: C9_10  and  C10_11 
REMARK       I    between atoms: C10_11  and  N1_13 
REMARK    5  A    between atoms: N1_13  and  C11_14 
ROOT
HETATM    1  C10 UNL     1      24.495   1.382  51.818  1.00  0.00     0.256 C 
HETATM    2  O2  UNL     1      25.184   2.132  51.081  1.00  0.00    -0.267 OA
HETATM    3  N1  UNL     1      25.230   0.822  52.877  1.00  0.00    -0.322 N 
HETATM    4  H8  UNL     1      24.811   0.177  53.583  1.00  0.00     0.169 HD
ENDROOT
BRANCH   1   5
HETATM    5  C9  UNL     1      23.079   1.089  51.642  1.00  0.00     0.032 A 
HETATM    6  C8  UNL     1      22.335   1.352  50.490  1.00  0.00     0.018 A 
HETATM    7  C7  UNL     1      20.996   1.012  50.485  1.00  0.00     0.012 A 
HETATM    8  C6  UNL     1      20.347   0.434  51.534  1.00  0.00    -0.036 A 
HETATM    9  C22 UNL     1      21.103   0.182  52.662  1.00  0.00     0.012 A 
HETATM   10  C21 UNL     1      22.459   0.498  52.741  1.00  0.00     0.018 A 
BRANCH   8  11
HETATM   11  C5  UNL     1      18.944   0.084  51.511  1.00  0.00     0.020 C 
HETATM   12  C4  UNL     1      18.377  -0.628  52.466  1.00  0.00     0.067 C 
BRANCH  12  13
HETATM   13  C3  UNL     1      16.965  -0.978  52.439  1.00  0.00    -0.048 C 
HETATM   14  C2  UNL     1      15.785  -1.280  52.401  1.00  0.00     0.058 C 
BRANCH  14  15
HETATM   15  O1  UNL     1      14.469  -1.641  52.360  1.00  0.00    -0.308 OA
HETATM   16  C1  UNL     1      14.065  -2.997  52.515  1.00  0.00     0.223 C 
ENDBRANCH  14  15
ENDBRANCH  12  13
ENDBRANCH   8  11
ENDBRANCH   1   5
BRANCH   3  17
HETATM   17  C11 UNL     1      26.606   0.995  53.200  1.00  0.00     0.046 A 
HETATM   18  C12 UNL     1      27.179   2.201  53.543  1.00  0.00     0.030 A 
HETATM   19  C13 UNL     1      28.533   2.232  53.836  1.00  0.00     0.003 A 
HETATM   20  C14 UNL     1      29.320   1.092  53.793  1.00  0.00     0.012 A 
HETATM   21  C15 UNL     1      28.723  -0.093  53.448  1.00  0.00    -0.024 A 
HETATM   22  C16 UNL     1      29.526  -1.217  53.413  1.00  0.00     0.012 A 
HETATM   23  C20 UNL     1      27.363  -0.178  53.145  1.00  0.00     0.001 A 
HETATM   24  C17 UNL     1      29.011  -2.454  53.076  1.00  0.00     0.001 A 
HETATM   25  C18 UNL     1      27.668  -2.510  52.781  1.00  0.00     0.001 A 
HETATM   26  C19 UNL     1      26.838  -1.408  52.807  1.00  0.00     0.014 A 
ENDBRANCH   3  17
TORSDOF 5
ENDMDL
MODEL 2
REMARK VINA RESULT:      -8.8      1.583      2.799
REMARK  5 active torsions:
REMARK  status: ('A' for Active; 'I' for Inactive)
REMARK    1  A    between atoms: O1_2  and  C2_3 
REMARK    2  A    between atoms: C3_4  and  C4_5 
REMARK    3  A    between atoms: C5_6  and  C6_7 
REMARK    4  A    between atoms: C9_10  and  C10_11 
REMARK       I    between atoms: C10_11  and  N1_13 
REMARK    5  A    between atoms: N1_13  and  C11_14 
ROOT
HETATM    1  C10 UNL     1      24.488  -0.893  53.859  1.00  0.00     0.256 C 
HETATM    2  O2  UNL     1      24.928  -1.136  55.011  1.00  0.00    -0.267 OA
HETATM    3  N1  UNL     1      25.493  -0.880  52.877  1.00  0.00    -0.322 N 
HETATM    4  H8  UNL     1      25.300  -0.695  51.867  1.00  0.00     0.169 HD
ENDROOT
BRANCH   1   5
HETATM    5  C9  UNL     1      23.094  -0.643  53.518  1.00  0.00     0.032 A 
HETATM    6  C8  UNL     1      22.648   0.157  52.463  1.00  0.00     0.018 A 
HETATM    7  C7  UNL     1      21.287   0.291  52.275  1.00  0.00     0.012 A 
HETATM    8  C6  UNL     1      20.341  -0.308  53.052  1.00  0.00    -0.036 A 
HETATM    9  C22 UNL     1      20.805  -1.094  54.089  1.00  0.00     0.012 A 
HETATM   10  C21 UNL     1      22.164  -1.276  54.341  1.00  0.00     0.018 A 
BRANCH   8  11
HETATM   11  C5  UNL     1      18.919  -0.157  52.840  1.00  0.00     0.020 C 
HETATM   12  C4  UNL     1      18.081  -1.173  52.914  1.00  0.00     0.067 C 
BRANCH  12  13
HETATM   13  C3  UNL     1      16.651  -1.016  52.699  1.00  0.00    -0.048 C 
HETATM   14  C2  UNL     1      15.452  -0.872  52.532  1.00  0.00     0.058 C 
BRANCH  14  15
HETATM   15  O1  UNL     1      14.112  -0.689  52.340  1.00  0.00    -0.308 OA
HETATM   16  C1  UNL     1      13.320   0.037  53.274  1.00  0.00     0.223 C 
ENDBRANCH  14  15
ENDBRANCH  12  13
ENDBRANCH   8  11
ENDBRANCH   1   5
BRANCH   3  17
HETATM   17  C11 UNL     1      26.891  -1.100  53.025  1.00  0.00     0.046 A 
HETATM   18  C12 UNL     1      27.504  -2.328  52.895  1.00  0.00     0.030 A 
HETATM   19  C13 UNL     1      28.878  -2.405  53.065  1.00  0.00     0.003 A 
HETATM   20  C14 UNL     1      29.645  -1.289  53.360  1.00  0.00     0.012 A 
HETATM   21  C15 UNL     1      29.008  -0.082  53.485  1.00  0.00    -0.024 A 
HETATM   22  C16 UNL     1      29.792   1.018  53.780  1.00  0.00     0.012 A 
HETATM   23  C20 UNL     1      27.628   0.050  53.323  1.00  0.00     0.001 A 
HETATM   24  C17 UNL     1      29.238   2.275  53.923  1.00  0.00     0.001 A 
HETATM   25  C18 UNL     1      27.875   2.376  53.758  1.00  0.00     0.001 A 
HETATM   26  C19 UNL     1      27.063   1.301  53.464  1.00  0.00     0.014 A 
ENDBRANCH   3  17
TORSDOF 5
ENDMDL
MODEL 3
REMARK VINA RESULT:      -8.5      4.573      9.883
REMARK  5 active torsions:
REMARK  status: ('A' for Active; 'I' for Inactive)
REMARK    1  A    between atoms: O1_2  and  C2_3 
REMARK    2  A    between atoms: C3_4  and  C4_5 
REMARK    3  A    between atoms: C5_6  and  C6_7 
REMARK    4  A    between atoms: C9_10  and  C10_11 
REMARK       I    between atoms: C10_11  and  N1_13 
REMARK    5  A    between atoms: N1_13  and  C11_14 
ROOT
HETATM    1  C10 UNL     1      23.060   3.103  51.034  1.00  0.00     0.256 C 
HETATM    2  O2  UNL     1      22.255   3.750  51.751  1.00  0.00    -0.267 OA
HETATM    3  N1  UNL     1      22.716   1.747  50.901  1.00  0.00    -0.322 N 
HETATM    4  H8  UNL     1      23.276   1.069  50.339  1.00  0.00     0.169 HD
ENDROOT
BRANCH   1   5
HETATM    5  C9  UNL     1      24.243   3.650  50.382  1.00  0.00     0.032 A 
HETATM    6  C8  UNL     1      24.304   4.872  49.707  1.00  0.00     0.018 A 
HETATM    7  C7  UNL     1      25.507   5.246  49.141  1.00  0.00     0.012 A 
HETATM    8  C6  UNL     1      26.647   4.502  49.198  1.00  0.00    -0.036 A 
HETATM    9  C22 UNL     1      26.563   3.299  49.871  1.00  0.00     0.012 A 
HETATM   10  C21 UNL     1      25.383   2.854  50.466  1.00  0.00     0.018 A 
BRANCH   8  11
HETATM   11  C5  UNL     1      27.898   4.910  48.600  1.00  0.00     0.020 C 
HETATM   12  C4  UNL     1      28.154   6.164  48.279  1.00  0.00     0.067 C 
BRANCH  12  13
HETATM   13  C3  UNL     1      29.414   6.569  47.678  1.00  0.00    -0.048 C 
HETATM   14  C2  UNL     1      30.476   6.915  47.189  1.00  0.00     0.058 C 
BRANCH  14  15
HETATM   15  O1  UNL     1      31.677   7.286  46.656  1.00  0.00    -0.308 OA
HETATM   16  C1  UNL     1      32.434   6.399  45.838  1.00  0.00     0.223 C 
ENDBRANCH  14  15
ENDBRANCH  12  13
ENDBRANCH   8  11
ENDBRANCH   1   5
BRANCH   3  17
HETATM   17  C11 UNL     1      21.609   1.048  51.459  1.00  0.00     0.046 A 
HETATM   18  C12 UNL     1      20.321   1.111  50.971  1.00  0.00     0.030 A 
HETATM   19  C13 UNL     1      19.333   0.377  51.610  1.00  0.00     0.003 A 
HETATM   20  C14 UNL     1      19.603  -0.410  52.717  1.00  0.00     0.012 A 
HETATM   21  C15 UNL     1      20.892  -0.452  53.181  1.00  0.00    -0.024 A 
HETATM   22  C16 UNL     1      21.139  -1.244  54.287  1.00  0.00     0.012 A 
HETATM   23  C20 UNL     1      21.923   0.266  52.574  1.00  0.00     0.001 A 
HETATM   24  C17 UNL     1      22.407  -1.349  54.824  1.00  0.00     0.001 A 
HETATM   25  C18 UNL     1      23.405  -0.630  54.207  1.00  0.00     0.001 A 
HETATM   26  C19 UNL     1      23.195   0.169  53.102  1.00  0.00     0.014 A 
ENDBRANCH   3  17
TORSDOF 5
ENDMDL
MODEL 4
REMARK VINA RESULT:      -8.5      5.917     10.555
REMARK  5 active torsions:
REMARK  status: ('A' for Active; 'I' for Inactive)
REMARK    1  A    between atoms: O1_2  and  C2_3 
REMARK    2  A    between atoms: C3_4  and  C4_5 
REMARK    3  A    between atoms: C5_6  and  C6_7 
REMARK    4  A    between atoms: C9_10  and  C10_11 
REMARK       I    between atoms: C10_11  and  N1_13 
REMARK    5  A    between atoms: N1_13  and  C11_14 
ROOT
HETATM    1  C10 UNL     1      25.079   3.777  49.754  1.00  0.00     0.256 C 
HETATM    2  O2  UNL     1      24.179   3.140  49.150  1.00  0.00    -0.267 OA
HETATM    3  N1  UNL     1      25.199   3.414  51.107  1.00  0.00    -0.322 N 
HETATM    4  H8  UNL     1      25.897   3.845  51.752  1.00  0.00     0.169 HD
ENDROOT
BRANCH   1   5
HETATM    5  C9  UNL     1      25.939   4.795  49.165  1.00  0.00     0.032 A 
HETATM    6  C8  UNL     1      25.529   6.069  48.766  1.00  0.00     0.018 A 
HETATM    7  C7  UNL     1      26.472   6.919  48.222  1.00  0.00     0.012 A 
HETATM    8  C6  UNL     1      27.785   6.597  48.048  1.00  0.00    -0.036 A 
HETATM    9  C22 UNL     1      28.168   5.333  48.450  1.00  0.00     0.012 A 
HETATM   10  C21 UNL     1      27.271   4.421  49.006  1.00  0.00     0.018 A 
BRANCH   8  11
HETATM   11  C5  UNL     1      28.760   7.500  47.477  1.00  0.00     0.020 C 
HETATM   12  C4  UNL     1      30.009   7.551  47.899  1.00  0.00     0.067 C 
BRANCH  12  13
HETATM   13  C3  UNL     1      30.986   8.461  47.321  1.00  0.00    -0.048 C 
HETATM   14  C2  UNL     1      31.808   9.229  46.853  1.00  0.00     0.058 C 
BRANCH  14  15
HETATM   15  O1  UNL     1      32.746  10.079  46.341  1.00  0.00    -0.308 OA
HETATM   16  C1  UNL     1      33.008  11.345  46.938  1.00  0.00     0.223 C 
ENDBRANCH  14  15
ENDBRANCH  12  13
ENDBRANCH   8  11
ENDBRANCH   1   5
BRANCH   3  17
HETATM   17  C11 UNL     1      24.453   2.451  51.843  1.00  0.00     0.046 A 
HETATM   18  C12 UNL     1      23.124   2.589  52.182  1.00  0.00     0.030 A 
HETATM   19  C13 UNL     1      22.515   1.573  52.903  1.00  0.00     0.003 A 
HETATM   20  C14 UNL     1      23.201   0.434  53.290  1.00  0.00     0.012 A 
HETATM   21  C15 UNL     1      24.522   0.325  52.940  1.00  0.00    -0.024 A 
HETATM   22  C16 UNL     1      25.187  -0.820  53.336  1.00  0.00     0.012 A 
HETATM   23  C20 UNL     1      25.182   1.318  52.214  1.00  0.00     0.001 A 
HETATM   24  C17 UNL     1      26.520  -1.017  53.028  1.00  0.00     0.001 A 
HETATM   25  C18 UNL     1      27.146  -0.023  52.312  1.00  0.00     0.001 A 
HETATM   26  C19 UNL     1      26.513   1.132  51.901  1.00  0.00     0.014 A 
ENDBRANCH   3  17
TORSDOF 5
ENDMDL
MODEL 5
REMARK VINA RESULT:      -8.5      1.970      3.237
REMARK  5 active torsions:
REMARK  status: ('A' for Active; 'I' for Inactive)
REMARK    1  A    between atoms: O1_2  and  C2_3 
REMARK    2  A    between atoms: C3_4  and  C4_5 
REMARK    3  A    between atoms: C5_6  and  C6_7 
REMARK    4  A    between atoms: C9_10  and  C10_11 
REMARK       I    between atoms: C10_11  and  N1_13 
REMARK    5  A    between atoms: N1_13  and  C11_14 
ROOT
HETATM    1  C10 UNL     1      24.324  -0.851  53.899  1.00  0.00     0.256 C 
HETATM    2  O2  UNL     1      24.786  -1.048  55.051  1.00  0.00    -0.267 OA
HETATM    3  N1  UNL     1      25.309  -0.874  52.897  1.00  0.00    -0.322 N 
HETATM    4  H8  UNL     1      25.096  -0.729  51.886  1.00  0.00     0.169 HD
ENDROOT
BRANCH   1   5
HETATM    5  C9  UNL     1      22.922  -0.620  53.576  1.00  0.00     0.032 A 
HETATM    6  C8  UNL     1      21.832  -1.144  54.276  1.00  0.00     0.018 A 
HETATM    7  C7  UNL     1      20.561  -0.827  53.838  1.00  0.00     0.012 A 
HETATM    8  C6  UNL     1      20.295  -0.032  52.763  1.00  0.00    -0.036 A 
HETATM    9  C22 UNL     1      21.387   0.475  52.088  1.00  0.00     0.012 A 
HETATM   10  C21 UNL     1      22.700   0.199  52.470  1.00  0.00     0.018 A 
BRANCH   8  11
HETATM   11  C5  UNL     1      18.957   0.289  52.319  1.00  0.00     0.020 C 
HETATM   12  C4  UNL     1      18.511  -0.039  51.122  1.00  0.00     0.067 C 
BRANCH  12  13
HETATM   13  C3  UNL     1      17.164   0.287  50.680  1.00  0.00    -0.048 C 
HETATM   14  C2  UNL     1      16.032   0.567  50.325  1.00  0.00     0.058 C 
BRANCH  14  15
HETATM   15  O1  UNL     1      14.769   0.903  49.931  1.00  0.00    -0.308 OA
HETATM   16  C1  UNL     1      14.541   1.814  48.860  1.00  0.00     0.223 C 
ENDBRANCH  14  15
ENDBRANCH  12  13
ENDBRANCH   8  11
ENDBRANCH   1   5
BRANCH   3  17
HETATM   17  C11 UNL     1      26.711  -1.084  53.027  1.00  0.00     0.046 A 
HETATM   18  C12 UNL     1      27.330  -2.309  52.898  1.00  0.00     0.030 A 
HETATM   19  C13 UNL     1      28.706  -2.376  53.049  1.00  0.00     0.003 A 
HETATM   20  C14 UNL     1      29.470  -1.253  53.323  1.00  0.00     0.012 A 
HETATM   21  C15 UNL     1      28.827  -0.049  53.447  1.00  0.00    -0.024 A 
HETATM   22  C16 UNL     1      29.609   1.058  53.720  1.00  0.00     0.012 A 
HETATM   23  C20 UNL     1      27.444   0.073  53.304  1.00  0.00     0.001 A 
HETATM   24  C17 UNL     1      29.049   2.313  53.861  1.00  0.00     0.001 A 
HETATM   25  C18 UNL     1      27.683   2.405  53.716  1.00  0.00     0.001 A 
HETATM   26  C19 UNL     1      26.874   1.322  53.443  1.00  0.00     0.014 A 
ENDBRANCH   3  17
TORSDOF 5
ENDMDL
MODEL 6
REMARK VINA RESULT:      -8.3      5.406     10.896
REMARK  5 active torsions:
REMARK  status: ('A' for Active; 'I' for Inactive)
REMARK    1  A    between atoms: O1_2  and  C2_3 
REMARK    2  A    between atoms: C3_4  and  C4_5 
REMARK    3  A    between atoms: C5_6  and  C6_7 
REMARK    4  A    between atoms: C9_10  and  C10_11 
REMARK       I    between atoms: C10_11  and  N1_13 
REMARK    5  A    between atoms: N1_13  and  C11_14 
ROOT
HETATM    1  C10 UNL     1      24.176   4.396  49.502  1.00  0.00     0.256 C 
HETATM    2  O2  UNL     1      23.199   4.982  50.035  1.00  0.00    -0.267 OA
HETATM    3  N1  UNL     1      23.972   3.015  49.346  1.00  0.00    -0.322 N 
HETATM    4  H8  UNL     1      24.682   2.379  48.920  1.00  0.00     0.169 HD
ENDROOT
BRANCH   1   5
HETATM    5  C9  UNL     1      25.414   5.032  49.071  1.00  0.00     0.032 A 
HETATM    6  C8  UNL     1      25.530   6.342  48.600  1.00  0.00     0.018 A 
HETATM    7  C7  UNL     1      26.781   6.794  48.229  1.00  0.00     0.012 A 
HETATM    8  C6  UNL     1      27.918   6.046  48.293  1.00  0.00    -0.036 A 
HETATM    9  C22 UNL     1      27.779   4.754  48.762  1.00  0.00     0.012 A 
HETATM   10  C21 UNL     1      26.549   4.228  49.154  1.00  0.00     0.018 A 
BRANCH   8  11
HETATM   11  C5  UNL     1      29.221   6.536  47.900  1.00  0.00     0.020 C 
HETATM   12  C4  UNL     1      30.322   5.830  48.068  1.00  0.00     0.067 C 
BRANCH  12  13
HETATM   13  C3  UNL     1      31.631   6.327  47.673  1.00  0.00    -0.048 C 
HETATM   14  C2  UNL     1      32.734   6.735  47.354  1.00  0.00     0.058 C 
BRANCH  14  15
HETATM   15  O1  UNL     1      33.977   7.170  46.991  1.00  0.00    -0.308 OA
HETATM   16  C1  UNL     1      34.711   8.082  47.803  1.00  0.00     0.223 C 
ENDBRANCH  14  15
ENDBRANCH  12  13
ENDBRANCH   8  11
ENDBRANCH   1   5
BRANCH   3  17
HETATM   17  C11 UNL     1      22.839   2.232  49.704  1.00  0.00     0.046 A 
HETATM   18  C12 UNL     1      21.697   2.119  48.939  1.00  0.00     0.030 A 
HETATM   19  C13 UNL     1      20.663   1.322  49.405  1.00  0.00     0.003 A 
HETATM   20  C14 UNL     1      20.746   0.641  50.609  1.00  0.00     0.012 A 
HETATM   21  C15 UNL     1      21.893   0.773  51.348  1.00  0.00    -0.024 A 
HETATM   22  C16 UNL     1      21.954   0.084  52.546  1.00  0.00     0.012 A 
HETATM   23  C20 UNL     1      22.962   1.562  50.924  1.00  0.00     0.001 A 
HETATM   24  C17 UNL     1      23.070   0.156  53.357  1.00  0.00     0.001 A 
HETATM   25  C18 UNL     1      24.110   0.942  52.915  1.00  0.00     0.001 A 
HETATM   26  C19 UNL     1      24.082   1.642  51.726  1.00  0.00     0.014 A 
ENDBRANCH   3  17
TORSDOF 5
ENDMDL
MODEL 7
REMARK VINA RESULT:      -8.1      6.418      7.849
REMARK  5 active torsions:
REMARK  status: ('A' for Active; 'I' for Inactive)
REMARK    1  A    between atoms: O1_2  and  C2_3 
REMARK    2  A    between atoms: C3_4  and  C4_5 
REMARK    3  A    between atoms: C5_6  and  C6_7 
REMARK    4  A    between atoms: C9_10  and  C10_11 
REMARK       I    between atoms: C10_11  and  N1_13 
REMARK    5  A    between atoms: N1_13  and  C11_14 
ROOT
HETATM    1  C10 UNL     1      28.411   6.233  48.253  1.00  0.00     0.256 C 
HETATM    2  O2  UNL     1      28.550   7.064  47.320  1.00  0.00    -0.267 OA
HETATM    3  N1  UNL     1      29.609   5.963  48.935  1.00  0.00    -0.322 N 
HETATM    4  H8  UNL     1      29.671   5.297  49.737  1.00  0.00     0.169 HD
ENDROOT
BRANCH   1   5
HETATM    5  C9  UNL     1      27.162   5.586  48.633  1.00  0.00     0.032 A 
HETATM    6  C8  UNL     1      25.900   6.185  48.609  1.00  0.00     0.018 A 
HETATM    7  C7  UNL     1      24.812   5.431  49.002  1.00  0.00     0.012 A 
HETATM    8  C6  UNL     1      24.885   4.134  49.415  1.00  0.00    -0.036 A 
HETATM    9  C22 UNL     1      26.142   3.563  49.430  1.00  0.00     0.012 A 
HETATM   10  C21 UNL     1      27.286   4.262  49.047  1.00  0.00     0.018 A 
BRANCH   8  11
HETATM   11  C5  UNL     1      23.734   3.360  49.823  1.00  0.00     0.020 C 
HETATM   12  C4  UNL     1      23.825   2.348  50.665  1.00  0.00     0.067 C 
BRANCH  12  13
HETATM   13  C3  UNL     1      22.665   1.571  51.073  1.00  0.00    -0.048 C 
HETATM   14  C2  UNL     1      21.690   0.932  51.427  1.00  0.00     0.058 C 
BRANCH  14  15
HETATM   15  O1  UNL     1      20.585   0.233  51.822  1.00  0.00    -0.308 OA
HETATM   16  C1  UNL     1      20.396  -0.157  53.178  1.00  0.00     0.223 C 
ENDBRANCH  14  15
ENDBRANCH  12  13
ENDBRANCH   8  11
ENDBRANCH   1   5
BRANCH   3  17
HETATM   17  C11 UNL     1      30.909   6.497  48.705  1.00  0.00     0.046 A 
HETATM   18  C12 UNL     1      31.354   7.703  49.202  1.00  0.00     0.030 A 
HETATM   19  C13 UNL     1      32.646   8.107  48.902  1.00  0.00     0.003 A 
HETATM   20  C14 UNL     1      33.494   7.337  48.122  1.00  0.00     0.012 A 
HETATM   21  C15 UNL     1      33.023   6.143  47.641  1.00  0.00    -0.024 A 
HETATM   22  C16 UNL     1      33.886   5.390  46.866  1.00  0.00     0.012 A 
HETATM   23  C20 UNL     1      31.732   5.690  47.914  1.00  0.00     0.001 A 
HETATM   24  C17 UNL     1      33.499   4.173  46.339  1.00  0.00     0.001 A 
HETATM   25  C18 UNL     1      32.220   3.751  46.623  1.00  0.00     0.001 A 
HETATM   26  C19 UNL     1      31.334   4.476  47.393  1.00  0.00     0.014 A 
ENDBRANCH   3  17
TORSDOF 5
ENDMDL
MODEL 8
REMARK VINA RESULT:      -7.8      2.604      4.432
REMARK  5 active torsions:
REMARK  status: ('A' for Active; 'I' for Inactive)
REMARK    1  A    between atoms: O1_2  and  C2_3 
REMARK    2  A    between atoms: C3_4  and  C4_5 
REMARK    3  A    between atoms: C5_6  and  C6_7 
REMARK    4  A    between atoms: C9_10  and  C10_11 
REMARK       I    between atoms: C10_11  and  N1_13 
REMARK    5  A    between atoms: N1_13  and  C11_14 
ROOT
HETATM    1  C10 UNL     1      21.157   1.406  52.054  1.00  0.00     0.256 C 
HETATM    2  O2  UNL     1      21.131   2.610  52.418  1.00  0.00    -0.267 OA
HETATM    3  N1  UNL     1      22.202   1.122  51.160  1.00  0.00    -0.322 N 
HETATM    4  H8  UNL     1      22.368   0.172  50.761  1.00  0.00     0.169 HD
ENDROOT
BRANCH   1   5
HETATM    5  C9  UNL     1      20.227   0.371  52.484  1.00  0.00     0.032 A 
HETATM    6  C8  UNL     1      20.447  -0.535  53.524  1.00  0.00     0.018 A 
HETATM    7  C7  UNL     1      19.461  -1.459  53.806  1.00  0.00     0.012 A 
HETATM    8  C6  UNL     1      18.278  -1.548  53.136  1.00  0.00    -0.036 A 
HETATM    9  C22 UNL     1      18.081  -0.642  52.112  1.00  0.00     0.012 A 
HETATM   10  C21 UNL     1      19.032   0.319  51.769  1.00  0.00     0.018 A 
BRANCH   8  11
HETATM   11  C5  UNL     1      17.255  -2.523  53.445  1.00  0.00     0.020 C 
HETATM   12  C4  UNL     1      17.508  -3.815  53.519  1.00  0.00     0.067 C 
BRANCH  12  13
HETATM   13  C3  UNL     1      16.475  -4.791  53.830  1.00  0.00    -0.048 C 
HETATM   14  C2  UNL     1      15.615  -5.609  54.107  1.00  0.00     0.058 C 
BRANCH  14  15
HETATM   15  O1  UNL     1      14.641  -6.510  54.432  1.00  0.00    -0.308 OA
HETATM   16  C1  UNL     1      14.775  -7.376  55.554  1.00  0.00     0.223 C 
ENDBRANCH  14  15
ENDBRANCH  12  13
ENDBRANCH   8  11
ENDBRANCH   1   5
BRANCH   3  17
HETATM   17  C11 UNL     1      23.194   1.999  50.637  1.00  0.00     0.046 A 
HETATM   18  C12 UNL     1      22.969   2.923  49.639  1.00  0.00     0.030 A 
HETATM   19  C13 UNL     1      24.025   3.718  49.221  1.00  0.00     0.003 A 
HETATM   20  C14 UNL     1      25.291   3.609  49.774  1.00  0.00     0.012 A 
HETATM   21  C15 UNL     1      25.485   2.681  50.764  1.00  0.00    -0.024 A 
HETATM   22  C16 UNL     1      26.755   2.590  51.303  1.00  0.00     0.012 A 
HETATM   23  C20 UNL     1      24.456   1.857  51.222  1.00  0.00     0.001 A 
HETATM   24  C17 UNL     1      27.044   1.684  52.305  1.00  0.00     0.001 A 
HETATM   25  C18 UNL     1      26.011   0.884  52.738  1.00  0.00     0.001 A 
HETATM   26  C19 UNL     1      24.733   0.948  52.223  1.00  0.00     0.014 A 
ENDBRANCH   3  17
TORSDOF 5
ENDMDL
MODEL 9
REMARK VINA RESULT:      -7.8      6.534      8.099
REMARK  5 active torsions:
REMARK  status: ('A' for Active; 'I' for Inactive)
REMARK    1  A    between atoms: O1_2  and  C2_3 
REMARK    2  A    between atoms: C3_4  and  C4_5 
REMARK    3  A    between atoms: C5_6  and  C6_7 
REMARK    4  A    between atoms: C9_10  and  C10_11 
REMARK       I    between atoms: C10_11  and  N1_13 
REMARK    5  A    between atoms: N1_13  and  C11_14 
ROOT
HETATM    1  C10 UNL     1      27.770   6.472  48.221  1.00  0.00     0.256 C 
HETATM    2  O2  UNL     1      27.681   7.197  47.198  1.00  0.00    -0.267 OA
HETATM    3  N1  UNL     1      29.020   6.567  48.857  1.00  0.00    -0.322 N 
HETATM    4  H8  UNL     1      29.261   6.033  49.721  1.00  0.00     0.169 HD
ENDROOT
BRANCH   1   5
HETATM    5  C9  UNL     1      26.721   5.606  48.741  1.00  0.00     0.032 A 
HETATM    6  C8  UNL     1      25.402   5.992  48.992  1.00  0.00     0.018 A 
HETATM    7  C7  UNL     1      24.527   5.045  49.488  1.00  0.00     0.012 A 
HETATM    8  C6  UNL     1      24.864   3.751  49.749  1.00  0.00    -0.036 A 
HETATM    9  C22 UNL     1      26.172   3.392  49.493  1.00  0.00     0.012 A 
HETATM   10  C21 UNL     1      27.112   4.292  48.994  1.00  0.00     0.018 A 
BRANCH   8  11
HETATM   11  C5  UNL     1      23.934   2.772  50.268  1.00  0.00     0.020 C 
HETATM   12  C4  UNL     1      24.087   2.208  51.450  1.00  0.00     0.067 C 
BRANCH  12  13
HETATM   13  C3  UNL     1      23.149   1.224  51.967  1.00  0.00    -0.048 C 
HETATM   14  C2  UNL     1      22.351   0.404  52.389  1.00  0.00     0.058 C 
BRANCH  14  15
HETATM   15  O1  UNL     1      21.456  -0.523  52.840  1.00  0.00    -0.308 OA
HETATM   16  C1  UNL     1      21.153  -0.651  54.226  1.00  0.00     0.223 C 
ENDBRANCH  14  15
ENDBRANCH  12  13
ENDBRANCH   8  11
ENDBRANCH   1   5
BRANCH   3  17
HETATM   17  C11 UNL     1      30.150   7.353  48.495  1.00  0.00     0.046 A 
HETATM   18  C12 UNL     1      30.252   8.712  48.704  1.00  0.00     0.030 A 
HETATM   19  C13 UNL     1      31.410   9.360  48.302  1.00  0.00     0.003 A 
HETATM   20  C14 UNL     1      32.459   8.682  47.702  1.00  0.00     0.012 A 
HETATM   21  C15 UNL     1      32.329   7.332  47.507  1.00  0.00    -0.024 A 
HETATM   22  C16 UNL     1      33.388   6.677  46.906  1.00  0.00     0.012 A 
HETATM   23  C20 UNL     1      31.185   6.633  47.893  1.00  0.00     0.001 A 
HETATM   24  C17 UNL     1      33.347   5.316  46.670  1.00  0.00     0.001 A 
HETATM   25  C18 UNL     1      32.207   4.651  47.060  1.00  0.00     0.001 A 
HETATM   26  C19 UNL     1      31.132   5.274  47.661  1.00  0.00     0.014 A 
ENDBRANCH   3  17
TORSDOF 5
ENDMDL
