MODEL 1
REMARK VINA RESULT:     -10.5      0.000      0.000
REMARK  2 active torsions:
REMARK  status: ('A' for Active; 'I' for Inactive)
REMARK    1  A    between atoms: C6_6  and  N1_7 
REMARK    2  A    between atoms: N1_7  and  C7_8 
ROOT
HETATM    1  C7  UNL     1      26.962   7.163  48.673  1.00  0.00     0.142 A 
HETATM    2  N2  UNL     1      26.282   8.194  48.168  1.00  0.00    -0.224 NA
HETATM    3  C8  UNL     1      24.991   8.243  47.872  1.00  0.00     0.236 A 
HETATM    4  N3  UNL     1      24.266   7.144  48.094  1.00  0.00    -0.241 NA
HETATM    5  C9  UNL     1      24.833   6.026  48.603  1.00  0.00     0.074 A 
HETATM    6  C10 UNL     1      24.101   4.847  48.853  1.00  0.00     0.070 A 
HETATM    7  C11 UNL     1      24.629   3.642  49.384  1.00  0.00     0.077 A 
HETATM    8  C12 UNL     1      25.998   3.738  49.648  1.00  0.00    -0.024 A 
HETATM    9  C13 UNL     1      26.686   4.893  49.398  1.00  0.00     0.027 A 
HETATM   10  C14 UNL     1      26.176   6.061  48.882  1.00  0.00     0.039 A 
HETATM   11  C15 UNL     1      26.676   2.531  50.222  1.00  0.00     0.042 C 
HETATM   12  C16 UNL     1      26.436   2.455  51.701  1.00  0.00     0.012 C 
HETATM   13  C17 UNL     1      26.899   1.169  52.348  1.00  0.00     0.017 C 
HETATM   14  C18 UNL     1      27.362   1.479  53.750  1.00  0.00     0.033 C 
HETATM   15  C19 UNL     1      28.049   0.269  54.323  1.00  0.00     0.173 C 
HETATM   16  O1  UNL     1      27.113  -0.620  54.830  1.00  0.00    -0.365 OA
HETATM   17  P1  UNL     1      25.531  -0.214  54.276  1.00  0.00     0.035 P 
HETATM   18  C20 UNL     1      25.694   0.212  52.473  1.00  0.00     0.141 C 
HETATM   19  N4  UNL     1      24.502   0.856  51.999  1.00  0.00    -0.348 N 
HETATM   20  C21 UNL     1      23.433   1.527  51.418  1.00  0.00     0.242 C 
HETATM   21  O2  UNL     1      22.898   0.984  52.453  1.00  0.00    -0.271 OA
HETATM   22  C22 UNL     1      22.735   2.361  50.433  1.00  0.00     0.278 C 
HETATM   23  O3  UNL     1      23.549   2.822  49.432  1.00  0.00    -0.341 OA
HETATM   24  H20 UNL     1      24.667  -1.368  54.463  1.00  0.00     0.089 HD
HETATM   25  H22 UNL     1      24.880   1.164  51.085  1.00  0.00     0.163 HD
ENDROOT
BRANCH   1  26
HETATM   26  N1  UNL     1      28.335   7.170  48.968  1.00  0.00    -0.340 N 
HETATM   27  H7  UNL     1      28.667   7.372  49.914  1.00  0.00     0.167 HD
BRANCH  26  28
HETATM   28  C6  UNL     1      29.430   6.931  48.130  1.00  0.00     0.034 A 
HETATM   29  C5  UNL     1      29.905   7.809  47.165  1.00  0.00     0.029 A 
HETATM   30  C4  UNL     1      30.978   7.568  46.348  1.00  0.00     0.003 A 
HETATM   31  C3  UNL     1      31.670   6.385  46.450  1.00  0.00     0.007 A 
HETATM   32  C2  UNL     1      31.252   5.469  47.387  1.00  0.00    -0.060 A 
HETATM   33  C1  UNL     1      32.036   4.215  47.449  1.00  0.00     0.048 C 
HETATM   34  C23 UNL     1      30.167   5.770  48.179  1.00  0.00     0.036 A 
ENDBRANCH  26  28
ENDBRANCH   1  26
TORSDOF 2
ENDMDL
MODEL 2
REMARK VINA RESULT:     -10.4      1.958      2.945
REMARK  2 active torsions:
REMARK  status: ('A' for Active; 'I' for Inactive)
REMARK    1  A    between atoms: C6_6  and  N1_7 
REMARK    2  A    between atoms: N1_7  and  C7_8 
ROOT
HETATM    1  C7  UNL     1      29.788   6.333  47.811  1.00  0.00     0.142 A 
HETATM    2  N2  UNL     1      30.067   7.623  47.619  1.00  0.00    -0.224 NA
HETATM    3  C8  UNL     1      29.279   8.663  47.855  1.00  0.00     0.236 A 
HETATM    4  N3  UNL     1      28.060   8.415  48.338  1.00  0.00    -0.241 NA
HETATM    5  C9  UNL     1      27.649   7.148  48.577  1.00  0.00     0.074 A 
HETATM    6  C10 UNL     1      26.370   6.845  49.088  1.00  0.00     0.070 A 
HETATM    7  C11 UNL     1      25.875   5.545  49.363  1.00  0.00     0.077 A 
HETATM    8  C12 UNL     1      26.813   4.551  49.069  1.00  0.00    -0.024 A 
HETATM    9  C13 UNL     1      28.047   4.870  48.574  1.00  0.00     0.027 A 
HETATM   10  C14 UNL     1      28.528   6.130  48.307  1.00  0.00     0.039 A 
HETATM   11  C15 UNL     1      26.414   3.130  49.323  1.00  0.00     0.042 C 
HETATM   12  C16 UNL     1      26.577   2.797  50.777  1.00  0.00     0.012 C 
HETATM   13  C17 UNL     1      26.010   1.455  51.183  1.00  0.00     0.017 C 
HETATM   14  C18 UNL     1      26.863   0.891  52.292  1.00  0.00     0.033 C 
HETATM   15  C19 UNL     1      26.468  -0.539  52.542  1.00  0.00     0.173 C 
HETATM   16  O1  UNL     1      25.358  -0.592  53.372  1.00  0.00    -0.365 OA
HETATM   17  P1  UNL     1      24.613   0.960  53.487  1.00  0.00     0.035 P 
HETATM   18  C20 UNL     1      24.597   1.668  51.766  1.00  0.00     0.141 C 
HETATM   19  N4  UNL     1      24.284   3.069  51.803  1.00  0.00    -0.348 N 
HETATM   20  C21 UNL     1      24.038   4.432  51.692  1.00  0.00     0.242 C 
HETATM   21  O2  UNL     1      23.559   4.149  52.852  1.00  0.00    -0.271 OA
HETATM   22  C22 UNL     1      24.035   5.758  51.066  1.00  0.00     0.278 C 
HETATM   23  O3  UNL     1      24.622   5.779  49.827  1.00  0.00    -0.341 OA
HETATM   24  H20 UNL     1      23.262   0.787  53.993  1.00  0.00     0.089 HD
HETATM   25  H22 UNL     1      24.519   3.275  50.816  1.00  0.00     0.163 HD
ENDROOT
BRANCH   1  26
HETATM   26  N1  UNL     1      30.667   5.270  47.543  1.00  0.00    -0.340 N 
HETATM   27  H7  UNL     1      30.315   4.366  47.219  1.00  0.00     0.167 HD
BRANCH  26  28
HETATM   28  C6  UNL     1      32.062   5.218  47.646  1.00  0.00     0.034 A 
HETATM   29  C5  UNL     1      32.809   5.778  48.673  1.00  0.00     0.029 A 
HETATM   30  C4  UNL     1      34.175   5.722  48.768  1.00  0.00     0.003 A 
HETATM   31  C3  UNL     1      34.907   5.076  47.801  1.00  0.00     0.007 A 
HETATM   32  C2  UNL     1      34.228   4.497  46.754  1.00  0.00    -0.060 A 
HETATM   33  C1  UNL     1      35.070   3.817  45.745  1.00  0.00     0.048 C 
HETATM   34  C23 UNL     1      32.855   4.587  46.716  1.00  0.00     0.036 A 
ENDBRANCH  26  28
ENDBRANCH   1  26
TORSDOF 2
ENDMDL
MODEL 3
REMARK VINA RESULT:      -9.9      5.891      8.336
REMARK  2 active torsions:
REMARK  status: ('A' for Active; 'I' for Inactive)
REMARK    1  A    between atoms: C6_6  and  N1_7 
REMARK    2  A    between atoms: N1_7  and  C7_8 
ROOT
HETATM    1  C7  UNL     1      24.043  -0.236  53.348  1.00  0.00     0.142 A 
HETATM    2  N2  UNL     1      23.787  -1.069  54.358  1.00  0.00    -0.224 NA
HETATM    3  C8  UNL     1      22.668  -1.164  55.062  1.00  0.00     0.236 A 
HETATM    4  N3  UNL     1      21.668  -0.341  54.743  1.00  0.00    -0.241 NA
HETATM    5  C9  UNL     1      21.796   0.554  53.737  1.00  0.00     0.074 A 
HETATM    6  C10 UNL     1      20.762   1.440  53.369  1.00  0.00     0.070 A 
HETATM    7  C11 UNL     1      20.826   2.402  52.328  1.00  0.00     0.077 A 
HETATM    8  C12 UNL     1      22.062   2.387  51.674  1.00  0.00    -0.024 A 
HETATM    9  C13 UNL     1      23.049   1.518  52.050  1.00  0.00     0.027 A 
HETATM   10  C14 UNL     1      22.987   0.587  53.058  1.00  0.00     0.039 A 
HETATM   11  C15 UNL     1      22.255   3.353  50.545  1.00  0.00     0.042 C 
HETATM   12  C16 UNL     1      21.630   2.818  49.291  1.00  0.00     0.012 C 
HETATM   13  C17 UNL     1      21.585   3.801  48.141  1.00  0.00     0.017 C 
HETATM   14  C18 UNL     1      21.730   3.033  46.851  1.00  0.00     0.033 C 
HETATM   15  C19 UNL     1      21.933   4.003  45.718  1.00  0.00     0.173 C 
HETATM   16  O1  UNL     1      20.711   4.497  45.286  1.00  0.00    -0.365 OA
HETATM   17  P1  UNL     1      19.472   4.139  46.432  1.00  0.00     0.035 P 
HETATM   18  C20 UNL     1      20.195   4.471  48.113  1.00  0.00     0.141 C 
HETATM   19  N4  UNL     1      19.358   3.913  49.138  1.00  0.00    -0.348 N 
HETATM   20  C21 UNL     1      18.671   3.389  50.226  1.00  0.00     0.242 C 
HETATM   21  O2  UNL     1      17.772   3.414  49.307  1.00  0.00    -0.271 OA
HETATM   22  C22 UNL     1      18.474   2.920  51.603  1.00  0.00     0.278 C 
HETATM   23  O3  UNL     1      19.606   2.992  52.372  1.00  0.00    -0.341 OA
HETATM   24  H20 UNL     1      18.337   5.008  46.171  1.00  0.00     0.089 HD
HETATM   25  H22 UNL     1      20.023   4.035  49.923  1.00  0.00     0.163 HD
ENDROOT
BRANCH   1  26
HETATM   26  N1  UNL     1      25.253  -0.181  52.636  1.00  0.00    -0.340 N 
HETATM   27  H7  UNL     1      25.318  -0.546  51.683  1.00  0.00     0.167 HD
BRANCH  26  28
HETATM   28  C6  UNL     1      26.497   0.327  53.027  1.00  0.00     0.034 A 
HETATM   29  C5  UNL     1      26.768   1.662  53.295  1.00  0.00     0.029 A 
HETATM   30  C4  UNL     1      27.988   2.151  53.678  1.00  0.00     0.003 A 
HETATM   31  C3  UNL     1      29.058   1.301  53.822  1.00  0.00     0.007 A 
HETATM   32  C2  UNL     1      28.859  -0.038  53.572  1.00  0.00    -0.060 A 
HETATM   33  C1  UNL     1      30.047  -0.904  53.744  1.00  0.00     0.048 C 
HETATM   34  C23 UNL     1      27.608  -0.468  53.191  1.00  0.00     0.036 A 
ENDBRANCH  26  28
ENDBRANCH   1  26
TORSDOF 2
ENDMDL
MODEL 4
REMARK VINA RESULT:      -9.6      3.724      6.806
REMARK  2 active torsions:
REMARK  status: ('A' for Active; 'I' for Inactive)
REMARK    1  A    between atoms: C6_6  and  N1_7 
REMARK    2  A    between atoms: N1_7  and  C7_8 
ROOT
HETATM    1  C7  UNL     1      25.506   2.321  50.857  1.00  0.00     0.142 A 
HETATM    2  N2  UNL     1      26.748   1.905  51.110  1.00  0.00    -0.224 NA
HETATM    3  C8  UNL     1      27.138   1.052  52.047  1.00  0.00     0.236 A 
HETATM    4  N3  UNL     1      26.197   0.537  52.841  1.00  0.00    -0.241 NA
HETATM    5  C9  UNL     1      24.896   0.876  52.691  1.00  0.00     0.074 A 
HETATM    6  C10 UNL     1      23.873   0.352  53.509  1.00  0.00     0.070 A 
HETATM    7  C11 UNL     1      22.492   0.662  53.409  1.00  0.00     0.077 A 
HETATM    8  C12 UNL     1      22.231   1.572  52.380  1.00  0.00    -0.024 A 
HETATM    9  C13 UNL     1      23.240   2.065  51.600  1.00  0.00     0.027 A 
HETATM   10  C14 UNL     1      24.578   1.766  51.697  1.00  0.00     0.039 A 
HETATM   11  C15 UNL     1      20.804   1.976  52.163  1.00  0.00     0.042 C 
HETATM   12  C16 UNL     1      20.083   0.928  51.367  1.00  0.00     0.012 C 
HETATM   13  C17 UNL     1      18.588   1.134  51.266  1.00  0.00     0.017 C 
HETATM   14  C18 UNL     1      18.125   0.620  49.925  1.00  0.00     0.033 C 
HETATM   15  C19 UNL     1      16.694   1.033  49.705  1.00  0.00     0.173 C 
HETATM   16  O1  UNL     1      15.837   0.147  50.339  1.00  0.00    -0.365 OA
HETATM   17  P1  UNL     1      16.704  -0.846  51.450  1.00  0.00     0.035 P 
HETATM   18  C20 UNL     1      17.893   0.272  52.342  1.00  0.00     0.141 C 
HETATM   19  N4  UNL     1      18.868  -0.501  53.059  1.00  0.00    -0.348 N 
HETATM   20  C21 UNL     1      19.896  -1.118  53.762  1.00  0.00     0.242 C 
HETATM   21  O2  UNL     1      19.025  -2.057  53.649  1.00  0.00    -0.271 OA
HETATM   22  C22 UNL     1      21.194  -1.232  54.435  1.00  0.00     0.278 C 
HETATM   23  O3  UNL     1      21.933  -0.078  54.397  1.00  0.00    -0.341 OA
HETATM   24  H20 UNL     1      15.754  -1.442  52.375  1.00  0.00     0.089 HD
HETATM   25  H22 UNL     1      19.502   0.283  53.293  1.00  0.00     0.163 HD
ENDROOT
BRANCH   1  26
HETATM   26  N1  UNL     1      25.152   3.231  49.847  1.00  0.00    -0.340 N 
HETATM   27  H7  UNL     1      24.286   3.114  49.315  1.00  0.00     0.167 HD
BRANCH  26  28
HETATM   28  C6  UNL     1      25.828   4.370  49.393  1.00  0.00     0.034 A 
HETATM   29  C5  UNL     1      25.273   5.637  49.282  1.00  0.00     0.029 A 
HETATM   30  C4  UNL     1      25.941   6.748  48.836  1.00  0.00     0.003 A 
HETATM   31  C3  UNL     1      27.259   6.655  48.460  1.00  0.00     0.007 A 
HETATM   32  C2  UNL     1      27.872   5.425  48.547  1.00  0.00    -0.060 A 
HETATM   33  C1  UNL     1      29.291   5.387  48.127  1.00  0.00     0.048 C 
HETATM   34  C23 UNL     1      27.147   4.347  49.002  1.00  0.00     0.036 A 
ENDBRANCH  26  28
ENDBRANCH   1  26
TORSDOF 2
ENDMDL
MODEL 5
REMARK VINA RESULT:      -9.5      4.009      8.071
REMARK  2 active torsions:
REMARK  status: ('A' for Active; 'I' for Inactive)
REMARK    1  A    between atoms: C6_6  and  N1_7 
REMARK    2  A    between atoms: N1_7  and  C7_8 
ROOT
HETATM    1  C7  UNL     1      23.940   0.335  53.542  1.00  0.00     0.142 A 
HETATM    2  N2  UNL     1      23.222  -0.761  53.791  1.00  0.00    -0.224 NA
HETATM    3  C8  UNL     1      21.929  -0.949  53.562  1.00  0.00     0.236 A 
HETATM    4  N3  UNL     1      21.246   0.063  53.023  1.00  0.00    -0.241 NA
HETATM    5  C9  UNL     1      21.855   1.233  52.722  1.00  0.00     0.074 A 
HETATM    6  C10 UNL     1      21.168   2.324  52.149  1.00  0.00     0.070 A 
HETATM    7  C11 UNL     1      21.741   3.576  51.809  1.00  0.00     0.077 A 
HETATM    8  C12 UNL     1      23.106   3.628  52.104  1.00  0.00    -0.024 A 
HETATM    9  C13 UNL     1      23.750   2.557  52.659  1.00  0.00     0.027 A 
HETATM   10  C14 UNL     1      23.196   1.343  52.990  1.00  0.00     0.039 A 
HETATM   11  C15 UNL     1      23.832   4.899  51.783  1.00  0.00     0.042 C 
HETATM   12  C16 UNL     1      24.187   4.940  50.326  1.00  0.00     0.012 C 
HETATM   13  C17 UNL     1      24.739   6.265  49.849  1.00  0.00     0.017 C 
HETATM   14  C18 UNL     1      25.743   6.000  48.756  1.00  0.00     0.033 C 
HETATM   15  C19 UNL     1      26.478   7.274  48.439  1.00  0.00     0.173 C 
HETATM   16  O1  UNL     1      25.734   8.052  47.565  1.00  0.00    -0.365 OA
HETATM   17  P1  UNL     1      24.110   7.479  47.476  1.00  0.00     0.035 P 
HETATM   18  C20 UNL     1      23.592   7.084  49.219  1.00  0.00     0.141 C 
HETATM   19  N4  UNL     1      22.379   6.316  49.220  1.00  0.00    -0.348 N 
HETATM   20  C21 UNL     1      21.239   5.535  49.370  1.00  0.00     0.242 C 
HETATM   21  O2  UNL     1      21.104   6.011  48.183  1.00  0.00    -0.271 OA
HETATM   22  C22 UNL     1      20.296   4.636  50.043  1.00  0.00     0.278 C 
HETATM   23  O3  UNL     1      20.692   4.273  51.304  1.00  0.00    -0.341 OA
HETATM   24  H20 UNL     1      23.280   8.530  46.911  1.00  0.00     0.089 HD
HETATM   25  H22 UNL     1      22.396   6.057  50.223  1.00  0.00     0.163 HD
ENDROOT
BRANCH   1  26
HETATM   26  N1  UNL     1      25.312   0.476  53.807  1.00  0.00    -0.340 N 
HETATM   27  H7  UNL     1      25.668   1.290  54.314  1.00  0.00     0.167 HD
BRANCH  26  28
HETATM   28  C6  UNL     1      26.377  -0.368  53.473  1.00  0.00     0.034 A 
HETATM   29  C5  UNL     1      26.257  -1.589  52.823  1.00  0.00     0.029 A 
HETATM   30  C4  UNL     1      27.304  -2.410  52.499  1.00  0.00     0.003 A 
HETATM   31  C3  UNL     1      28.591  -2.045  52.818  1.00  0.00     0.007 A 
HETATM   32  C2  UNL     1      28.782  -0.845  53.464  1.00  0.00    -0.060 A 
HETATM   33  C1  UNL     1      30.187  -0.507  53.782  1.00  0.00     0.048 C 
HETATM   34  C23 UNL     1      27.688  -0.065  53.762  1.00  0.00     0.036 A 
ENDBRANCH  26  28
ENDBRANCH   1  26
TORSDOF 2
ENDMDL
MODEL 6
REMARK VINA RESULT:      -9.5      3.679      9.472
REMARK  2 active torsions:
REMARK  status: ('A' for Active; 'I' for Inactive)
REMARK    1  A    between atoms: C6_6  and  N1_7 
REMARK    2  A    between atoms: N1_7  and  C7_8 
ROOT
HETATM    1  C7  UNL     1      24.205   1.308  52.823  1.00  0.00     0.142 A 
HETATM    2  N2  UNL     1      25.022   0.497  53.497  1.00  0.00    -0.224 NA
HETATM    3  C8  UNL     1      26.318   0.307  53.295  1.00  0.00     0.236 A 
HETATM    4  N3  UNL     1      26.895   0.994  52.307  1.00  0.00    -0.241 NA
HETATM    5  C9  UNL     1      26.179   1.852  51.545  1.00  0.00     0.074 A 
HETATM    6  C10 UNL     1      26.752   2.597  50.493  1.00  0.00     0.070 A 
HETATM    7  C11 UNL     1      26.064   3.512  49.655  1.00  0.00     0.077 A 
HETATM    8  C12 UNL     1      24.709   3.610  49.984  1.00  0.00    -0.024 A 
HETATM    9  C13 UNL     1      24.176   2.877  51.009  1.00  0.00     0.027 A 
HETATM   10  C14 UNL     1      24.842   1.990  51.821  1.00  0.00     0.039 A 
HETATM   11  C15 UNL     1      23.870   4.553  49.177  1.00  0.00     0.042 C 
HETATM   12  C16 UNL     1      24.051   5.959  49.667  1.00  0.00     0.012 C 
HETATM   13  C17 UNL     1      23.412   7.017  48.795  1.00  0.00     0.017 C 
HETATM   14  C18 UNL     1      22.946   8.147  49.678  1.00  0.00     0.033 C 
HETATM   15  C19 UNL     1      22.097   9.090  48.869  1.00  0.00     0.173 C 
HETATM   16  O1  UNL     1      22.900   9.974  48.164  1.00  0.00    -0.365 OA
HETATM   17  P1  UNL     1      24.538   9.431  48.157  1.00  0.00     0.035 P 
HETATM   18  C20 UNL     1      24.486   7.597  47.850  1.00  0.00     0.141 C 
HETATM   19  N4  UNL     1      25.763   7.005  48.132  1.00  0.00    -0.348 N 
HETATM   20  C21 UNL     1      26.925   6.294  48.408  1.00  0.00     0.242 C 
HETATM   21  O2  UNL     1      27.355   7.498  48.268  1.00  0.00    -0.271 OA
HETATM   22  C22 UNL     1      27.752   5.120  48.711  1.00  0.00     0.278 C 
HETATM   23  O3  UNL     1      27.033   3.958  48.818  1.00  0.00    -0.341 OA
HETATM   24  H20 UNL     1      25.247  10.119  47.092  1.00  0.00     0.089 HD
HETATM   25  H22 UNL     1      25.455   6.017  48.090  1.00  0.00     0.163 HD
ENDROOT
BRANCH   1  26
HETATM   26  N1  UNL     1      22.834   1.469  53.083  1.00  0.00    -0.340 N 
HETATM   27  H7  UNL     1      22.415   2.401  53.133  1.00  0.00     0.167 HD
BRANCH  26  28
HETATM   28  C6  UNL     1      21.848   0.502  53.308  1.00  0.00     0.034 A 
HETATM   29  C5  UNL     1      21.979  -0.593  54.151  1.00  0.00     0.029 A 
HETATM   30  C4  UNL     1      21.010  -1.537  54.366  1.00  0.00     0.003 A 
HETATM   31  C3  UNL     1      19.798  -1.439  53.725  1.00  0.00     0.007 A 
HETATM   32  C2  UNL     1      19.600  -0.375  52.874  1.00  0.00    -0.060 A 
HETATM   33  C1  UNL     1      18.277  -0.324  52.212  1.00  0.00     0.048 C 
HETATM   34  C23 UNL     1      20.614   0.539  52.700  1.00  0.00     0.036 A 
ENDBRANCH  26  28
ENDBRANCH   1  26
TORSDOF 2
ENDMDL
MODEL 7
REMARK VINA RESULT:      -9.4      4.447      8.393
REMARK  2 active torsions:
REMARK  status: ('A' for Active; 'I' for Inactive)
REMARK    1  A    between atoms: C6_6  and  N1_7 
REMARK    2  A    between atoms: N1_7  and  C7_8 
ROOT
HETATM    1  C7  UNL     1      26.041   4.380  49.456  1.00  0.00     0.142 A 
HETATM    2  N2  UNL     1      24.757   4.729  49.354  1.00  0.00    -0.224 NA
HETATM    3  C8  UNL     1      24.259   5.810  48.769  1.00  0.00     0.236 A 
HETATM    4  N3  UNL     1      25.121   6.662  48.213  1.00  0.00    -0.241 NA
HETATM    5  C9  UNL     1      26.453   6.427  48.246  1.00  0.00     0.074 A 
HETATM    6  C10 UNL     1      27.397   7.303  47.668  1.00  0.00     0.070 A 
HETATM    7  C11 UNL     1      28.803   7.120  47.665  1.00  0.00     0.077 A 
HETATM    8  C12 UNL     1      29.182   5.941  48.314  1.00  0.00    -0.024 A 
HETATM    9  C13 UNL     1      28.248   5.108  48.867  1.00  0.00     0.027 A 
HETATM   10  C14 UNL     1      26.885   5.285  48.870  1.00  0.00     0.039 A 
HETATM   11  C15 UNL     1      30.646   5.627  48.373  1.00  0.00     0.042 C 
HETATM   12  C16 UNL     1      31.097   5.013  47.080  1.00  0.00     0.012 C 
HETATM   13  C17 UNL     1      32.595   4.845  46.952  1.00  0.00     0.017 C 
HETATM   14  C18 UNL     1      32.869   3.607  46.136  1.00  0.00     0.033 C 
HETATM   15  C19 UNL     1      34.338   3.287  46.201  1.00  0.00     0.173 C 
HETATM   16  O1  UNL     1      35.037   4.049  45.278  1.00  0.00    -0.365 OA
HETATM   17  P1  UNL     1      34.053   5.337  44.687  1.00  0.00     0.035 P 
HETATM   18  C20 UNL     1      33.164   6.042  46.160  1.00  0.00     0.141 C 
HETATM   19  N4  UNL     1      32.097   6.905  45.737  1.00  0.00    -0.348 N 
HETATM   20  C21 UNL     1      31.008   7.727  45.473  1.00  0.00     0.242 C 
HETATM   21  O2  UNL     1      31.667   7.764  44.369  1.00  0.00    -0.271 OA
HETATM   22  C22 UNL     1      29.753   8.437  45.744  1.00  0.00     0.278 C 
HETATM   23  O3  UNL     1      29.259   8.212  47.003  1.00  0.00    -0.341 OA
HETATM   24  H20 UNL     1      34.916   6.332  44.073  1.00  0.00     0.089 HD
HETATM   25  H22 UNL     1      31.646   7.010  46.663  1.00  0.00     0.163 HD
ENDROOT
BRANCH   1  26
HETATM   26  N1  UNL     1      26.511   3.218  50.089  1.00  0.00    -0.340 N 
HETATM   27  H7  UNL     1      27.388   2.779  49.798  1.00  0.00     0.167 HD
BRANCH  26  28
HETATM   28  C6  UNL     1      25.949   2.483  51.139  1.00  0.00     0.034 A 
HETATM   29  C5  UNL     1      24.874   2.893  51.916  1.00  0.00     0.029 A 
HETATM   30  C4  UNL     1      24.329   2.169  52.943  1.00  0.00     0.003 A 
HETATM   31  C3  UNL     1      24.847   0.938  53.270  1.00  0.00     0.007 A 
HETATM   32  C2  UNL     1      25.914   0.470  52.538  1.00  0.00    -0.060 A 
HETATM   33  C1  UNL     1      26.429  -0.859  52.937  1.00  0.00     0.048 C 
HETATM   34  C23 UNL     1      26.417   1.246  51.518  1.00  0.00     0.036 A 
ENDBRANCH  26  28
ENDBRANCH   1  26
TORSDOF 2
ENDMDL
MODEL 8
REMARK VINA RESULT:      -9.2      4.662      6.165
REMARK  2 active torsions:
REMARK  status: ('A' for Active; 'I' for Inactive)
REMARK    1  A    between atoms: C6_6  and  N1_7 
REMARK    2  A    between atoms: N1_7  and  C7_8 
ROOT
HETATM    1  C7  UNL     1      20.706   4.372  50.876  1.00  0.00     0.142 A 
HETATM    2  N2  UNL     1      19.390   4.499  51.061  1.00  0.00    -0.224 NA
HETATM    3  C8  UNL     1      18.567   3.626  51.624  1.00  0.00     0.236 A 
HETATM    4  N3  UNL     1      19.090   2.480  52.063  1.00  0.00    -0.241 NA
HETATM    5  C9  UNL     1      20.413   2.224  51.937  1.00  0.00     0.074 A 
HETATM    6  C10 UNL     1      21.004   1.026  52.390  1.00  0.00     0.070 A 
HETATM    7  C11 UNL     1      22.379   0.692  52.291  1.00  0.00     0.077 A 
HETATM    8  C12 UNL     1      23.123   1.704  51.678  1.00  0.00    -0.024 A 
HETATM    9  C13 UNL     1      22.527   2.857  51.248  1.00  0.00     0.027 A 
HETATM   10  C14 UNL     1      21.195   3.181  51.343  1.00  0.00     0.039 A 
HETATM   11  C15 UNL     1      24.596   1.477  51.521  1.00  0.00     0.042 C 
HETATM   12  C16 UNL     1      25.310   1.784  52.804  1.00  0.00     0.012 C 
HETATM   13  C17 UNL     1      26.771   1.394  52.821  1.00  0.00     0.017 C 
HETATM   14  C18 UNL     1      27.520   2.383  53.679  1.00  0.00     0.033 C 
HETATM   15  C19 UNL     1      28.999   2.160  53.514  1.00  0.00     0.173 C 
HETATM   16  O1  UNL     1      29.423   1.128  54.337  1.00  0.00    -0.365 OA
HETATM   17  P1  UNL     1      28.073   0.235  54.934  1.00  0.00     0.035 P 
HETATM   18  C20 UNL     1      26.909   0.014  53.500  1.00  0.00     0.141 C 
HETATM   19  N4  UNL     1      25.627  -0.440  53.960  1.00  0.00    -0.348 N 
HETATM   20  C21 UNL     1      24.330  -0.836  54.265  1.00  0.00     0.242 C 
HETATM   21  O2  UNL     1      24.989  -1.193  55.310  1.00  0.00    -0.271 OA
HETATM   22  C22 UNL     1      22.890  -1.025  54.057  1.00  0.00     0.278 C 
HETATM   23  O3  UNL     1      22.443  -0.539  52.856  1.00  0.00    -0.341 OA
HETATM   24  H20 UNL     1      28.548  -1.048  55.423  1.00  0.00     0.089 HD
HETATM   25  H22 UNL     1      25.118  -0.303  53.068  1.00  0.00     0.163 HD
ENDROOT
BRANCH   1  26
HETATM   26  N1  UNL     1      21.530   5.335  50.271  1.00  0.00    -0.340 N 
HETATM   27  H7  UNL     1      22.068   5.995  50.837  1.00  0.00     0.167 HD
BRANCH  26  28
HETATM   28  C6  UNL     1      21.772   5.578  48.914  1.00  0.00     0.034 A 
HETATM   29  C5  UNL     1      22.118   6.808  48.371  1.00  0.00     0.029 A 
HETATM   30  C4  UNL     1      22.352   7.039  47.041  1.00  0.00     0.003 A 
HETATM   31  C3  UNL     1      22.251   6.010  46.134  1.00  0.00     0.007 A 
HETATM   32  C2  UNL     1      21.912   4.763  46.606  1.00  0.00    -0.060 A 
HETATM   33  C1  UNL     1      21.818   3.697  45.584  1.00  0.00     0.048 C 
HETATM   34  C23 UNL     1      21.689   4.596  47.954  1.00  0.00     0.036 A 
ENDBRANCH  26  28
ENDBRANCH   1  26
TORSDOF 2
ENDMDL
MODEL 9
REMARK VINA RESULT:      -8.8      4.402      8.246
REMARK  2 active torsions:
REMARK  status: ('A' for Active; 'I' for Inactive)
REMARK    1  A    between atoms: C6_6  and  N1_7 
REMARK    2  A    between atoms: N1_7  and  C7_8 
ROOT
HETATM    1  C7  UNL     1      24.360   3.375  49.765  1.00  0.00     0.142 A 
HETATM    2  N2  UNL     1      23.450   2.589  49.186  1.00  0.00    -0.224 NA
HETATM    3  C8  UNL     1      22.567   2.925  48.256  1.00  0.00     0.236 A 
HETATM    4  N3  UNL     1      22.570   4.191  47.834  1.00  0.00    -0.241 NA
HETATM    5  C9  UNL     1      23.443   5.093  48.339  1.00  0.00     0.074 A 
HETATM    6  C10 UNL     1      23.477   6.439  47.918  1.00  0.00     0.070 A 
HETATM    7  C11 UNL     1      24.363   7.435  48.402  1.00  0.00     0.077 A 
HETATM    8  C12 UNL     1      25.234   6.937  49.376  1.00  0.00    -0.024 A 
HETATM    9  C13 UNL     1      25.181   5.628  49.768  1.00  0.00     0.027 A 
HETATM   10  C14 UNL     1      24.323   4.662  49.299  1.00  0.00     0.039 A 
HETATM   11  C15 UNL     1      26.228   7.892  49.964  1.00  0.00     0.042 C 
HETATM   12  C16 UNL     1      27.405   8.046  49.046  1.00  0.00     0.012 C 
HETATM   13  C17 UNL     1      28.372   9.140  49.441  1.00  0.00     0.017 C 
HETATM   14  C18 UNL     1      29.763   8.716  49.041  1.00  0.00     0.033 C 
HETATM   15  C19 UNL     1      30.762   9.670  49.638  1.00  0.00     0.173 C 
HETATM   16  O1  UNL     1      30.880  10.800  48.844  1.00  0.00    -0.365 OA
HETATM   17  P1  UNL     1      29.584  10.881  47.708  1.00  0.00     0.035 P 
HETATM   18  C20 UNL     1      28.040  10.413  48.634  1.00  0.00     0.141 C 
HETATM   19  N4  UNL     1      26.966  10.150  47.718  1.00  0.00    -0.348 N 
HETATM   20  C21 UNL     1      25.854   9.824  46.951  1.00  0.00     0.242 C 
HETATM   21  O2  UNL     1      26.573  10.509  46.133  1.00  0.00    -0.271 OA
HETATM   22  C22 UNL     1      24.547   9.229  46.649  1.00  0.00     0.278 C 
HETATM   23  O3  UNL     1      24.004   8.540  47.701  1.00  0.00    -0.341 OA
HETATM   24  H20 UNL     1      29.497  12.241  47.203  1.00  0.00     0.089 HD
HETATM   25  H22 UNL     1      26.312   9.737  48.407  1.00  0.00     0.163 HD
ENDROOT
BRANCH   1  26
HETATM   26  N1  UNL     1      25.273   2.961  50.749  1.00  0.00    -0.340 N 
HETATM   27  H7  UNL     1      26.132   3.487  50.923  1.00  0.00     0.167 HD
BRANCH  26  28
HETATM   28  C6  UNL     1      25.217   1.861  51.612  1.00  0.00     0.034 A 
HETATM   29  C5  UNL     1      24.116   1.499  52.377  1.00  0.00     0.029 A 
HETATM   30  C4  UNL     1      24.069   0.421  53.221  1.00  0.00     0.003 A 
HETATM   31  C3  UNL     1      25.165  -0.397  53.357  1.00  0.00     0.007 A 
HETATM   32  C2  UNL     1      26.292  -0.095  52.626  1.00  0.00    -0.060 A 
HETATM   33  C1  UNL     1      27.440  -1.011  52.815  1.00  0.00     0.048 C 
HETATM   34  C23 UNL     1      26.276   1.002  51.796  1.00  0.00     0.036 A 
ENDBRANCH  26  28
ENDBRANCH   1  26
TORSDOF 2
ENDMDL
