MODEL 1
REMARK VINA RESULT:      -7.9      0.000      0.000
REMARK  5 active torsions:
REMARK  status: ('A' for Active; 'I' for Inactive)
REMARK    1  A    between atoms: C6_9  and  C7_10 
REMARK    2  A    between atoms: C7_10  and  C8_11 
REMARK    3  A    between atoms: C12_16  and  C13_17 
REMARK    4  A    between atoms: C13_17  and  C14_18 
REMARK    5  A    between atoms: C16_22  and  N5_23 
ROOT
HETATM    1  C8  UNL     1      23.326   0.558  52.848  1.00  0.00     0.045 A 
HETATM    2  C9  UNL     1      22.417  -0.054  53.480  1.00  0.00    -0.029 A 
HETATM    3  C10 UNL     1      21.623   0.839  52.623  1.00  0.00     0.146 A 
HETATM    4  N3  UNL     1      20.232   0.395  52.334  1.00  0.00    -0.374 N 
HETATM    5  C11 UNL     1      19.346  -0.501  52.975  1.00  0.00     0.097 C 
HETATM    6  C12 UNL     1      18.236  -0.265  52.424  1.00  0.00     0.022 C 
HETATM    7  N4  UNL     1      19.735  -1.552  53.821  1.00  0.00    -0.351 N 
HETATM    8  C15 UNL     1      20.906  -1.727  54.599  1.00  0.00     0.119 C 
HETATM    9  C16 UNL     1      22.036  -1.077  54.444  1.00  0.00     0.045 C 
HETATM   10  H15 UNL     1      20.069   1.004  51.508  1.00  0.00     0.161 HD
HETATM   11  H21 UNL     1      19.007  -2.287  53.816  1.00  0.00     0.166 HD
ENDROOT
BRANCH   1  12
HETATM   12  C7  UNL     1      24.304  -0.313  53.728  1.00  0.00     0.091 C 
BRANCH  12  13
HETATM   13  C6  UNL     1      25.634   0.085  53.366  1.00  0.00     0.024 C 
HETATM   14  N2  UNL     1      26.438  -0.985  52.455  1.00  0.00    -0.356 N 
HETATM   15  C5  UNL     1      27.571  -1.584  52.737  1.00  0.00     0.217 C 
HETATM   16  H10 UNL     1      25.905  -1.149  51.541  1.00  0.00     0.162 HD
HETATM   17  C4  UNL     1      28.900  -2.297  53.044  1.00  0.00     0.104 C 
HETATM   18  O1  UNL     1      27.530  -1.083  53.835  1.00  0.00    -0.274 OA
HETATM   19  C3  UNL     1      29.385  -1.108  54.137  1.00  0.00     0.028 C 
HETATM   20  C2  UNL     1      29.171   0.180  53.390  1.00  0.00     0.117 C 
HETATM   21  N1  UNL     1      28.986   1.460  53.734  1.00  0.00    -0.417 N 
HETATM   22  C1  UNL     1      29.830   2.394  54.270  1.00  0.00     0.143 C 
HETATM   23  C18 UNL     1      27.594   2.039  53.774  1.00  0.00     0.118 C 
HETATM   24  C17 UNL     1      26.713   1.074  53.545  1.00  0.00     0.045 C 
ENDBRANCH  12  13
ENDBRANCH   1  12
BRANCH   9  25
HETATM   25  N5  UNL     1      23.096  -1.277  55.306  1.00  0.00    -0.398 N 
HETATM   26  H23 UNL     1      23.502  -2.183  55.739  1.00  0.00     0.156 HD
HETATM   27  H24 UNL     1      23.547  -0.322  55.530  1.00  0.00     0.156 HD
ENDBRANCH   9  25
BRANCH   6  28
HETATM   28  C13 UNL     1      17.001  -1.006  52.868  1.00  0.00     0.041 C 
BRANCH  28  29
HETATM   29  C14 UNL     1      15.950  -0.297  51.951  1.00  0.00     0.089 C 
HETATM   30 BR1  UNL     1      16.788  -0.196  50.193  1.00  0.00    -0.096 Br
ENDBRANCH  28  29
ENDBRANCH   6  28
TORSDOF 5
ENDMDL
MODEL 2
REMARK VINA RESULT:      -7.6      4.817      6.271
REMARK  5 active torsions:
REMARK  status: ('A' for Active; 'I' for Inactive)
REMARK    1  A    between atoms: C6_9  and  C7_10 
REMARK    2  A    between atoms: C7_10  and  C8_11 
REMARK    3  A    between atoms: C12_16  and  C13_17 
REMARK    4  A    between atoms: C13_17  and  C14_18 
REMARK    5  A    between atoms: C16_22  and  N5_23 
ROOT
HETATM    1  C8  UNL     1      24.400   2.633  50.655  1.00  0.00     0.045 A 
HETATM    2  C9  UNL     1      24.453   3.869  50.388  1.00  0.00    -0.029 A 
HETATM    3  C10 UNL     1      23.015   3.602  50.243  1.00  0.00     0.146 A 
HETATM    4  N3  UNL     1      22.115   4.774  50.422  1.00  0.00    -0.374 N 
HETATM    5  C11 UNL     1      22.314   6.172  50.339  1.00  0.00     0.097 C 
HETATM    6  C12 UNL     1      21.142   6.637  50.328  1.00  0.00     0.022 C 
HETATM    7  N4  UNL     1      23.548   6.822  50.502  1.00  0.00    -0.351 N 
HETATM    8  C15 UNL     1      24.872   6.349  50.322  1.00  0.00     0.119 C 
HETATM    9  C16 UNL     1      25.237   5.090  50.270  1.00  0.00     0.045 C 
HETATM   10  H15 UNL     1      21.237   4.242  50.585  1.00  0.00     0.161 HD
HETATM   11  H21 UNL     1      23.387   7.793  50.817  1.00  0.00     0.166 HD
ENDROOT
BRANCH   1  12
HETATM   12  C7  UNL     1      25.966   2.762  50.812  1.00  0.00     0.091 C 
BRANCH  12  13
HETATM   13  C6  UNL     1      26.356   1.778  51.780  1.00  0.00     0.024 C 
HETATM   14  N2  UNL     1      26.888   2.383  53.184  1.00  0.00    -0.356 N 
HETATM   15  C5  UNL     1      28.066   2.207  53.735  1.00  0.00     0.217 C 
HETATM   16  H10 UNL     1      26.116   2.971  53.636  1.00  0.00     0.162 HD
HETATM   17  C4  UNL     1      29.439   2.014  54.404  1.00  0.00     0.104 C 
HETATM   18  O1  UNL     1      28.414   1.621  52.739  1.00  0.00    -0.274 OA
HETATM   19  C3  UNL     1      29.739   0.580  53.570  1.00  0.00     0.028 C 
HETATM   20  C2  UNL     1      28.485  -0.226  53.773  1.00  0.00     0.117 C 
HETATM   21  N1  UNL     1      27.889  -1.236  53.129  1.00  0.00    -0.417 N 
HETATM   22  C1  UNL     1      28.219  -2.558  52.996  1.00  0.00     0.143 C 
HETATM   23  C18 UNL     1      26.751  -0.963  52.178  1.00  0.00     0.118 C 
HETATM   24  C17 UNL     1      26.593   0.349  52.053  1.00  0.00     0.045 C 
ENDBRANCH  12  13
ENDBRANCH   1  12
BRANCH   9  25
HETATM   25  N5  UNL     1      26.550   4.740  50.021  1.00  0.00    -0.398 N 
HETATM   26  H23 UNL     1      27.127   3.875  50.323  1.00  0.00     0.156 HD
HETATM   27  H24 UNL     1      27.004   5.506  49.410  1.00  0.00     0.156 HD
ENDBRANCH   9  25
BRANCH   6  28
HETATM   28  C13 UNL     1      20.921   8.123  50.206  1.00  0.00     0.041 C 
BRANCH  28  29
HETATM   29  C14 UNL     1      19.573   8.104  49.412  1.00  0.00     0.089 C 
HETATM   30 BR1  UNL     1      18.911   9.937  49.482  1.00  0.00    -0.096 Br
ENDBRANCH  28  29
ENDBRANCH   6  28
TORSDOF 5
ENDMDL
MODEL 3
REMARK VINA RESULT:      -7.6      5.953      9.107
REMARK  5 active torsions:
REMARK  status: ('A' for Active; 'I' for Inactive)
REMARK    1  A    between atoms: C6_9  and  C7_10 
REMARK    2  A    between atoms: C7_10  and  C8_11 
REMARK    3  A    between atoms: C12_16  and  C13_17 
REMARK    4  A    between atoms: C13_17  and  C14_18 
REMARK    5  A    between atoms: C16_22  and  N5_23 
ROOT
HETATM    1  C8  UNL     1      25.311   3.356  50.042  1.00  0.00     0.045 A 
HETATM    2  C9  UNL     1      25.632   4.579  50.061  1.00  0.00    -0.029 A 
HETATM    3  C10 UNL     1      26.805   3.980  49.408  1.00  0.00     0.146 A 
HETATM    4  N3  UNL     1      27.600   4.890  48.539  1.00  0.00    -0.374 N 
HETATM    5  C11 UNL     1      27.725   6.297  48.462  1.00  0.00     0.097 C 
HETATM    6  C12 UNL     1      28.730   6.466  47.719  1.00  0.00     0.022 C 
HETATM    7  N4  UNL     1      26.765   7.216  48.914  1.00  0.00    -0.351 N 
HETATM    8  C15 UNL     1      25.753   7.087  49.898  1.00  0.00     0.119 C 
HETATM    9  C16 UNL     1      25.288   5.958  50.378  1.00  0.00     0.045 C 
HETATM   10  H15 UNL     1      28.106   4.155  48.005  1.00  0.00     0.161 HD
HETATM   11  H21 UNL     1      26.864   8.104  48.393  1.00  0.00     0.166 HD
ENDROOT
BRANCH   1  12
HETATM   12  C7  UNL     1      24.008   3.851  50.783  1.00  0.00     0.091 C 
BRANCH  12  13
HETATM   13  C6  UNL     1      23.757   2.905  51.833  1.00  0.00     0.024 C 
HETATM   14  N2  UNL     1      24.849   2.916  53.029  1.00  0.00    -0.356 N 
HETATM   15  C5  UNL     1      25.609   1.924  53.426  1.00  0.00     0.217 C 
HETATM   16  H10 UNL     1      24.871   3.885  53.484  1.00  0.00     0.162 HD
HETATM   17  C4  UNL     1      26.510   0.774  53.914  1.00  0.00     0.104 C 
HETATM   18  O1  UNL     1      25.195   1.271  52.500  1.00  0.00    -0.274 OA
HETATM   19  C3  UNL     1      25.483  -0.409  53.292  1.00  0.00     0.028 C 
HETATM   20  C2  UNL     1      24.124  -0.012  53.801  1.00  0.00     0.117 C 
HETATM   21  N1  UNL     1      22.861  -0.245  53.423  1.00  0.00    -0.417 N 
HETATM   22  C1  UNL     1      22.088  -1.374  53.462  1.00  0.00     0.143 C 
HETATM   23  C18 UNL     1      22.111   0.782  52.613  1.00  0.00     0.118 C 
HETATM   24  C17 UNL     1      22.934   1.775  52.299  1.00  0.00     0.045 C 
ENDBRANCH  12  13
ENDBRANCH   1  12
BRANCH   9  25
HETATM   25  N5  UNL     1      24.346   5.948  51.388  1.00  0.00    -0.398 N 
HETATM   26  H23 UNL     1      23.699   5.160  51.752  1.00  0.00     0.156 HD
HETATM   27  H24 UNL     1      24.317   6.926  51.846  1.00  0.00     0.156 HD
ENDBRANCH   9  25
BRANCH   6  28
HETATM   28  C13 UNL     1      29.222   7.858  47.420  1.00  0.00     0.041 C 
BRANCH  28  29
HETATM   29  C14 UNL     1      30.405   7.922  48.442  1.00  0.00     0.089 C 
HETATM   30 BR1  UNL     1      30.371   9.738  49.153  1.00  0.00    -0.096 Br
ENDBRANCH  28  29
ENDBRANCH   6  28
TORSDOF 5
ENDMDL
MODEL 4
REMARK VINA RESULT:      -7.5      7.575      9.604
REMARK  5 active torsions:
REMARK  status: ('A' for Active; 'I' for Inactive)
REMARK    1  A    between atoms: C6_9  and  C7_10 
REMARK    2  A    between atoms: C7_10  and  C8_11 
REMARK    3  A    between atoms: C12_16  and  C13_17 
REMARK    4  A    between atoms: C13_17  and  C14_18 
REMARK    5  A    between atoms: C16_22  and  N5_23 
ROOT
HETATM    1  C8  UNL     1      27.871   4.982  48.504  1.00  0.00     0.045 A 
HETATM    2  C9  UNL     1      26.760   5.214  49.062  1.00  0.00    -0.029 A 
HETATM    3  C10 UNL     1      26.878   3.760  49.243  1.00  0.00     0.146 A 
HETATM    4  N3  UNL     1      26.111   3.182  50.380  1.00  0.00    -0.374 N 
HETATM    5  C11 UNL     1      24.995   3.629  51.126  1.00  0.00     0.097 C 
HETATM    6  C12 UNL     1      24.643   2.605  51.774  1.00  0.00     0.022 C 
HETATM    7  N4  UNL     1      24.600   4.969  51.260  1.00  0.00    -0.351 N 
HETATM    8  C15 UNL     1      24.832   6.089  50.423  1.00  0.00     0.119 C 
HETATM    9  C16 UNL     1      25.751   6.173  49.490  1.00  0.00     0.045 C 
HETATM   10  H15 UNL     1      26.627   2.281  50.443  1.00  0.00     0.161 HD
HETATM   11  H21 UNL     1      24.070   5.087  52.139  1.00  0.00     0.166 HD
ENDROOT
BRANCH   1  12
HETATM   12  C7  UNL     1      27.865   6.532  48.207  1.00  0.00     0.091 C 
BRANCH  12  13
HETATM   13  C6  UNL     1      29.236   6.955  48.241  1.00  0.00     0.024 C 
HETATM   14  N2  UNL     1      29.586   8.028  49.402  1.00  0.00    -0.356 N 
HETATM   15  C5  UNL     1      30.066   9.239  49.253  1.00  0.00     0.217 C 
HETATM   16  H10 UNL     1      29.370   7.601  50.360  1.00  0.00     0.162 HD
HETATM   17  C4  UNL     1      30.633  10.663  49.104  1.00  0.00     0.104 C 
HETATM   18  O1  UNL     1      29.953   9.107  48.058  1.00  0.00    -0.274 OA
HETATM   19  C3  UNL     1      31.300  10.332  47.591  1.00  0.00     0.028 C 
HETATM   20  C2  UNL     1      32.055   9.048  47.801  1.00  0.00     0.117 C 
HETATM   21  N1  UNL     1      32.481   8.055  47.011  1.00  0.00    -0.417 N 
HETATM   22  C1  UNL     1      33.472   7.998  46.068  1.00  0.00     0.143 C 
HETATM   23  C18 UNL     1      31.685   6.779  46.901  1.00  0.00     0.118 C 
HETATM   24  C17 UNL     1      30.552   6.912  47.578  1.00  0.00     0.045 C 
ENDBRANCH  12  13
ENDBRANCH   1  12
BRANCH   9  25
HETATM   25  N5  UNL     1      25.845   7.290  48.683  1.00  0.00    -0.398 N 
HETATM   26  H23 UNL     1      25.494   7.474  47.676  1.00  0.00     0.156 HD
HETATM   27  H24 UNL     1      26.362   8.068  49.225  1.00  0.00     0.156 HD
ENDBRANCH   9  25
BRANCH   6  28
HETATM   28  C13 UNL     1      23.438   2.662  52.676  1.00  0.00     0.041 C 
BRANCH  28  29
HETATM   29  C14 UNL     1      23.093   1.137  52.717  1.00  0.00     0.089 C 
HETATM   30 BR1  UNL     1      24.774   0.240  53.133  1.00  0.00    -0.096 Br
ENDBRANCH  28  29
ENDBRANCH   6  28
TORSDOF 5
ENDMDL
MODEL 5
REMARK VINA RESULT:      -7.4      7.053      8.912
REMARK  5 active torsions:
REMARK  status: ('A' for Active; 'I' for Inactive)
REMARK    1  A    between atoms: C6_9  and  C7_10 
REMARK    2  A    between atoms: C7_10  and  C8_11 
REMARK    3  A    between atoms: C12_16  and  C13_17 
REMARK    4  A    between atoms: C13_17  and  C14_18 
REMARK    5  A    between atoms: C16_22  and  N5_23 
ROOT
HETATM    1  C8  UNL     1      27.505   4.904  48.596  1.00  0.00     0.045 A 
HETATM    2  C9  UNL     1      26.426   4.919  49.256  1.00  0.00    -0.029 A 
HETATM    3  C10 UNL     1      26.792   3.498  49.333  1.00  0.00     0.146 A 
HETATM    4  N3  UNL     1      26.235   2.744  50.489  1.00  0.00    -0.374 N 
HETATM    5  C11 UNL     1      25.134   2.961  51.350  1.00  0.00     0.097 C 
HETATM    6  C12 UNL     1      25.012   1.862  51.957  1.00  0.00     0.022 C 
HETATM    7  N4  UNL     1      24.542   4.209  51.602  1.00  0.00    -0.351 N 
HETATM    8  C15 UNL     1      24.515   5.393  50.823  1.00  0.00     0.119 C 
HETATM    9  C16 UNL     1      25.319   5.675  49.826  1.00  0.00     0.045 C 
HETATM   10  H15 UNL     1      26.892   1.939  50.451  1.00  0.00     0.161 HD
HETATM   11  H21 UNL     1      24.082   4.192  52.528  1.00  0.00     0.166 HD
ENDROOT
BRANCH   1  12
HETATM   12  C7  UNL     1      27.223   6.444  48.402  1.00  0.00     0.091 C 
BRANCH  12  13
HETATM   13  C6  UNL     1      28.438   7.016  47.896  1.00  0.00     0.024 C 
HETATM   14  N2  UNL     1      29.712   6.016  47.906  1.00  0.00    -0.356 N 
HETATM   15  C5  UNL     1      30.853   6.182  48.531  1.00  0.00     0.217 C 
HETATM   16  H10 UNL     1      29.499   5.159  47.301  1.00  0.00     0.162 HD
HETATM   17  C4  UNL     1      32.202   6.355  49.252  1.00  0.00     0.104 C 
HETATM   18  O1  UNL     1      30.395   7.173  49.047  1.00  0.00    -0.274 OA
HETATM   19  C3  UNL     1      32.042   8.032  49.332  1.00  0.00     0.028 C 
HETATM   20  C2  UNL     1      31.681   8.429  47.927  1.00  0.00     0.117 C 
HETATM   21  N1  UNL     1      31.068   9.475  47.361  1.00  0.00    -0.417 N 
HETATM   22  C1  UNL     1      31.455  10.777  47.186  1.00  0.00     0.143 C 
HETATM   23  C18 UNL     1      29.610   9.389  46.990  1.00  0.00     0.118 C 
HETATM   24  C17 UNL     1      29.118   8.233  47.418  1.00  0.00     0.045 C 
ENDBRANCH  12  13
ENDBRANCH   1  12
BRANCH   9  25
HETATM   25  N5  UNL     1      25.159   6.832  49.088  1.00  0.00    -0.398 N 
HETATM   26  H23 UNL     1      24.775   7.806  49.364  1.00  0.00     0.156 HD
HETATM   27  H24 UNL     1      25.506   6.653  48.081  1.00  0.00     0.156 HD
ENDBRANCH   9  25
BRANCH   6  28
HETATM   28  C13 UNL     1      23.900   1.673  52.956  1.00  0.00     0.041 C 
BRANCH  28  29
HETATM   29  C14 UNL     1      24.261   0.233  53.451  1.00  0.00     0.089 C 
HETATM   30 BR1  UNL     1      22.549  -0.628  53.815  1.00  0.00    -0.096 Br
ENDBRANCH  28  29
ENDBRANCH   6  28
TORSDOF 5
ENDMDL
MODEL 6
REMARK VINA RESULT:      -7.4      2.042      3.064
REMARK  5 active torsions:
REMARK  status: ('A' for Active; 'I' for Inactive)
REMARK    1  A    between atoms: C6_9  and  C7_10 
REMARK    2  A    between atoms: C7_10  and  C8_11 
REMARK    3  A    between atoms: C12_16  and  C13_17 
REMARK    4  A    between atoms: C13_17  and  C14_18 
REMARK    5  A    between atoms: C16_22  and  N5_23 
ROOT
HETATM    1  C8  UNL     1      21.742   0.232  51.841  1.00  0.00     0.045 A 
HETATM    2  C9  UNL     1      20.609  -0.042  52.331  1.00  0.00    -0.029 A 
HETATM    3  C10 UNL     1      20.230   0.695  51.118  1.00  0.00     0.146 A 
HETATM    4  N3  UNL     1      18.873   0.406  50.579  1.00  0.00    -0.374 N 
HETATM    5  C11 UNL     1      17.698  -0.140  51.147  1.00  0.00     0.097 C 
HETATM    6  C12 UNL     1      16.811   0.104  50.285  1.00  0.00     0.022 C 
HETATM    7  N4  UNL     1      17.661  -0.969  52.279  1.00  0.00    -0.351 N 
HETATM    8  C15 UNL     1      18.571  -1.102  53.358  1.00  0.00     0.119 C 
HETATM    9  C16 UNL     1      19.819  -0.697  53.364  1.00  0.00     0.045 C 
HETATM   10  H15 UNL     1      19.026   0.786  49.624  1.00  0.00     0.161 HD
HETATM   11  H21 UNL     1      16.812  -1.559  52.247  1.00  0.00     0.166 HD
ENDROOT
BRANCH   1  12
HETATM   12  C7  UNL     1      22.298  -0.508  53.120  1.00  0.00     0.091 C 
BRANCH  12  13
HETATM   13  C6  UNL     1      23.533   0.141  53.455  1.00  0.00     0.024 C 
HETATM   14  N2  UNL     1      23.700   1.634  52.851  1.00  0.00    -0.356 N 
HETATM   15  C5  UNL     1      24.635   2.068  52.040  1.00  0.00     0.217 C 
HETATM   16  H10 UNL     1      22.913   2.259  53.220  1.00  0.00     0.162 HD
HETATM   17  C4  UNL     1      25.724   2.603  51.091  1.00  0.00     0.104 C 
HETATM   18  O1  UNL     1      25.049   0.937  51.954  1.00  0.00    -0.274 OA
HETATM   19  C3  UNL     1      26.820   1.401  51.532  1.00  0.00     0.028 C 
HETATM   20  C2  UNL     1      26.802   1.428  53.036  1.00  0.00     0.117 C 
HETATM   21  N1  UNL     1      27.108   0.559  54.007  1.00  0.00    -0.417 N 
HETATM   22  C1  UNL     1      28.305   0.060  54.445  1.00  0.00     0.143 C 
HETATM   23  C18 UNL     1      26.019  -0.235  54.683  1.00  0.00     0.118 C 
HETATM   24  C17 UNL     1      24.863   0.006  54.077  1.00  0.00     0.045 C 
ENDBRANCH  12  13
ENDBRANCH   1  12
BRANCH   9  25
HETATM   25  N5  UNL     1      20.599  -0.815  54.498  1.00  0.00    -0.398 N 
HETATM   26  H23 UNL     1      20.540  -1.497  55.337  1.00  0.00     0.156 HD
HETATM   27  H24 UNL     1      21.382  -0.073  54.460  1.00  0.00     0.156 HD
ENDBRANCH   9  25
BRANCH   6  28
HETATM   28  C13 UNL     1      15.380  -0.293  50.542  1.00  0.00     0.041 C 
BRANCH  28  29
HETATM   29  C14 UNL     1      14.868   1.041  51.180  1.00  0.00     0.089 C 
HETATM   30 BR1  UNL     1      14.322   0.566  52.991  1.00  0.00    -0.096 Br
ENDBRANCH  28  29
ENDBRANCH   6  28
TORSDOF 5
ENDMDL
MODEL 7
REMARK VINA RESULT:      -7.3      5.706      9.031
REMARK  5 active torsions:
REMARK  status: ('A' for Active; 'I' for Inactive)
REMARK    1  A    between atoms: C6_9  and  C7_10 
REMARK    2  A    between atoms: C7_10  and  C8_11 
REMARK    3  A    between atoms: C12_16  and  C13_17 
REMARK    4  A    between atoms: C13_17  and  C14_18 
REMARK    5  A    between atoms: C16_22  and  N5_23 
ROOT
HETATM    1  C8  UNL     1      25.232   2.719  50.444  1.00  0.00     0.045 A 
HETATM    2  C9  UNL     1      25.246   3.983  50.398  1.00  0.00    -0.029 A 
HETATM    3  C10 UNL     1      26.577   3.658  49.865  1.00  0.00     0.146 A 
HETATM    4  N3  UNL     1      27.195   4.690  48.988  1.00  0.00    -0.374 N 
HETATM    5  C11 UNL     1      26.982   6.078  48.822  1.00  0.00     0.097 C 
HETATM    6  C12 UNL     1      27.972   6.450  48.135  1.00  0.00     0.022 C 
HETATM    7  N4  UNL     1      25.795   6.755  49.147  1.00  0.00    -0.351 N 
HETATM    8  C15 UNL     1      24.770   6.432  50.070  1.00  0.00     0.119 C 
HETATM    9  C16 UNL     1      24.555   5.250  50.596  1.00  0.00     0.045 C 
HETATM   10  H15 UNL     1      27.904   4.075  48.540  1.00  0.00     0.161 HD
HETATM   11  H21 UNL     1      25.718   7.612  48.572  1.00  0.00     0.166 HD
ENDROOT
BRANCH   1  12
HETATM   12  C7  UNL     1      23.793   2.916  51.063  1.00  0.00     0.091 C 
BRANCH  12  13
HETATM   13  C6  UNL     1      23.429   1.657  51.646  1.00  0.00     0.024 C 
HETATM   14  N2  UNL     1      22.098   0.980  51.019  1.00  0.00    -0.356 N 
HETATM   15  C5  UNL     1      20.990   0.665  51.647  1.00  0.00     0.217 C 
HETATM   16  H10 UNL     1      22.244   0.805  49.973  1.00  0.00     0.162 HD
HETATM   17  C4  UNL     1      19.681   0.283  52.361  1.00  0.00     0.104 C 
HETATM   18  O1  UNL     1      21.433   1.195  52.637  1.00  0.00    -0.274 OA
HETATM   19  C3  UNL     1      20.429   0.191  53.869  1.00  0.00     0.028 C 
HETATM   20  C2  UNL     1      21.638  -0.670  53.620  1.00  0.00     0.117 C 
HETATM   21  N1  UNL     1      22.822  -0.845  54.221  1.00  0.00    -0.417 N 
HETATM   22  C1  UNL     1      23.167  -1.427  55.410  1.00  0.00     0.143 C 
HETATM   23  C18 UNL     1      24.049  -0.146  53.693  1.00  0.00     0.118 C 
HETATM   24  C17 UNL     1      23.697   0.670  52.708  1.00  0.00     0.045 C 
ENDBRANCH  12  13
ENDBRANCH   1  12
BRANCH   9  25
HETATM   25  N5  UNL     1      23.566   5.061  51.541  1.00  0.00    -0.398 N 
HETATM   26  H23 UNL     1      23.563   4.503  52.469  1.00  0.00     0.156 HD
HETATM   27  H24 UNL     1      22.682   5.600  51.233  1.00  0.00     0.156 HD
ENDBRANCH   9  25
BRANCH   6  28
HETATM   28  C13 UNL     1      28.135   7.903  47.772  1.00  0.00     0.041 C 
BRANCH  28  29
HETATM   29  C14 UNL     1      29.276   7.762  46.711  1.00  0.00     0.089 C 
HETATM   30 BR1  UNL     1      30.562   6.527  47.501  1.00  0.00    -0.096 Br
ENDBRANCH  28  29
ENDBRANCH   6  28
TORSDOF 5
ENDMDL
MODEL 8
REMARK VINA RESULT:      -7.0      6.212      9.489
REMARK  5 active torsions:
REMARK  status: ('A' for Active; 'I' for Inactive)
REMARK    1  A    between atoms: C6_9  and  C7_10 
REMARK    2  A    between atoms: C7_10  and  C8_11 
REMARK    3  A    between atoms: C12_16  and  C13_17 
REMARK    4  A    between atoms: C13_17  and  C14_18 
REMARK    5  A    between atoms: C16_22  and  N5_23 
ROOT
HETATM    1  C8  UNL     1      24.544   4.996  50.775  1.00  0.00     0.045 A 
HETATM    2  C9  UNL     1      25.531   5.102  49.990  1.00  0.00    -0.029 A 
HETATM    3  C10 UNL     1      25.046   6.489  50.037  1.00  0.00     0.146 A 
HETATM    4  N3  UNL     1      26.052   7.540  49.719  1.00  0.00    -0.374 N 
HETATM    5  C11 UNL     1      27.283   7.527  49.022  1.00  0.00     0.097 C 
HETATM    6  C12 UNL     1      27.542   8.750  48.857  1.00  0.00     0.022 C 
HETATM    7  N4  UNL     1      28.089   6.393  48.831  1.00  0.00    -0.351 N 
HETATM    8  C15 UNL     1      27.758   5.015  48.823  1.00  0.00     0.119 C 
HETATM    9  C16 UNL     1      26.664   4.485  49.314  1.00  0.00     0.045 C 
HETATM   10  H15 UNL     1      25.540   8.343  50.136  1.00  0.00     0.161 HD
HETATM   11  H21 UNL     1      29.071   6.687  48.694  1.00  0.00     0.166 HD
ENDROOT
BRANCH   1  12
HETATM   12  C7  UNL     1      24.928   3.465  50.794  1.00  0.00     0.091 C 
BRANCH  12  13
HETATM   13  C6  UNL     1      24.091   2.852  51.785  1.00  0.00     0.024 C 
HETATM   14  N2  UNL     1      24.887   2.210  53.040  1.00  0.00    -0.356 N 
HETATM   15  C5  UNL     1      24.879   0.959  53.437  1.00  0.00     0.217 C 
HETATM   16  H10 UNL     1      25.447   2.975  53.538  1.00  0.00     0.162 HD
HETATM   17  C4  UNL     1      24.884  -0.501  53.924  1.00  0.00     0.104 C 
HETATM   18  O1  UNL     1      24.226   0.682  52.460  1.00  0.00    -0.274 OA
HETATM   19  C3  UNL     1      23.403  -0.840  53.193  1.00  0.00     0.028 C 
HETATM   20  C2  UNL     1      22.512   0.287  53.641  1.00  0.00     0.117 C 
HETATM   21  N1  UNL     1      21.389   0.851  53.182  1.00  0.00    -0.417 N 
HETATM   22  C1  UNL     1      20.096   0.404  53.128  1.00  0.00     0.143 C 
HETATM   23  C18 UNL     1      21.455   2.124  52.377  1.00  0.00     0.118 C 
HETATM   24  C17 UNL     1      22.726   2.434  52.154  1.00  0.00     0.045 C 
ENDBRANCH  12  13
ENDBRANCH   1  12
BRANCH   9  25
HETATM   25  N5  UNL     1      26.411   3.133  49.190  1.00  0.00    -0.398 N 
HETATM   26  H23 UNL     1      26.008   2.415  49.894  1.00  0.00     0.156 HD
HETATM   27  H24 UNL     1      26.679   2.819  48.192  1.00  0.00     0.156 HD
ENDBRANCH   9  25
BRANCH   6  28
HETATM   28  C13 UNL     1      28.779   9.163  48.103  1.00  0.00     0.041 C 
BRANCH  28  29
HETATM   29  C14 UNL     1      29.643   9.663  49.309  1.00  0.00     0.089 C 
HETATM   30 BR1  UNL     1      30.740  11.107  48.591  1.00  0.00    -0.096 Br
ENDBRANCH  28  29
ENDBRANCH   6  28
TORSDOF 5
ENDMDL
MODEL 9
REMARK VINA RESULT:      -6.8      7.493      9.108
REMARK  5 active torsions:
REMARK  status: ('A' for Active; 'I' for Inactive)
REMARK    1  A    between atoms: C6_9  and  C7_10 
REMARK    2  A    between atoms: C7_10  and  C8_11 
REMARK    3  A    between atoms: C12_16  and  C13_17 
REMARK    4  A    between atoms: C13_17  and  C14_18 
REMARK    5  A    between atoms: C16_22  and  N5_23 
ROOT
HETATM    1  C8  UNL     1      25.784   5.720  49.558  1.00  0.00     0.045 A 
HETATM    2  C9  UNL     1      24.955   5.280  50.405  1.00  0.00    -0.029 A 
HETATM    3  C10 UNL     1      25.468   4.030  49.826  1.00  0.00     0.146 A 
HETATM    4  N3  UNL     1      25.359   2.821  50.687  1.00  0.00    -0.374 N 
HETATM    5  C11 UNL     1      24.549   2.490  51.799  1.00  0.00     0.097 C 
HETATM    6  C12 UNL     1      24.724   1.248  51.933  1.00  0.00     0.022 C 
HETATM    7  N4  UNL     1      23.936   3.419  52.654  1.00  0.00    -0.351 N 
HETATM    8  C15 UNL     1      23.559   4.768  52.436  1.00  0.00     0.119 C 
HETATM    9  C16 UNL     1      23.997   5.542  51.471  1.00  0.00     0.045 C 
HETATM   10  H15 UNL     1      26.053   2.236  50.181  1.00  0.00     0.161 HD
HETATM   11  H21 UNL     1      23.776   2.984  53.578  1.00  0.00     0.166 HD
ENDROOT
BRANCH   1  12
HETATM   12  C7  UNL     1      25.302   7.137  50.059  1.00  0.00     0.091 C 
BRANCH  12  13
HETATM   13  C6  UNL     1      25.984   8.104  49.247  1.00  0.00     0.024 C 
HETATM   14  N2  UNL     1      27.318   7.553  48.513  1.00  0.00    -0.356 N 
HETATM   15  C5  UNL     1      28.544   8.001  48.641  1.00  0.00     0.217 C 
HETATM   16  H10 UNL     1      27.061   6.736  47.870  1.00  0.00     0.162 HD
HETATM   17  C4  UNL     1      29.991   8.511  48.771  1.00  0.00     0.104 C 
HETATM   18  O1  UNL     1      28.153   8.744  49.508  1.00  0.00    -0.274 OA
HETATM   19  C3  UNL     1      29.497  10.039  49.286  1.00  0.00     0.028 C 
HETATM   20  C2  UNL     1      28.456  10.442  48.278  1.00  0.00     0.117 C 
HETATM   21  N1  UNL     1      27.428  11.298  48.263  1.00  0.00    -0.417 N 
HETATM   22  C1  UNL     1      27.376  12.666  48.246  1.00  0.00     0.143 C 
HETATM   23  C18 UNL     1      26.025  10.801  48.506  1.00  0.00     0.118 C 
HETATM   24  C17 UNL     1      26.067   9.513  48.824  1.00  0.00     0.045 C 
ENDBRANCH  12  13
ENDBRANCH   1  12
BRANCH   9  25
HETATM   25  N5  UNL     1      23.509   6.823  51.309  1.00  0.00    -0.398 N 
HETATM   26  H23 UNL     1      23.735   7.744  51.832  1.00  0.00     0.156 HD
HETATM   27  H24 UNL     1      22.792   6.823  50.502  1.00  0.00     0.156 HD
ENDBRANCH   9  25
BRANCH   6  28
HETATM   28  C13 UNL     1      23.986   0.495  53.009  1.00  0.00     0.041 C 
BRANCH  28  29
HETATM   29  C14 UNL     1      25.209   0.053  53.879  1.00  0.00     0.089 C 
HETATM   30 BR1  UNL     1      26.472  -0.742  52.623  1.00  0.00    -0.096 Br
ENDBRANCH  28  29
ENDBRANCH   6  28
TORSDOF 5
ENDMDL
