MODEL 1
REMARK VINA RESULT:      -9.2      0.000      0.000
REMARK  4 active torsions:
REMARK  status: ('A' for Active; 'I' for Inactive)
REMARK    1  A    between atoms: C4_4  and  C5_5 
REMARK    2  A    between atoms: C6_6  and  N1_7 
REMARK    3  A    between atoms: N5_22  and  C17_23 
REMARK    4  A    between atoms: C17_23  and  C19_25 
ROOT
HETATM    1  C1  UNL     1      25.566   5.548  49.135  1.00  0.00     0.064 C 
HETATM    2  C2  UNL     1      24.604   4.780  49.673  1.00  0.00     0.026 C 
HETATM    3  C3  UNL     1      24.960   3.592  50.441  1.00  0.00     0.054 C 
HETATM    4  C4  UNL     1      26.220   3.265  50.618  1.00  0.00     0.020 C 
HETATM    5  C13 UNL     1      23.795   2.880  50.945  1.00  0.00     0.255 C 
HETATM    6  O1  UNL     1      23.975   1.838  51.623  1.00  0.00    -0.268 OA
HETATM    7  N4  UNL     1      22.486   3.329  50.691  1.00  0.00    -0.331 N 
HETATM    8  C14 UNL     1      22.297   4.731  50.379  1.00  0.00     0.101 C 
HETATM    9  C15 UNL     1      22.343   5.461  51.707  1.00  0.00     0.063 C 
HETATM   10  C16 UNL     1      20.869   4.844  49.878  1.00  0.00     0.063 C 
HETATM   11  N5  UNL     1      23.275   5.209  49.431  1.00  0.00    -0.349 N 
HETATM   12  H12 UNL     1      21.740   2.603  50.748  1.00  0.00     0.165 HD
ENDROOT
BRANCH   4  13
HETATM   13  C5  UNL     1      26.810   2.160  51.326  1.00  0.00     0.019 C 
HETATM   14  C6  UNL     1      27.313   2.285  52.568  1.00  0.00     0.115 C 
BRANCH  14  15
HETATM   15  N1  UNL     1      27.889   1.137  53.217  1.00  0.00    -0.158 N 
HETATM   16  C7  UNL     1      28.899   0.963  54.254  1.00  0.00     0.700 C 
HETATM   17  N2  UNL     1      29.398   2.118  54.672  1.00  0.00    -0.117 NA
HETATM   18  N3  UNL     1      29.072  -0.456  54.549  1.00  0.00    -0.211 N 
HETATM   19  H6  UNL     1      30.133   2.100  55.419  1.00  0.00     0.206 HD
HETATM   20  C8  UNL     1      28.783  -0.903  53.236  1.00  0.00     0.173 A 
HETATM   21  H7  UNL     1      29.328  -0.603  55.557  1.00  0.00     0.179 HD
HETATM   22  C9  UNL     1      28.490  -2.308  52.998  1.00  0.00     0.005 A 
HETATM   23  C12 UNL     1      27.483  -0.221  52.925  1.00  0.00     0.060 A 
HETATM   24  C10 UNL     1      27.233  -2.394  52.591  1.00  0.00     0.000 A 
HETATM   25  C11 UNL     1      26.567  -1.074  52.530  1.00  0.00     0.028 A 
ENDBRANCH  14  15
ENDBRANCH   4  13
BRANCH  11  26
HETATM   26  C17 UNL     1      22.977   6.068  48.299  1.00  0.00     0.116 C 
HETATM   27  C18 UNL     1      22.184   7.271  48.658  1.00  0.00     0.037 C 
BRANCH  26  28
HETATM   28  C19 UNL     1      22.444   5.286  47.147  1.00  0.00    -0.036 A 
HETATM   29  C20 UNL     1      22.277   3.937  46.916  1.00  0.00     0.009 A 
HETATM   30  C21 UNL     1      21.742   3.521  45.717  1.00  0.00     0.001 A 
HETATM   31  C22 UNL     1      21.361   4.389  44.732  1.00  0.00     0.000 A 
HETATM   32  C23 UNL     1      21.519   5.743  44.944  1.00  0.00     0.001 A 
HETATM   33  C24 UNL     1      22.059   6.192  46.148  1.00  0.00     0.009 A 
ENDBRANCH  26  28
ENDBRANCH  11  26
TORSDOF 4
ENDMDL
MODEL 2
REMARK VINA RESULT:      -8.8      4.540      7.073
REMARK  4 active torsions:
REMARK  status: ('A' for Active; 'I' for Inactive)
REMARK    1  A    between atoms: C4_4  and  C5_5 
REMARK    2  A    between atoms: C6_6  and  N1_7 
REMARK    3  A    between atoms: N5_22  and  C17_23 
REMARK    4  A    between atoms: C17_23  and  C19_25 
ROOT
HETATM    1  C1  UNL     1      22.584   1.891  48.701  1.00  0.00     0.064 C 
HETATM    2  C2  UNL     1      22.363   2.719  49.736  1.00  0.00     0.026 C 
HETATM    3  C3  UNL     1      23.335   3.755  50.065  1.00  0.00     0.054 C 
HETATM    4  C4  UNL     1      24.431   3.892  49.352  1.00  0.00     0.020 C 
HETATM    5  C13 UNL     1      22.937   4.554  51.214  1.00  0.00     0.255 C 
HETATM    6  O1  UNL     1      23.695   5.481  51.594  1.00  0.00    -0.268 OA
HETATM    7  N4  UNL     1      21.733   4.314  51.900  1.00  0.00    -0.331 N 
HETATM    8  C14 UNL     1      20.668   3.634  51.189  1.00  0.00     0.101 C 
HETATM    9  C15 UNL     1      20.017   4.688  50.314  1.00  0.00     0.063 C 
HETATM   10  C16 UNL     1      19.646   3.266  52.249  1.00  0.00     0.063 C 
HETATM   11  N5  UNL     1      21.157   2.498  50.446  1.00  0.00    -0.349 N 
HETATM   12  H12 UNL     1      21.699   4.650  52.887  1.00  0.00     0.165 HD
ENDROOT
BRANCH   4  13
HETATM   13  C5  UNL     1      25.520   4.824  49.480  1.00  0.00     0.019 C 
HETATM   14  C6  UNL     1      25.540   6.004  48.831  1.00  0.00     0.115 C 
BRANCH  14  15
HETATM   15  N1  UNL     1      26.662   6.888  49.005  1.00  0.00    -0.158 N 
HETATM   16  C7  UNL     1      26.849   8.158  49.695  1.00  0.00     0.700 C 
HETATM   17  N2  UNL     1      25.735   8.589  50.272  1.00  0.00    -0.117 NA
HETATM   18  N3  UNL     1      28.235   8.599  49.561  1.00  0.00    -0.211 N 
HETATM   19  H6  UNL     1      25.767   9.496  50.795  1.00  0.00     0.206 HD
HETATM   20  C8  UNL     1      28.435   8.025  48.282  1.00  0.00     0.173 A 
HETATM   21  H7  UNL     1      28.541   9.140  50.407  1.00  0.00     0.179 HD
HETATM   22  C9  UNL     1      29.785   7.874  47.761  1.00  0.00     0.005 A 
HETATM   23  C12 UNL     1      27.978   6.608  48.471  1.00  0.00     0.060 A 
HETATM   24  C10 UNL     1      30.031   6.577  47.650  1.00  0.00     0.000 A 
HETATM   25  C11 UNL     1      28.891   5.746  48.092  1.00  0.00     0.028 A 
ENDBRANCH  14  15
ENDBRANCH   4  13
BRANCH  11  26
HETATM   26  C17 UNL     1      20.502   1.203  50.392  1.00  0.00     0.116 C 
HETATM   27  C18 UNL     1      19.072   1.275  49.999  1.00  0.00     0.037 C 
BRANCH  26  28
HETATM   28  C19 UNL     1      20.775   0.403  51.621  1.00  0.00    -0.036 A 
HETATM   29  C20 UNL     1      21.931   0.064  52.291  1.00  0.00     0.009 A 
HETATM   30  C21 UNL     1      21.848  -0.709  53.428  1.00  0.00     0.001 A 
HETATM   31  C22 UNL     1      20.661  -1.162  53.933  1.00  0.00     0.000 A 
HETATM   32  C23 UNL     1      19.493  -0.834  53.278  1.00  0.00     0.001 A 
HETATM   33  C24 UNL     1      19.548  -0.053  52.124  1.00  0.00     0.009 A 
ENDBRANCH  26  28
ENDBRANCH  11  26
TORSDOF 4
ENDMDL
MODEL 3
REMARK VINA RESULT:      -8.8      3.793      7.850
REMARK  4 active torsions:
REMARK  status: ('A' for Active; 'I' for Inactive)
REMARK    1  A    between atoms: C4_4  and  C5_5 
REMARK    2  A    between atoms: C6_6  and  N1_7 
REMARK    3  A    between atoms: N5_22  and  C17_23 
REMARK    4  A    between atoms: C17_23  and  C19_25 
ROOT
HETATM    1  C1  UNL     1      23.806   3.314  48.494  1.00  0.00     0.064 C 
HETATM    2  C2  UNL     1      23.510   4.076  49.560  1.00  0.00     0.026 C 
HETATM    3  C3  UNL     1      24.124   5.389  49.715  1.00  0.00     0.054 C 
HETATM    4  C4  UNL     1      24.969   5.840  48.815  1.00  0.00     0.020 C 
HETATM    5  C13 UNL     1      23.692   6.071  50.925  1.00  0.00     0.255 C 
HETATM    6  O1  UNL     1      24.154   7.214  51.170  1.00  0.00    -0.268 OA
HETATM    7  N4  UNL     1      22.777   5.486  51.819  1.00  0.00    -0.331 N 
HETATM    8  C14 UNL     1      21.891   4.459  51.308  1.00  0.00     0.101 C 
HETATM    9  C15 UNL     1      20.784   5.194  50.578  1.00  0.00     0.063 C 
HETATM   10  C16 UNL     1      21.252   3.831  52.534  1.00  0.00     0.063 C 
HETATM   11  N5  UNL     1      22.590   3.508  50.477  1.00  0.00    -0.349 N 
HETATM   12  H12 UNL     1      22.808   5.842  52.798  1.00  0.00     0.165 HD
ENDROOT
BRANCH   4  13
HETATM   13  C5  UNL     1      25.692   7.084  48.750  1.00  0.00     0.019 C 
HETATM   14  C6  UNL     1      27.003   7.171  49.043  1.00  0.00     0.115 C 
BRANCH  14  15
HETATM   15  N1  UNL     1      27.663   8.448  48.956  1.00  0.00    -0.158 N 
HETATM   16  C7  UNL     1      27.910   9.523  49.909  1.00  0.00     0.700 C 
HETATM   17  N2  UNL     1      27.402   9.264  51.106  1.00  0.00    -0.117 NA
HETATM   18  N3  UNL     1      28.668  10.593  49.267  1.00  0.00    -0.211 N 
HETATM   19  H6  UNL     1      27.528   9.979  51.862  1.00  0.00     0.206 HD
HETATM   20  C8  UNL     1      28.112  10.398  47.979  1.00  0.00     0.173 A 
HETATM   21  H7  UNL     1      29.298  11.074  49.955  1.00  0.00     0.179 HD
HETATM   22  C9  UNL     1      28.747  11.002  46.818  1.00  0.00     0.005 A 
HETATM   23  C12 UNL     1      28.300   8.927  47.748  1.00  0.00     0.060 A 
HETATM   24  C10 UNL     1      29.193  10.022  46.047  1.00  0.00     0.000 A 
HETATM   25  C11 UNL     1      28.917   8.685  46.616  1.00  0.00     0.028 A 
ENDBRANCH  14  15
ENDBRANCH   4  13
BRANCH  11  26
HETATM   26  C17 UNL     1      22.403   2.070  50.532  1.00  0.00     0.116 C 
HETATM   27  C18 UNL     1      20.978   1.653  50.501  1.00  0.00     0.037 C 
BRANCH  26  28
HETATM   28  C19 UNL     1      23.212   1.456  51.624  1.00  0.00    -0.036 A 
HETATM   29  C20 UNL     1      24.456   1.733  52.149  1.00  0.00     0.009 A 
HETATM   30  C21 UNL     1      24.937   0.961  53.184  1.00  0.00     0.001 A 
HETATM   31  C22 UNL     1      24.233  -0.078  53.725  1.00  0.00     0.000 A 
HETATM   32  C23 UNL     1      22.985  -0.371  53.215  1.00  0.00     0.001 A 
HETATM   33  C24 UNL     1      22.474   0.394  52.166  1.00  0.00     0.009 A 
ENDBRANCH  26  28
ENDBRANCH  11  26
TORSDOF 4
ENDMDL
MODEL 4
REMARK VINA RESULT:      -8.5      5.038      7.000
REMARK  4 active torsions:
REMARK  status: ('A' for Active; 'I' for Inactive)
REMARK    1  A    between atoms: C4_4  and  C5_5 
REMARK    2  A    between atoms: C6_6  and  N1_7 
REMARK    3  A    between atoms: N5_22  and  C17_23 
REMARK    4  A    between atoms: C17_23  and  C19_25 
ROOT
HETATM    1  C1  UNL     1      26.129   3.244  49.363  1.00  0.00     0.064 C 
HETATM    2  C2  UNL     1      25.858   4.558  49.426  1.00  0.00     0.026 C 
HETATM    3  C3  UNL     1      26.863   5.534  49.020  1.00  0.00     0.054 C 
HETATM    4  C4  UNL     1      28.039   5.138  48.585  1.00  0.00     0.020 C 
HETATM    5  C13 UNL     1      26.401   6.906  49.156  1.00  0.00     0.255 C 
HETATM    6  O1  UNL     1      27.180   7.839  48.836  1.00  0.00    -0.268 OA
HETATM    7  N4  UNL     1      25.113   7.210  49.635  1.00  0.00    -0.331 N 
HETATM    8  C14 UNL     1      24.086   6.194  49.512  1.00  0.00     0.101 C 
HETATM    9  C15 UNL     1      23.618   6.251  48.071  1.00  0.00     0.063 C 
HETATM   10  C16 UNL     1      22.927   6.689  50.358  1.00  0.00     0.063 C 
HETATM   11  N5  UNL     1      24.567   4.892  49.906  1.00  0.00    -0.349 N 
HETATM   12  H12 UNL     1      24.996   8.159  50.048  1.00  0.00     0.165 HD
ENDROOT
BRANCH   4  13
HETATM   13  C5  UNL     1      29.175   5.898  48.134  1.00  0.00     0.019 C 
HETATM   14  C6  UNL     1      30.385   5.801  48.717  1.00  0.00     0.115 C 
BRANCH  14  15
HETATM   15  N1  UNL     1      31.477   6.592  48.214  1.00  0.00    -0.158 N 
HETATM   16  C7  UNL     1      32.173   7.777  48.699  1.00  0.00     0.700 C 
HETATM   17  N2  UNL     1      31.675   8.222  49.845  1.00  0.00    -0.117 NA
HETATM   18  N3  UNL     1      33.245   8.139  47.776  1.00  0.00    -0.211 N 
HETATM   19  H6  UNL     1      32.109   9.072  50.277  1.00  0.00     0.206 HD
HETATM   20  C8  UNL     1      32.582   7.676  46.613  1.00  0.00     0.173 A 
HETATM   21  H7  UNL     1      34.050   8.578  48.287  1.00  0.00     0.179 HD
HETATM   22  C9  UNL     1      33.332   7.489  45.380  1.00  0.00     0.005 A 
HETATM   23  C12 UNL     1      32.178   6.279  46.987  1.00  0.00     0.060 A 
HETATM   24  C10 UNL     1      33.322   6.195  45.096  1.00  0.00     0.000 A 
HETATM   25  C11 UNL     1      32.588   5.400  46.104  1.00  0.00     0.028 A 
ENDBRANCH  14  15
ENDBRANCH   4  13
BRANCH  11  26
HETATM   26  C17 UNL     1      23.826   3.952  50.727  1.00  0.00     0.116 C 
HETATM   27  C18 UNL     1      24.640   3.334  51.805  1.00  0.00     0.037 C 
BRANCH  26  28
HETATM   28  C19 UNL     1      23.055   2.986  49.892  1.00  0.00    -0.036 A 
HETATM   29  C20 UNL     1      22.806   2.896  48.539  1.00  0.00     0.009 A 
HETATM   30  C21 UNL     1      22.036   1.857  48.064  1.00  0.00     0.001 A 
HETATM   31  C22 UNL     1      21.500   0.898  48.878  1.00  0.00     0.000 A 
HETATM   32  C23 UNL     1      21.738   0.970  50.235  1.00  0.00     0.001 A 
HETATM   33  C24 UNL     1      22.514   2.011  50.742  1.00  0.00     0.009 A 
ENDBRANCH  26  28
ENDBRANCH  11  26
TORSDOF 4
ENDMDL
MODEL 5
REMARK VINA RESULT:      -8.5      2.374      3.899
REMARK  4 active torsions:
REMARK  status: ('A' for Active; 'I' for Inactive)
REMARK    1  A    between atoms: C4_4  and  C5_5 
REMARK    2  A    between atoms: C6_6  and  N1_7 
REMARK    3  A    between atoms: N5_22  and  C17_23 
REMARK    4  A    between atoms: C17_23  and  C19_25 
ROOT
HETATM    1  C1  UNL     1      21.516   1.025  49.394  1.00  0.00     0.064 C 
HETATM    2  C2  UNL     1      21.759   2.195  50.008  1.00  0.00     0.026 C 
HETATM    3  C3  UNL     1      22.803   2.288  51.021  1.00  0.00     0.054 C 
HETATM    4  C4  UNL     1      23.518   1.233  51.340  1.00  0.00     0.020 C 
HETATM    5  C13 UNL     1      22.925   3.626  51.581  1.00  0.00     0.255 C 
HETATM    6  O1  UNL     1      23.794   3.831  52.465  1.00  0.00    -0.268 OA
HETATM    7  N4  UNL     1      22.100   4.683  51.157  1.00  0.00    -0.331 N 
HETATM    8  C14 UNL     1      21.493   4.589  49.844  1.00  0.00     0.101 C 
HETATM    9  C15 UNL     1      22.579   4.975  48.858  1.00  0.00     0.063 C 
HETATM   10  C16 UNL     1      20.458   5.697  49.797  1.00  0.00     0.063 C 
HETATM   11  N5  UNL     1      20.940   3.278  49.599  1.00  0.00    -0.349 N 
HETATM   12  H12 UNL     1      21.986   5.468  51.833  1.00  0.00     0.165 HD
ENDROOT
BRANCH   4  13
HETATM   13  C5  UNL     1      24.587   1.079  52.292  1.00  0.00     0.019 C 
HETATM   14  C6  UNL     1      25.874   0.951  51.918  1.00  0.00     0.115 C 
BRANCH  14  15
HETATM   15  N1  UNL     1      26.892   0.801  52.924  1.00  0.00    -0.158 N 
HETATM   16  C7  UNL     1      27.357   1.638  54.023  1.00  0.00     0.700 C 
HETATM   17  N2  UNL     1      26.705   2.791  54.091  1.00  0.00    -0.117 NA
HETATM   18  N3  UNL     1      28.421   0.957  54.754  1.00  0.00    -0.211 N 
HETATM   19  H6  UNL     1      26.967   3.465  54.850  1.00  0.00     0.206 HD
HETATM   20  C8  UNL     1      28.935   0.265  53.629  1.00  0.00     0.173 A 
HETATM   21  H7  UNL     1      28.407   1.217  55.770  1.00  0.00     0.179 HD
HETATM   22  C9  UNL     1      29.848  -0.851  53.821  1.00  0.00     0.005 A 
HETATM   23  C12 UNL     1      27.715  -0.384  53.044  1.00  0.00     0.060 A 
HETATM   24  C10 UNL     1      29.243  -1.945  53.385  1.00  0.00     0.000 A 
HETATM   25  C11 UNL     1      27.881  -1.675  52.878  1.00  0.00     0.028 A 
ENDBRANCH  14  15
ENDBRANCH   4  13
BRANCH  11  26
HETATM   26  C17 UNL     1      19.649   3.029  48.984  1.00  0.00     0.116 C 
HETATM   27  C18 UNL     1      19.516   3.609  47.624  1.00  0.00     0.037 C 
BRANCH  26  28
HETATM   28  C19 UNL     1      18.530   3.351  49.915  1.00  0.00    -0.036 A 
HETATM   29  C20 UNL     1      18.351   3.186  51.272  1.00  0.00     0.009 A 
HETATM   30  C21 UNL     1      17.171   3.599  51.851  1.00  0.00     0.001 A 
HETATM   31  C22 UNL     1      16.155   4.172  51.138  1.00  0.00     0.000 A 
HETATM   32  C23 UNL     1      16.314   4.347  49.780  1.00  0.00     0.001 A 
HETATM   33  C24 UNL     1      17.499   3.938  49.168  1.00  0.00     0.009 A 
ENDBRANCH  26  28
ENDBRANCH  11  26
TORSDOF 4
ENDMDL
MODEL 6
REMARK VINA RESULT:      -8.4      4.434      7.935
REMARK  4 active torsions:
REMARK  status: ('A' for Active; 'I' for Inactive)
REMARK    1  A    between atoms: C4_4  and  C5_5 
REMARK    2  A    between atoms: C6_6  and  N1_7 
REMARK    3  A    between atoms: N5_22  and  C17_23 
REMARK    4  A    between atoms: C17_23  and  C19_25 
ROOT
HETATM    1  C1  UNL     1      26.015   3.215  49.393  1.00  0.00     0.064 C 
HETATM    2  C2  UNL     1      25.543   4.300  50.028  1.00  0.00     0.026 C 
HETATM    3  C3  UNL     1      26.009   5.630  49.651  1.00  0.00     0.054 C 
HETATM    4  C4  UNL     1      26.891   5.779  48.688  1.00  0.00     0.020 C 
HETATM    5  C13 UNL     1      25.396   6.685  50.443  1.00  0.00     0.255 C 
HETATM    6  O1  UNL     1      25.719   7.877  50.210  1.00  0.00    -0.268 OA
HETATM    7  N4  UNL     1      24.458   6.403  51.453  1.00  0.00    -0.331 N 
HETATM    8  C14 UNL     1      23.730   5.152  51.375  1.00  0.00     0.101 C 
HETATM    9  C15 UNL     1      22.634   5.375  50.351  1.00  0.00     0.063 C 
HETATM   10  C16 UNL     1      23.038   5.004  52.717  1.00  0.00     0.063 C 
HETATM   11  N5  UNL     1      24.597   4.044  51.052  1.00  0.00    -0.349 N 
HETATM   12  H12 UNL     1      24.358   7.129  52.194  1.00  0.00     0.165 HD
ENDROOT
BRANCH   4  13
HETATM   13  C5  UNL     1      27.492   6.969  48.145  1.00  0.00     0.019 C 
HETATM   14  C6  UNL     1      28.725   7.380  48.500  1.00  0.00     0.115 C 
BRANCH  14  15
HETATM   15  N1  UNL     1      29.265   8.580  47.918  1.00  0.00    -0.158 N 
HETATM   16  C7  UNL     1      29.850   9.796  48.469  1.00  0.00     0.700 C 
HETATM   17  N2  UNL     1      29.872   9.789  49.796  1.00  0.00    -0.117 NA
HETATM   18  N3  UNL     1      30.261  10.687  47.389  1.00  0.00    -0.211 N 
HETATM   19  H6  UNL     1      30.275  10.621  50.289  1.00  0.00     0.206 HD
HETATM   20  C8  UNL     1      29.238  10.291  46.492  1.00  0.00     0.173 A 
HETATM   21  H7  UNL     1      31.103  11.249  47.664  1.00  0.00     0.179 HD
HETATM   22  C9  UNL     1      29.338  10.637  45.082  1.00  0.00     0.005 A 
HETATM   23  C12 UNL     1      29.352   8.794  46.489  1.00  0.00     0.060 A 
HETATM   24  C10 UNL     1      29.460   9.509  44.399  1.00  0.00     0.000 A 
HETATM   25  C11 UNL     1      29.466   8.316  45.272  1.00  0.00     0.028 A 
ENDBRANCH  14  15
ENDBRANCH   4  13
BRANCH  11  26
HETATM   26  C17 UNL     1      24.546   2.742  51.692  1.00  0.00     0.116 C 
HETATM   27  C18 UNL     1      25.843   2.018  51.671  1.00  0.00     0.037 C 
BRANCH  26  28
HETATM   28  C19 UNL     1      23.377   1.947  51.220  1.00  0.00    -0.036 A 
HETATM   29  C20 UNL     1      22.724   1.854  50.009  1.00  0.00     0.009 A 
HETATM   30  C21 UNL     1      21.647   1.004  49.889  1.00  0.00     0.001 A 
HETATM   31  C22 UNL     1      21.186   0.237  50.923  1.00  0.00     0.000 A 
HETATM   32  C23 UNL     1      21.826   0.315  52.142  1.00  0.00     0.001 A 
HETATM   33  C24 UNL     1      22.919   1.168  52.292  1.00  0.00     0.009 A 
ENDBRANCH  26  28
ENDBRANCH  11  26
TORSDOF 4
ENDMDL
MODEL 7
REMARK VINA RESULT:      -8.3      4.125      6.356
REMARK  4 active torsions:
REMARK  status: ('A' for Active; 'I' for Inactive)
REMARK    1  A    between atoms: C4_4  and  C5_5 
REMARK    2  A    between atoms: C6_6  and  N1_7 
REMARK    3  A    between atoms: N5_22  and  C17_23 
REMARK    4  A    between atoms: C17_23  and  C19_25 
ROOT
HETATM    1  C1  UNL     1      29.041   6.201  48.176  1.00  0.00     0.064 C 
HETATM    2  C2  UNL     1      27.770   6.614  48.311  1.00  0.00     0.026 C 
HETATM    3  C3  UNL     1      26.751   5.699  48.814  1.00  0.00     0.054 C 
HETATM    4  C4  UNL     1      27.067   4.467  49.143  1.00  0.00     0.020 C 
HETATM    5  C13 UNL     1      25.434   6.313  48.891  1.00  0.00     0.255 C 
HETATM    6  O1  UNL     1      24.473   5.622  49.311  1.00  0.00    -0.268 OA
HETATM    7  N4  UNL     1      25.217   7.649  48.509  1.00  0.00    -0.331 N 
HETATM    8  C14 UNL     1      26.349   8.554  48.525  1.00  0.00     0.101 C 
HETATM    9  C15 UNL     1      26.545   8.948  49.976  1.00  0.00     0.063 C 
HETATM   10  C16 UNL     1      25.878   9.802  47.802  1.00  0.00     0.063 C 
HETATM   11  N5  UNL     1      27.523   7.958  47.932  1.00  0.00    -0.349 N 
HETATM   12  H12 UNL     1      24.239   7.890  48.240  1.00  0.00     0.165 HD
ENDROOT
BRANCH   4  13
HETATM   13  C5  UNL     1      26.251   3.396  49.654  1.00  0.00     0.019 C 
HETATM   14  C6  UNL     1      25.962   3.273  50.964  1.00  0.00     0.115 C 
BRANCH  14  15
HETATM   15  N1  UNL     1      25.140   2.177  51.405  1.00  0.00    -0.158 N 
HETATM   16  C7  UNL     1      23.701   1.949  51.452  1.00  0.00     0.700 C 
HETATM   17  N2  UNL     1      23.010   2.986  50.999  1.00  0.00    -0.117 NA
HETATM   18  N3  UNL     1      23.424   0.617  51.983  1.00  0.00    -0.211 N 
HETATM   19  H6  UNL     1      21.964   2.920  50.992  1.00  0.00     0.206 HD
HETATM   20  C8  UNL     1      24.552   0.577  52.838  1.00  0.00     0.173 A 
HETATM   21  H7  UNL     1      22.551   0.217  51.560  1.00  0.00     0.179 HD
HETATM   22  C9  UNL     1      24.980  -0.690  53.413  1.00  0.00     0.005 A 
HETATM   23  C12 UNL     1      25.685   0.940  51.923  1.00  0.00     0.060 A 
HETATM   24  C10 UNL     1      26.174  -0.974  52.917  1.00  0.00     0.000 A 
HETATM   25  C11 UNL     1      26.651   0.053  51.966  1.00  0.00     0.028 A 
ENDBRANCH  14  15
ENDBRANCH   4  13
BRANCH  11  26
HETATM   26  C17 UNL     1      28.419   8.636  47.013  1.00  0.00     0.116 C 
HETATM   27  C18 UNL     1      29.093   7.722  46.056  1.00  0.00     0.037 C 
BRANCH  26  28
HETATM   28  C19 UNL     1      29.330   9.573  47.732  1.00  0.00    -0.036 A 
HETATM   29  C20 UNL     1      30.064   9.472  48.894  1.00  0.00     0.009 A 
HETATM   30  C21 UNL     1      30.828  10.543  49.303  1.00  0.00     0.001 A 
HETATM   31  C22 UNL     1      30.897  11.716  48.604  1.00  0.00     0.000 A 
HETATM   32  C23 UNL     1      30.170  11.837  47.438  1.00  0.00     0.001 A 
HETATM   33  C24 UNL     1      29.388  10.768  47.001  1.00  0.00     0.009 A 
ENDBRANCH  26  28
ENDBRANCH  11  26
TORSDOF 4
ENDMDL
MODEL 8
REMARK VINA RESULT:      -8.2      3.426      5.040
REMARK  4 active torsions:
REMARK  status: ('A' for Active; 'I' for Inactive)
REMARK    1  A    between atoms: C4_4  and  C5_5 
REMARK    2  A    between atoms: C6_6  and  N1_7 
REMARK    3  A    between atoms: N5_22  and  C17_23 
REMARK    4  A    between atoms: C17_23  and  C19_25 
ROOT
HETATM    1  C1  UNL     1      22.607   4.057  47.869  1.00  0.00     0.064 C 
HETATM    2  C2  UNL     1      23.307   4.398  48.963  1.00  0.00     0.026 C 
HETATM    3  C3  UNL     1      23.336   3.512  50.121  1.00  0.00     0.054 C 
HETATM    4  C4  UNL     1      22.683   2.372  50.104  1.00  0.00     0.020 C 
HETATM    5  C13 UNL     1      24.138   4.041  51.213  1.00  0.00     0.255 C 
HETATM    6  O1  UNL     1      24.240   3.366  52.268  1.00  0.00    -0.268 OA
HETATM    7  N4  UNL     1      24.797   5.281  51.115  1.00  0.00    -0.331 N 
HETATM    8  C14 UNL     1      25.099   5.787  49.791  1.00  0.00     0.101 C 
HETATM    9  C15 UNL     1      26.336   5.038  49.334  1.00  0.00     0.063 C 
HETATM   10  C16 UNL     1      25.525   7.229  49.998  1.00  0.00     0.063 C 
HETATM   11  N5  UNL     1      23.980   5.644  48.891  1.00  0.00    -0.349 N 
HETATM   12  H12 UNL     1      25.020   5.748  52.020  1.00  0.00     0.165 HD
ENDROOT
BRANCH   4  13
HETATM   13  C5  UNL     1      22.563   1.347  51.108  1.00  0.00     0.019 C 
HETATM   14  C6  UNL     1      21.483   1.242  51.905  1.00  0.00     0.115 C 
BRANCH  14  15
HETATM   15  N1  UNL     1      21.430   0.191  52.888  1.00  0.00    -0.158 N 
HETATM   16  C7  UNL     1      20.352  -0.614  53.448  1.00  0.00     0.700 C 
HETATM   17  N2  UNL     1      19.167  -0.292  52.946  1.00  0.00    -0.117 NA
HETATM   18  N3  UNL     1      20.891  -1.569  54.412  1.00  0.00    -0.211 N 
HETATM   19  H6  UNL     1      18.326  -0.817  53.285  1.00  0.00     0.206 HD
HETATM   20  C8  UNL     1      21.954  -0.739  54.842  1.00  0.00     0.173 A 
HETATM   21  H7  UNL     1      20.326  -2.453  54.422  1.00  0.00     0.179 HD
HETATM   22  C9  UNL     1      23.054  -1.309  55.605  1.00  0.00     0.005 A 
HETATM   23  C12 UNL     1      22.606  -0.327  53.554  1.00  0.00     0.060 A 
HETATM   24  C10 UNL     1      24.151  -1.206  54.870  1.00  0.00     0.000 A 
HETATM   25  C11 UNL     1      23.894  -0.577  53.557  1.00  0.00     0.028 A 
ENDBRANCH  14  15
ENDBRANCH   4  13
BRANCH  11  26
HETATM   26  C17 UNL     1      23.534   6.664  47.960  1.00  0.00     0.116 C 
HETATM   27  C18 UNL     1      24.645   7.356  47.258  1.00  0.00     0.037 C 
BRANCH  26  28
HETATM   28  C19 UNL     1      22.527   7.570  48.585  1.00  0.00    -0.036 A 
HETATM   29  C20 UNL     1      21.609   7.406  49.600  1.00  0.00     0.009 A 
HETATM   30  C21 UNL     1      20.800   8.463  49.954  1.00  0.00     0.001 A 
HETATM   31  C22 UNL     1      20.864   9.684  49.341  1.00  0.00     0.000 A 
HETATM   32  C23 UNL     1      21.776   9.869  48.324  1.00  0.00     0.001 A 
HETATM   33  C24 UNL     1      22.607   8.815  47.945  1.00  0.00     0.009 A 
ENDBRANCH  26  28
ENDBRANCH  11  26
TORSDOF 4
ENDMDL
MODEL 9
REMARK VINA RESULT:      -8.1      5.522     10.302
REMARK  4 active torsions:
REMARK  status: ('A' for Active; 'I' for Inactive)
REMARK    1  A    between atoms: C4_4  and  C5_5 
REMARK    2  A    between atoms: C6_6  and  N1_7 
REMARK    3  A    between atoms: N5_22  and  C17_23 
REMARK    4  A    between atoms: C17_23  and  C19_25 
ROOT
HETATM    1  C1  UNL     1      20.865   4.593  51.532  1.00  0.00     0.064 C 
HETATM    2  C2  UNL     1      20.373   3.630  50.735  1.00  0.00     0.026 C 
HETATM    3  C3  UNL     1      18.932   3.430  50.631  1.00  0.00     0.054 C 
HETATM    4  C4  UNL     1      18.103   4.190  51.311  1.00  0.00     0.020 C 
HETATM    5  C13 UNL     1      18.579   2.345  49.728  1.00  0.00     0.255 C 
HETATM    6  O1  UNL     1      17.364   2.077  49.556  1.00  0.00    -0.268 OA
HETATM    7  N4  UNL     1      19.560   1.597  49.051  1.00  0.00    -0.331 N 
HETATM    8  C14 UNL     1      20.859   2.206  48.848  1.00  0.00     0.101 C 
HETATM    9  C15 UNL     1      20.695   3.149  47.672  1.00  0.00     0.063 C 
HETATM   10  C16 UNL     1      21.761   1.082  48.372  1.00  0.00     0.063 C 
HETATM   11  N5  UNL     1      21.340   2.860  50.041  1.00  0.00    -0.349 N 
HETATM   12  H12 UNL     1      19.270   0.645  48.742  1.00  0.00     0.165 HD
ENDROOT
BRANCH   4  13
HETATM   13  C5  UNL     1      16.665   4.186  51.371  1.00  0.00     0.019 C 
HETATM   14  C6  UNL     1      15.988   3.620  52.389  1.00  0.00     0.115 C 
BRANCH  14  15
HETATM   15  N1  UNL     1      14.549   3.653  52.385  1.00  0.00    -0.158 N 
HETATM   16  C7  UNL     1      13.548   4.173  53.308  1.00  0.00     0.700 C 
HETATM   17  N2  UNL     1      14.091   4.721  54.386  1.00  0.00    -0.117 NA
HETATM   18  N3  UNL     1      12.209   3.949  52.770  1.00  0.00    -0.211 N 
HETATM   19  H6  UNL     1      13.453   5.125  55.112  1.00  0.00     0.206 HD
HETATM   20  C8  UNL     1      12.535   2.747  52.096  1.00  0.00     0.173 A 
HETATM   21  H7  UNL     1      11.552   4.712  53.066  1.00  0.00     0.179 HD
HETATM   22  C9  UNL     1      11.629   2.213  51.090  1.00  0.00     0.005 A 
HETATM   23  C12 UNL     1      13.750   3.124  51.299  1.00  0.00     0.060 A 
HETATM   24  C10 UNL     1      12.251   2.259  49.922  1.00  0.00     0.000 A 
HETATM   25  C11 UNL     1      13.611   2.832  50.028  1.00  0.00     0.028 A 
ENDBRANCH  14  15
ENDBRANCH   4  13
BRANCH  11  26
HETATM   26  C17 UNL     1      22.701   2.774  50.538  1.00  0.00     0.116 C 
HETATM   27  C18 UNL     1      23.731   2.876  49.474  1.00  0.00     0.037 C 
BRANCH  26  28
HETATM   28  C19 UNL     1      22.871   1.617  51.465  1.00  0.00    -0.036 A 
HETATM   29  C20 UNL     1      22.014   0.637  51.919  1.00  0.00     0.009 A 
HETATM   30  C21 UNL     1      22.487  -0.317  52.793  1.00  0.00     0.001 A 
HETATM   31  C22 UNL     1      23.780  -0.342  53.238  1.00  0.00     0.000 A 
HETATM   32  C23 UNL     1      24.652   0.629  52.794  1.00  0.00     0.001 A 
HETATM   33  C24 UNL     1      24.200   1.608  51.909  1.00  0.00     0.009 A 
ENDBRANCH  26  28
ENDBRANCH  11  26
TORSDOF 4
ENDMDL
