MODEL 1
REMARK VINA RESULT:      -8.3      0.000      0.000
REMARK  0 active torsions:
REMARK  status: ('A' for Active; 'I' for Inactive)
ROOT
HETATM    1  C1  UNL     1      20.472   1.939  52.515  1.00  0.00     0.071 C 
HETATM    2  C2  UNL     1      21.386   0.926  53.157  1.00  0.00     0.044 A 
HETATM    3  N1  UNL     1      20.925   0.442  54.349  1.00  0.00    -0.246 NA
HETATM    4  C3  UNL     1      21.724  -0.459  54.939  1.00  0.00     0.235 A 
HETATM    5  N2  UNL     1      22.873  -0.799  54.331  1.00  0.00    -0.224 NA
HETATM    6  C4  UNL     1      23.329  -0.328  53.164  1.00  0.00     0.135 A 
HETATM    7  C5  UNL     1      22.570   0.606  52.482  1.00  0.00     0.035 A 
HETATM    8  C6  UNL     1      22.745   1.334  51.183  1.00  0.00     0.212 C 
HETATM    9  O1  UNL     1      23.682   2.317  51.210  1.00  0.00    -0.384 OA
HETATM   10  C7  UNL     1      23.890   3.011  50.091  1.00  0.00     0.194 C 
HETATM   11  C8  UNL     1      25.054   4.028  50.113  1.00  0.00     0.196 C 
HETATM   12  O2  UNL     1      26.240   3.323  50.381  1.00  0.00    -0.365 OA
HETATM   13  C9  UNL     1      26.318   2.850  51.663  1.00  0.00     0.338 C 
HETATM   14  O3  UNL     1      27.473   2.081  51.789  1.00  0.00    -0.358 OA
HETATM   15  C10 UNL     1      27.559   1.544  53.075  1.00  0.00     0.143 C 
HETATM   16  C11 UNL     1      28.636   2.501  53.616  1.00  0.00     0.044 C 
HETATM   17  C12 UNL     1      28.311   0.317  53.232  1.00  0.00     0.016 C 
HETATM   18  C13 UNL     1      28.121  -0.987  53.155  1.00  0.00    -0.030 C 
HETATM   19  C14 UNL     1      26.837  -1.248  53.322  1.00  0.00     0.004 C 
HETATM   20  C15 UNL     1      25.778  -0.219  53.321  1.00  0.00     0.149 C 
HETATM   21  N3  UNL     1      24.563  -1.058  53.088  1.00  0.00    -0.371 N 
HETATM   22  H21 UNL     1      24.615  -2.066  52.888  1.00  0.00     0.161 HD
ENDROOT
TORSDOF 0
ENDMDL
MODEL 2
REMARK VINA RESULT:      -8.2      2.541      4.793
REMARK  0 active torsions:
REMARK  status: ('A' for Active; 'I' for Inactive)
ROOT
HETATM    1  C1  UNL     1      24.240  -1.154  55.497  1.00  0.00     0.071 C 
HETATM    2  C2  UNL     1      25.327  -0.495  54.686  1.00  0.00     0.044 A 
HETATM    3  N1  UNL     1      26.536  -0.441  55.320  1.00  0.00    -0.246 NA
HETATM    4  C3  UNL     1      27.516   0.144  54.617  1.00  0.00     0.235 A 
HETATM    5  N2  UNL     1      27.238   0.614  53.389  1.00  0.00    -0.224 NA
HETATM    6  C4  UNL     1      26.056   0.564  52.764  1.00  0.00     0.135 A 
HETATM    7  C5  UNL     1      24.985  -0.023  53.412  1.00  0.00     0.035 A 
HETATM    8  C6  UNL     1      23.552  -0.264  53.039  1.00  0.00     0.212 C 
HETATM    9  O1  UNL     1      22.773   0.849  53.050  1.00  0.00    -0.384 OA
HETATM   10  C7  UNL     1      21.486   0.711  52.733  1.00  0.00     0.194 C 
HETATM   11  C8  UNL     1      20.657   2.011  52.621  1.00  0.00     0.196 C 
HETATM   12  O2  UNL     1      21.240   2.812  51.624  1.00  0.00    -0.365 OA
HETATM   13  C9  UNL     1      22.452   3.337  51.980  1.00  0.00     0.338 C 
HETATM   14  O3  UNL     1      22.986   4.019  50.889  1.00  0.00    -0.358 OA
HETATM   15  C10 UNL     1      24.247   4.528  51.206  1.00  0.00     0.143 C 
HETATM   16  C11 UNL     1      23.825   5.996  51.389  1.00  0.00     0.044 C 
HETATM   17  C12 UNL     1      25.170   4.739  50.112  1.00  0.00     0.016 C 
HETATM   18  C13 UNL     1      26.078   4.067  49.428  1.00  0.00    -0.030 C 
HETATM   19  C14 UNL     1      26.501   3.048  50.154  1.00  0.00     0.004 C 
HETATM   20  C15 UNL     1      25.855   2.601  51.404  1.00  0.00     0.149 C 
HETATM   21  N3  UNL     1      26.416   1.221  51.539  1.00  0.00    -0.371 N 
HETATM   22  H21 UNL     1      27.003   0.788  50.813  1.00  0.00     0.161 HD
ENDROOT
TORSDOF 0
ENDMDL
MODEL 3
REMARK VINA RESULT:      -8.0      2.068      5.564
REMARK  0 active torsions:
REMARK  status: ('A' for Active; 'I' for Inactive)
ROOT
HETATM    1  C1  UNL     1      27.117   2.431  51.980  1.00  0.00     0.071 C 
HETATM    2  C2  UNL     1      26.444   1.158  52.427  1.00  0.00     0.044 A 
HETATM    3  N1  UNL     1      27.121   0.023  52.080  1.00  0.00    -0.246 NA
HETATM    4  C3  UNL     1      26.538  -1.122  52.464  1.00  0.00     0.235 A 
HETATM    5  N2  UNL     1      25.375  -1.060  53.136  1.00  0.00    -0.224 NA
HETATM    6  C4  UNL     1      24.708   0.049  53.478  1.00  0.00     0.135 A 
HETATM    7  C5  UNL     1      25.235   1.278  53.124  1.00  0.00     0.035 A 
HETATM    8  C6  UNL     1      24.792   2.695  53.333  1.00  0.00     0.212 C 
HETATM    9  O1  UNL     1      23.741   3.075  52.560  1.00  0.00    -0.384 OA
HETATM   10  C7  UNL     1      23.294   4.325  52.689  1.00  0.00     0.194 C 
HETATM   11  C8  UNL     1      22.015   4.687  51.899  1.00  0.00     0.196 C 
HETATM   12  O2  UNL     1      20.983   3.838  52.333  1.00  0.00    -0.365 OA
HETATM   13  C9  UNL     1      21.141   2.537  51.939  1.00  0.00     0.338 C 
HETATM   14  O3  UNL     1      20.128   1.768  52.508  1.00  0.00    -0.358 OA
HETATM   15  C10 UNL     1      20.288   0.425  52.163  1.00  0.00     0.143 C 
HETATM   16  C11 UNL     1      19.173   0.360  51.105  1.00  0.00     0.044 C 
HETATM   17  C12 UNL     1      19.738  -0.562  53.067  1.00  0.00     0.016 C 
HETATM   18  C13 UNL     1      20.092  -1.234  54.147  1.00  0.00    -0.030 C 
HETATM   19  C14 UNL     1      21.411  -1.277  54.217  1.00  0.00     0.004 C 
HETATM   20  C15 UNL     1      22.310  -0.471  53.367  1.00  0.00     0.149 C 
HETATM   21  N3  UNL     1      23.586  -0.554  54.141  1.00  0.00    -0.371 N 
HETATM   22  H21 UNL     1      23.646  -1.000  55.066  1.00  0.00     0.161 HD
ENDROOT
TORSDOF 0
ENDMDL
MODEL 4
REMARK VINA RESULT:      -7.7      2.779      4.481
REMARK  0 active torsions:
REMARK  status: ('A' for Active; 'I' for Inactive)
ROOT
HETATM    1  C1  UNL     1      19.323   0.608  50.712  1.00  0.00     0.071 C 
HETATM    2  C2  UNL     1      20.603   1.250  50.239  1.00  0.00     0.044 A 
HETATM    3  N1  UNL     1      20.664   1.433  48.887  1.00  0.00    -0.246 NA
HETATM    4  C3  UNL     1      21.796   1.999  48.443  1.00  0.00     0.235 A 
HETATM    5  N2  UNL     1      22.745   2.328  49.336  1.00  0.00    -0.224 NA
HETATM    6  C4  UNL     1      22.691   2.150  50.661  1.00  0.00     0.135 A 
HETATM    7  C5  UNL     1      21.560   1.573  51.209  1.00  0.00     0.035 A 
HETATM    8  C6  UNL     1      21.145   1.231  52.609  1.00  0.00     0.212 C 
HETATM    9  O1  UNL     1      21.784   0.156  53.139  1.00  0.00    -0.384 OA
HETATM   10  C7  UNL     1      21.464  -0.210  54.380  1.00  0.00     0.194 C 
HETATM   11  C8  UNL     1      22.302  -1.349  55.004  1.00  0.00     0.196 C 
HETATM   12  O2  UNL     1      23.643  -0.933  55.036  1.00  0.00    -0.365 OA
HETATM   13  C9  UNL     1      24.226  -0.864  53.799  1.00  0.00     0.338 C 
HETATM   14  O3  UNL     1      25.510  -0.342  53.935  1.00  0.00    -0.358 OA
HETATM   15  C10 UNL     1      26.115  -0.215  52.683  1.00  0.00     0.143 C 
HETATM   16  C11 UNL     1      27.049  -1.434  52.792  1.00  0.00     0.044 C 
HETATM   17  C12 UNL     1      27.147   0.791  52.544  1.00  0.00     0.016 C 
HETATM   18  C13 UNL     1      27.256   2.076  52.259  1.00  0.00    -0.030 C 
HETATM   19  C14 UNL     1      26.187   2.463  51.586  1.00  0.00     0.004 C 
HETATM   20  C15 UNL     1      24.969   1.644  51.430  1.00  0.00     0.149 C 
HETATM   21  N3  UNL     1      23.976   2.683  51.017  1.00  0.00    -0.371 N 
HETATM   22  H21 UNL     1      24.201   3.687  50.996  1.00  0.00     0.161 HD
ENDROOT
TORSDOF 0
ENDMDL
MODEL 5
REMARK VINA RESULT:      -7.2      7.796     10.743
REMARK  0 active torsions:
REMARK  status: ('A' for Active; 'I' for Inactive)
ROOT
HETATM    1  C1  UNL     1      33.780   7.791  48.163  1.00  0.00     0.071 C 
HETATM    2  C2  UNL     1      32.682   6.758  48.112  1.00  0.00     0.044 A 
HETATM    3  N1  UNL     1      33.025   5.618  47.441  1.00  0.00    -0.246 NA
HETATM    4  C3  UNL     1      32.063   4.687  47.380  1.00  0.00     0.235 A 
HETATM    5  N2  UNL     1      30.879   4.943  47.964  1.00  0.00    -0.224 NA
HETATM    6  C4  UNL     1      30.538   6.057  48.623  1.00  0.00     0.135 A 
HETATM    7  C5  UNL     1      31.470   7.074  48.737  1.00  0.00     0.035 A 
HETATM    8  C6  UNL     1      31.455   8.425  49.387  1.00  0.00     0.212 C 
HETATM    9  O1  UNL     1      30.718   9.358  48.730  1.00  0.00    -0.384 OA
HETATM   10  C7  UNL     1      30.662  10.586  49.248  1.00  0.00     0.194 C 
HETATM   11  C8  UNL     1      29.709  11.586  48.555  1.00  0.00     0.196 C 
HETATM   12  O2  UNL     1      28.408  11.059  48.615  1.00  0.00    -0.365 OA
HETATM   13  C9  UNL     1      28.223   9.965  47.813  1.00  0.00     0.338 C 
HETATM   14  O3  UNL     1      26.942   9.461  48.029  1.00  0.00    -0.358 OA
HETATM   15  C10 UNL     1      26.737   8.315  47.259  1.00  0.00     0.143 C 
HETATM   16  C11 UNL     1      25.851   8.960  46.179  1.00  0.00     0.044 C 
HETATM   17  C12 UNL     1      25.765   7.357  47.742  1.00  0.00     0.016 C 
HETATM   18  C13 UNL     1      25.708   6.313  48.549  1.00  0.00    -0.030 C 
HETATM   19  C14 UNL     1      26.918   5.798  48.677  1.00  0.00     0.004 C 
HETATM   20  C15 UNL     1      28.151   6.458  48.204  1.00  0.00     0.149 C 
HETATM   21  N3  UNL     1      29.190   5.711  48.977  1.00  0.00    -0.371 N 
HETATM   22  H21 UNL     1      28.953   5.017  49.698  1.00  0.00     0.161 HD
ENDROOT
TORSDOF 0
ENDMDL
MODEL 6
REMARK VINA RESULT:      -7.0      2.671      5.820
REMARK  0 active torsions:
REMARK  status: ('A' for Active; 'I' for Inactive)
ROOT
HETATM    1  C1  UNL     1      25.618   4.766  49.935  1.00  0.00     0.071 C 
HETATM    2  C2  UNL     1      25.604   3.509  50.768  1.00  0.00     0.044 A 
HETATM    3  N1  UNL     1      26.611   2.636  50.470  1.00  0.00    -0.246 NA
HETATM    4  C3  UNL     1      26.615   1.509  51.196  1.00  0.00     0.235 A 
HETATM    5  N2  UNL     1      25.660   1.337  52.126  1.00  0.00    -0.224 NA
HETATM    6  C4  UNL     1      24.672   2.189  52.423  1.00  0.00     0.135 A 
HETATM    7  C5  UNL     1      24.588   3.380  51.724  1.00  0.00     0.035 A 
HETATM    8  C6  UNL     1      23.653   4.551  51.779  1.00  0.00     0.212 C 
HETATM    9  O1  UNL     1      22.423   4.314  51.253  1.00  0.00    -0.384 OA
HETATM   10  C7  UNL     1      21.538   5.312  51.264  1.00  0.00     0.194 C 
HETATM   11  C8  UNL     1      20.108   4.974  50.786  1.00  0.00     0.196 C 
HETATM   12  O2  UNL     1      19.597   3.967  51.623  1.00  0.00    -0.365 OA
HETATM   13  C9  UNL     1      20.198   2.750  51.446  1.00  0.00     0.338 C 
HETATM   14  O3  UNL     1      19.696   1.859  52.392  1.00  0.00    -0.358 OA
HETATM   15  C10 UNL     1      20.323   0.618  52.269  1.00  0.00     0.143 C 
HETATM   16  C11 UNL     1      19.165  -0.118  51.572  1.00  0.00     0.044 C 
HETATM   17  C12 UNL     1      20.382  -0.215  53.451  1.00  0.00     0.016 C 
HETATM   18  C13 UNL     1      21.156  -0.401  54.504  1.00  0.00    -0.030 C 
HETATM   19  C14 UNL     1      22.370   0.043  54.232  1.00  0.00     0.004 C 
HETATM   20  C15 UNL     1      22.707   0.851  53.043  1.00  0.00     0.149 C 
HETATM   21  N3  UNL     1      24.020   1.435  53.456  1.00  0.00    -0.371 N 
HETATM   22  H21 UNL     1      24.412   1.306  54.399  1.00  0.00     0.161 HD
ENDROOT
TORSDOF 0
ENDMDL
MODEL 7
REMARK VINA RESULT:      -6.9      3.481      5.766
REMARK  0 active torsions:
REMARK  status: ('A' for Active; 'I' for Inactive)
ROOT
HETATM    1  C1  UNL     1      23.086   1.565  52.374  1.00  0.00     0.071 C 
HETATM    2  C2  UNL     1      24.479   1.857  51.878  1.00  0.00     0.044 A 
HETATM    3  N1  UNL     1      25.467   1.309  52.647  1.00  0.00    -0.246 NA
HETATM    4  C3  UNL     1      26.715   1.560  52.226  1.00  0.00     0.235 A 
HETATM    5  N2  UNL     1      26.886   2.304  51.120  1.00  0.00    -0.224 NA
HETATM    6  C4  UNL     1      25.922   2.842  50.363  1.00  0.00     0.135 A 
HETATM    7  C5  UNL     1      24.602   2.636  50.721  1.00  0.00     0.035 A 
HETATM    8  C6  UNL     1      23.290   3.061  50.132  1.00  0.00     0.212 C 
HETATM    9  O1  UNL     1      22.991   4.374  50.313  1.00  0.00    -0.384 OA
HETATM   10  C7  UNL     1      21.837   4.824  49.819  1.00  0.00     0.194 C 
HETATM   11  C8  UNL     1      21.588   6.346  49.920  1.00  0.00     0.196 C 
HETATM   12  O2  UNL     1      22.614   7.000  49.217  1.00  0.00    -0.365 OA
HETATM   13  C9  UNL     1      23.835   6.922  49.831  1.00  0.00     0.338 C 
HETATM   14  O3  UNL     1      24.792   7.506  49.004  1.00  0.00    -0.358 OA
HETATM   15  C10 UNL     1      26.059   7.401  49.581  1.00  0.00     0.143 C 
HETATM   16  C11 UNL     1      26.181   8.860  50.055  1.00  0.00     0.044 C 
HETATM   17  C12 UNL     1      27.197   7.404  48.688  1.00  0.00     0.016 C 
HETATM   18  C13 UNL     1      27.912   6.551  47.978  1.00  0.00    -0.030 C 
HETATM   19  C14 UNL     1      27.772   5.340  48.488  1.00  0.00     0.004 C 
HETATM   20  C15 UNL     1      26.767   4.986  49.510  1.00  0.00     0.149 C 
HETATM   21  N3  UNL     1      26.740   3.496  49.381  1.00  0.00    -0.371 N 
HETATM   22  H21 UNL     1      27.260   2.994  48.649  1.00  0.00     0.161 HD
ENDROOT
TORSDOF 0
ENDMDL
MODEL 8
REMARK VINA RESULT:      -6.8      7.158      9.349
REMARK  0 active torsions:
REMARK  status: ('A' for Active; 'I' for Inactive)
ROOT
HETATM    1  C1  UNL     1      23.913   9.078  48.747  1.00  0.00     0.071 C 
HETATM    2  C2  UNL     1      25.262   9.746  48.832  1.00  0.00     0.044 A 
HETATM    3  N1  UNL     1      25.305  10.982  48.252  1.00  0.00    -0.246 NA
HETATM    4  C3  UNL     1      26.498  11.592  48.312  1.00  0.00     0.235 A 
HETATM    5  N2  UNL     1      27.517  10.960  48.917  1.00  0.00    -0.224 NA
HETATM    6  C4  UNL     1      27.480   9.749  49.487  1.00  0.00     0.135 A 
HETATM    7  C5  UNL     1      26.290   9.044  49.474  1.00  0.00     0.035 A 
HETATM    8  C6  UNL     1      25.873   7.703  50.002  1.00  0.00     0.212 C 
HETATM    9  O1  UNL     1      26.350   6.647  49.293  1.00  0.00    -0.384 OA
HETATM   10  C7  UNL     1      26.017   5.422  49.702  1.00  0.00     0.194 C 
HETATM   11  C8  UNL     1      26.683   4.240  48.961  1.00  0.00     0.196 C 
HETATM   12  O2  UNL     1      28.074   4.358  49.119  1.00  0.00    -0.365 OA
HETATM   13  C9  UNL     1      28.618   5.406  48.426  1.00  0.00     0.338 C 
HETATM   14  O3  UNL     1      29.973   5.495  48.736  1.00  0.00    -0.358 OA
HETATM   15  C10 UNL     1      30.549   6.585  48.080  1.00  0.00     0.143 C 
HETATM   16  C11 UNL     1      31.278   5.790  46.982  1.00  0.00     0.044 C 
HETATM   17  C12 UNL     1      31.722   7.179  48.684  1.00  0.00     0.016 C 
HETATM   18  C13 UNL     1      32.026   8.098  49.582  1.00  0.00    -0.030 C 
HETATM   19  C14 UNL     1      31.011   8.933  49.707  1.00  0.00     0.004 C 
HETATM   20  C15 UNL     1      29.672   8.699  49.129  1.00  0.00     0.149 C 
HETATM   21  N3  UNL     1      28.845   9.659  49.923  1.00  0.00    -0.371 N 
HETATM   22  H21 UNL     1      29.226  10.198  50.712  1.00  0.00     0.161 HD
ENDROOT
TORSDOF 0
ENDMDL
MODEL 9
REMARK VINA RESULT:      -6.8      3.430      6.206
REMARK  0 active torsions:
REMARK  status: ('A' for Active; 'I' for Inactive)
ROOT
HETATM    1  C1  UNL     1      25.066   7.117  48.443  1.00  0.00     0.071 C 
HETATM    2  C2  UNL     1      25.667   5.882  49.066  1.00  0.00     0.044 A 
HETATM    3  N1  UNL     1      26.783   5.425  48.423  1.00  0.00    -0.246 NA
HETATM    4  C3  UNL     1      27.332   4.326  48.957  1.00  0.00     0.235 A 
HETATM    5  N2  UNL     1      26.760   3.782  50.045  1.00  0.00    -0.224 NA
HETATM    6  C4  UNL     1      25.668   4.226  50.679  1.00  0.00     0.135 A 
HETATM    7  C5  UNL     1      25.033   5.357  50.198  1.00  0.00     0.035 A 
HETATM    8  C6  UNL     1      23.826   6.132  50.634  1.00  0.00     0.212 C 
HETATM    9  O1  UNL     1      22.641   5.521  50.373  1.00  0.00    -0.384 OA
HETATM   10  C7  UNL     1      21.522   6.155  50.729  1.00  0.00     0.194 C 
HETATM   11  C8  UNL     1      20.199   5.378  50.544  1.00  0.00     0.196 C 
HETATM   12  O2  UNL     1      20.270   4.209  51.321  1.00  0.00    -0.365 OA
HETATM   13  C9  UNL     1      21.155   3.283  50.837  1.00  0.00     0.338 C 
HETATM   14  O3  UNL     1      21.226   2.218  51.733  1.00  0.00    -0.358 OA
HETATM   15  C10 UNL     1      22.157   1.276  51.292  1.00  0.00     0.143 C 
HETATM   16  C11 UNL     1      21.150   0.232  50.776  1.00  0.00     0.044 C 
HETATM   17  C12 UNL     1      22.783   0.442  52.295  1.00  0.00     0.016 C 
HETATM   18  C13 UNL     1      23.825   0.469  53.106  1.00  0.00    -0.030 C 
HETATM   19  C14 UNL     1      24.721   1.316  52.633  1.00  0.00     0.004 C 
HETATM   20  C15 UNL     1      24.461   2.262  51.529  1.00  0.00     0.149 C 
HETATM   21  N3  UNL     1      25.583   3.233  51.713  1.00  0.00    -0.371 N 
HETATM   22  H21 UNL     1      26.229   3.189  52.513  1.00  0.00     0.161 HD
ENDROOT
TORSDOF 0
ENDMDL
