MODEL 1
REMARK VINA RESULT:      -8.6      0.000      0.000
REMARK  6 active torsions:
REMARK  status: ('A' for Active; 'I' for Inactive)
REMARK    1  A    between atoms: C7_8  and  N1_9 
REMARK    2  A    between atoms: N1_9  and  C8_10 
REMARK    3  A    between atoms: C15_19  and  N4_20 
REMARK       I    between atoms: N4_20  and  C16_21 
REMARK    4  A    between atoms: C16_21  and  C17_23 
REMARK    5  A    between atoms: C18_24  and  C19_25 
REMARK    6  A    between atoms: C19_25  and  N5_26 
ROOT
HETATM    1  C8  UNL     1      23.142   1.212  52.877  1.00  0.00     0.067 A 
HETATM    2  C9  UNL     1      22.559   0.212  53.629  1.00  0.00     0.089 A 
HETATM    3  C10 UNL     1      21.122   0.264  53.791  1.00  0.00     0.103 C 
HETATM    4  N2  UNL     1      19.984   0.301  53.923  1.00  0.00    -0.191 NA
HETATM    5  C11 UNL     1      23.320  -0.791  54.200  1.00  0.00     0.142 A 
HETATM    6  N3  UNL     1      24.659  -0.775  54.005  1.00  0.00    -0.259 NA
HETATM    7  C12 UNL     1      25.253   0.187  53.277  1.00  0.00     0.069 A 
HETATM    8  C13 UNL     1      26.604   0.200  53.084  1.00  0.00     0.035 A 
HETATM    9  C14 UNL     1      27.154   1.211  52.328  1.00  0.00     0.032 A 
HETATM   10  C15 UNL     1      26.467   2.234  51.733  1.00  0.00     0.035 A 
HETATM   11  C22 UNL     1      25.108   2.181  51.956  1.00  0.00     0.045 A 
HETATM   12  C23 UNL     1      24.509   1.191  52.703  1.00  0.00     0.023 A 
ENDROOT
BRANCH   1  13
HETATM   13  N1  UNL     1      22.360   2.250  52.286  1.00  0.00    -0.354 N 
HETATM   14  H7  UNL     1      21.996   3.000  52.905  1.00  0.00     0.166 HD
BRANCH  13  15
HETATM   15  C7  UNL     1      22.126   2.190  50.878  1.00  0.00     0.040 A 
HETATM   16  C2  UNL     1      22.322   3.305  50.085  1.00  0.00    -0.018 A 
HETATM   17  C1  UNL     1      22.780   4.597  50.676  1.00  0.00     0.052 C 
HETATM   18  C3  UNL     1      22.092   3.242  48.708  1.00  0.00     0.019 A 
HETATM   19 BR1  UNL     1      22.345   4.746  47.564  1.00  0.00    -0.051 Br
HETATM   20  C4  UNL     1      21.665   2.019  48.195  1.00  0.00     0.020 A 
HETATM   21  C5  UNL     1      21.470   0.905  48.985  1.00  0.00     0.004 A 
HETATM   22  C6  UNL     1      21.703   0.981  50.361  1.00  0.00     0.030 A 
ENDBRANCH  13  15
ENDBRANCH   1  13
BRANCH  10  23
HETATM   23  N4  UNL     1      26.967   3.281  50.961  1.00  0.00    -0.324 N 
HETATM   24  C16 UNL     1      26.560   3.717  49.676  1.00  0.00     0.245 C 
HETATM   25  O1  UNL     1      25.626   3.116  49.101  1.00  0.00    -0.268 OA
HETATM   26  H11 UNL     1      27.751   3.868  51.322  1.00  0.00     0.169 HD
BRANCH  24  27
HETATM   27  C17 UNL     1      27.156   4.830  48.959  1.00  0.00     0.072 C 
HETATM   28  C18 UNL     1      26.579   5.998  48.765  1.00  0.00     0.008 C 
BRANCH  28  29
HETATM   29  C19 UNL     1      25.329   6.702  49.066  1.00  0.00     0.299 C 
BRANCH  29  30
HETATM   30  N5  UNL     1      25.459   7.545  50.256  1.00  0.00     0.083 N 
HETATM   31  C20 UNL     1      24.184   8.132  50.538  1.00  0.00     0.309 C 
HETATM   32  C21 UNL     1      26.527   8.487  50.130  1.00  0.00     0.309 C 
ENDBRANCH  29  30
ENDBRANCH  28  29
ENDBRANCH  24  27
ENDBRANCH  10  23
TORSDOF 6
ENDMDL
MODEL 2
REMARK VINA RESULT:      -8.4      3.111      6.677
REMARK  6 active torsions:
REMARK  status: ('A' for Active; 'I' for Inactive)
REMARK    1  A    between atoms: C7_8  and  N1_9 
REMARK    2  A    between atoms: N1_9  and  C8_10 
REMARK    3  A    between atoms: C15_19  and  N4_20 
REMARK       I    between atoms: N4_20  and  C16_21 
REMARK    4  A    between atoms: C16_21  and  C17_23 
REMARK    5  A    between atoms: C18_24  and  C19_25 
REMARK    6  A    between atoms: C19_25  and  N5_26 
ROOT
HETATM    1  C8  UNL     1      24.931   0.685  52.953  1.00  0.00     0.067 A 
HETATM    2  C9  UNL     1      26.240   0.967  53.289  1.00  0.00     0.089 A 
HETATM    3  C10 UNL     1      26.978   1.828  52.390  1.00  0.00     0.103 C 
HETATM    4  N2  UNL     1      27.568   2.509  51.681  1.00  0.00    -0.191 NA
HETATM    5  C11 UNL     1      26.813   0.446  54.434  1.00  0.00     0.142 A 
HETATM    6  N3  UNL     1      26.061  -0.352  55.226  1.00  0.00    -0.259 NA
HETATM    7  C12 UNL     1      24.784  -0.642  54.923  1.00  0.00     0.069 A 
HETATM    8  C13 UNL     1      24.029  -1.448  55.726  1.00  0.00     0.035 A 
HETATM    9  C14 UNL     1      22.726  -1.709  55.362  1.00  0.00     0.032 A 
HETATM   10  C15 UNL     1      22.092  -1.230  54.248  1.00  0.00     0.035 A 
HETATM   11  C22 UNL     1      22.892  -0.423  53.469  1.00  0.00     0.045 A 
HETATM   12  C23 UNL     1      24.199  -0.131  53.788  1.00  0.00     0.023 A 
ENDROOT
BRANCH   1  13
HETATM   13  N1  UNL     1      24.334   1.222  51.771  1.00  0.00    -0.354 N 
HETATM   14  H7  UNL     1      24.539   0.755  50.866  1.00  0.00     0.166 HD
BRANCH  13  15
HETATM   15  C7  UNL     1      23.493   2.367  51.910  1.00  0.00     0.040 A 
HETATM   16  C2  UNL     1      22.262   2.415  51.284  1.00  0.00    -0.018 A 
HETATM   17  C1  UNL     1      21.779   1.275  50.450  1.00  0.00     0.052 C 
HETATM   18  C3  UNL     1      21.442   3.539  51.422  1.00  0.00     0.019 A 
HETATM   19 BR1  UNL     1      19.734   3.661  50.583  1.00  0.00    -0.051 Br
HETATM   20  C4  UNL     1      21.927   4.582  52.208  1.00  0.00     0.020 A 
HETATM   21  C5  UNL     1      23.157   4.535  52.834  1.00  0.00     0.004 A 
HETATM   22  C6  UNL     1      23.967   3.406  52.687  1.00  0.00     0.030 A 
ENDBRANCH  13  15
ENDBRANCH   1  13
BRANCH  10  23
HETATM   23  N4  UNL     1      20.782  -1.460  53.830  1.00  0.00    -0.324 N 
HETATM   24  C16 UNL     1      19.778  -0.522  53.483  1.00  0.00     0.245 C 
HETATM   25  O1  UNL     1      20.044   0.699  53.541  1.00  0.00    -0.268 OA
HETATM   26  H11 UNL     1      20.427  -2.436  53.737  1.00  0.00     0.169 HD
BRANCH  24  27
HETATM   27  C17 UNL     1      18.436  -0.876  53.056  1.00  0.00     0.072 C 
HETATM   28  C18 UNL     1      17.895  -0.532  51.905  1.00  0.00     0.008 C 
BRANCH  28  29
HETATM   29  C19 UNL     1      18.220   0.213  50.685  1.00  0.00     0.299 C 
BRANCH  29  30
HETATM   30  N5  UNL     1      17.012   0.600  49.954  1.00  0.00     0.083 N 
HETATM   31  C20 UNL     1      16.211   1.426  50.805  1.00  0.00     0.309 C 
HETATM   32  C21 UNL     1      16.326  -0.532  49.416  1.00  0.00     0.309 C 
ENDBRANCH  29  30
ENDBRANCH  28  29
ENDBRANCH  24  27
ENDBRANCH  10  23
TORSDOF 6
ENDMDL
MODEL 3
REMARK VINA RESULT:      -8.3      2.589      5.787
REMARK  6 active torsions:
REMARK  status: ('A' for Active; 'I' for Inactive)
REMARK    1  A    between atoms: C7_8  and  N1_9 
REMARK    2  A    between atoms: N1_9  and  C8_10 
REMARK    3  A    between atoms: C15_19  and  N4_20 
REMARK       I    between atoms: N4_20  and  C16_21 
REMARK    4  A    between atoms: C16_21  and  C17_23 
REMARK    5  A    between atoms: C18_24  and  C19_25 
REMARK    6  A    between atoms: C19_25  and  N5_26 
ROOT
HETATM    1  C8  UNL     1      25.486   0.776  53.040  1.00  0.00     0.067 A 
HETATM    2  C9  UNL     1      26.660   0.860  53.760  1.00  0.00     0.089 A 
HETATM    3  C10 UNL     1      27.736   1.632  53.178  1.00  0.00     0.103 C 
HETATM    4  N2  UNL     1      28.592   2.241  52.720  1.00  0.00    -0.191 NA
HETATM    5  C11 UNL     1      26.795   0.230  54.984  1.00  0.00     0.142 A 
HETATM    6  N3  UNL     1      25.746  -0.474  55.467  1.00  0.00    -0.259 NA
HETATM    7  C12 UNL     1      24.591  -0.572  54.786  1.00  0.00     0.069 A 
HETATM    8  C13 UNL     1      23.534  -1.284  55.276  1.00  0.00     0.035 A 
HETATM    9  C14 UNL     1      22.377  -1.347  54.532  1.00  0.00     0.032 A 
HETATM   10  C15 UNL     1      22.170  -0.752  53.317  1.00  0.00     0.035 A 
HETATM   11  C22 UNL     1      23.262  -0.045  52.862  1.00  0.00     0.045 A 
HETATM   12  C23 UNL     1      24.441   0.049  53.567  1.00  0.00     0.023 A 
ENDROOT
BRANCH   1  13
HETATM   13  N1  UNL     1      25.342   1.424  51.775  1.00  0.00    -0.354 N 
HETATM   14  H7  UNL     1      25.604   0.893  50.922  1.00  0.00     0.166 HD
BRANCH  13  15
HETATM   15  C7  UNL     1      24.846   2.763  51.765  1.00  0.00     0.040 A 
HETATM   16  C2  UNL     1      25.198   3.635  50.752  1.00  0.00    -0.018 A 
HETATM   17  C1  UNL     1      26.101   3.203  49.646  1.00  0.00     0.052 C 
HETATM   18  C3  UNL     1      24.710   4.945  50.746  1.00  0.00     0.019 A 
HETATM   19 BR1  UNL     1      25.160   6.192  49.376  1.00  0.00    -0.051 Br
HETATM   20  C4  UNL     1      23.869   5.311  51.795  1.00  0.00     0.020 A 
HETATM   21  C5  UNL     1      23.517   4.441  52.807  1.00  0.00     0.004 A 
HETATM   22  C6  UNL     1      24.012   3.134  52.802  1.00  0.00     0.030 A 
ENDBRANCH  13  15
ENDBRANCH   1  13
BRANCH  10  23
HETATM   23  N4  UNL     1      21.026  -0.781  52.521  1.00  0.00    -0.324 N 
HETATM   24  C16 UNL     1      19.961   0.151  52.453  1.00  0.00     0.245 C 
HETATM   25  O1  UNL     1      19.995   1.163  53.188  1.00  0.00    -0.268 OA
HETATM   26  H11 UNL     1      20.871  -1.572  51.859  1.00  0.00     0.169 HD
BRANCH  24  27
HETATM   27  C17 UNL     1      18.810   0.020  51.579  1.00  0.00     0.072 C 
HETATM   28  C18 UNL     1      18.625   0.703  50.468  1.00  0.00     0.008 C 
BRANCH  28  29
HETATM   29  C19 UNL     1      19.280   1.731  49.654  1.00  0.00     0.299 C 
BRANCH  29  30
HETATM   30  N5  UNL     1      20.731   1.729  49.850  1.00  0.00     0.083 N 
HETATM   31  C20 UNL     1      21.157   3.071  50.103  1.00  0.00     0.309 C 
HETATM   32  C21 UNL     1      21.416   1.085  48.772  1.00  0.00     0.309 C 
ENDBRANCH  29  30
ENDBRANCH  28  29
ENDBRANCH  24  27
ENDBRANCH  10  23
TORSDOF 6
ENDMDL
MODEL 4
REMARK VINA RESULT:      -8.2      3.017      7.064
REMARK  6 active torsions:
REMARK  status: ('A' for Active; 'I' for Inactive)
REMARK    1  A    between atoms: C7_8  and  N1_9 
REMARK    2  A    between atoms: N1_9  and  C8_10 
REMARK    3  A    between atoms: C15_19  and  N4_20 
REMARK       I    between atoms: N4_20  and  C16_21 
REMARK    4  A    between atoms: C16_21  and  C17_23 
REMARK    5  A    between atoms: C18_24  and  C19_25 
REMARK    6  A    between atoms: C19_25  and  N5_26 
ROOT
HETATM    1  C8  UNL     1      25.314   0.766  52.950  1.00  0.00     0.067 A 
HETATM    2  C9  UNL     1      26.486   0.828  53.677  1.00  0.00     0.089 A 
HETATM    3  C10 UNL     1      27.576   1.589  53.106  1.00  0.00     0.103 C 
HETATM    4  N2  UNL     1      28.442   2.190  52.657  1.00  0.00    -0.191 NA
HETATM    5  C11 UNL     1      26.606   0.187  54.897  1.00  0.00     0.142 A 
HETATM    6  N3  UNL     1      25.544  -0.506  55.368  1.00  0.00    -0.259 NA
HETATM    7  C12 UNL     1      24.392  -0.582  54.681  1.00  0.00     0.069 A 
HETATM    8  C13 UNL     1      23.323  -1.284  55.161  1.00  0.00     0.035 A 
HETATM    9  C14 UNL     1      22.169  -1.325  54.410  1.00  0.00     0.032 A 
HETATM   10  C15 UNL     1      21.976  -0.718  53.199  1.00  0.00     0.035 A 
HETATM   11  C22 UNL     1      23.080  -0.023  52.755  1.00  0.00     0.045 A 
HETATM   12  C23 UNL     1      24.256   0.049  53.466  1.00  0.00     0.023 A 
ENDROOT
BRANCH   1  13
HETATM   13  N1  UNL     1      25.186   1.425  51.689  1.00  0.00    -0.354 N 
HETATM   14  H7  UNL     1      25.409   0.885  50.831  1.00  0.00     0.166 HD
BRANCH  13  15
HETATM   15  C7  UNL     1      24.759   2.787  51.690  1.00  0.00     0.040 A 
HETATM   16  C2  UNL     1      25.216   3.668  50.727  1.00  0.00    -0.018 A 
HETATM   17  C1  UNL     1      26.164   3.221  49.665  1.00  0.00     0.052 C 
HETATM   18  C3  UNL     1      24.795   5.001  50.732  1.00  0.00     0.019 A 
HETATM   19 BR1  UNL     1      25.390   6.260  49.431  1.00  0.00    -0.051 Br
HETATM   20  C4  UNL     1      23.909   5.380  51.739  1.00  0.00     0.020 A 
HETATM   21  C5  UNL     1      23.452   4.502  52.701  1.00  0.00     0.004 A 
HETATM   22  C6  UNL     1      23.881   3.172  52.685  1.00  0.00     0.030 A 
ENDBRANCH  13  15
ENDBRANCH   1  13
BRANCH  10  23
HETATM   23  N4  UNL     1      20.837  -0.726  52.396  1.00  0.00    -0.324 N 
HETATM   24  C16 UNL     1      19.906   0.315  52.157  1.00  0.00     0.245 C 
HETATM   25  O1  UNL     1      20.077   1.421  52.717  1.00  0.00    -0.268 OA
HETATM   26  H11 UNL     1      20.574  -1.587  51.869  1.00  0.00     0.169 HD
BRANCH  24  27
HETATM   27  C17 UNL     1      18.745   0.197  51.294  1.00  0.00     0.072 C 
HETATM   28  C18 UNL     1      17.588  -0.321  51.653  1.00  0.00     0.008 C 
BRANCH  28  29
HETATM   29  C19 UNL     1      16.938  -0.930  52.817  1.00  0.00     0.299 C 
BRANCH  29  30
HETATM   30  N5  UNL     1      15.484  -0.982  52.656  1.00  0.00     0.083 N 
HETATM   31  C20 UNL     1      15.189  -1.509  51.359  1.00  0.00     0.309 C 
HETATM   32  C21 UNL     1      14.869   0.279  52.934  1.00  0.00     0.309 C 
ENDBRANCH  29  30
ENDBRANCH  28  29
ENDBRANCH  24  27
ENDBRANCH  10  23
TORSDOF 6
ENDMDL
MODEL 5
REMARK VINA RESULT:      -8.1      1.449      1.990
REMARK  6 active torsions:
REMARK  status: ('A' for Active; 'I' for Inactive)
REMARK    1  A    between atoms: C7_8  and  N1_9 
REMARK    2  A    between atoms: N1_9  and  C8_10 
REMARK    3  A    between atoms: C15_19  and  N4_20 
REMARK       I    between atoms: N4_20  and  C16_21 
REMARK    4  A    between atoms: C16_21  and  C17_23 
REMARK    5  A    between atoms: C18_24  and  C19_25 
REMARK    6  A    between atoms: C19_25  and  N5_26 
ROOT
HETATM    1  C8  UNL     1      23.034   1.174  52.743  1.00  0.00     0.067 A 
HETATM    2  C9  UNL     1      22.628   0.047  53.428  1.00  0.00     0.089 A 
HETATM    3  C10 UNL     1      21.209  -0.104  53.667  1.00  0.00     0.103 C 
HETATM    4  N2  UNL     1      20.086  -0.227  53.859  1.00  0.00    -0.191 NA
HETATM    5  C11 UNL     1      23.544  -0.893  53.866  1.00  0.00     0.142 A 
HETATM    6  N3  UNL     1      24.855  -0.685  53.606  1.00  0.00    -0.259 NA
HETATM    7  C12 UNL     1      25.277   0.404  52.941  1.00  0.00     0.069 A 
HETATM    8  C13 UNL     1      26.602   0.609  52.681  1.00  0.00     0.035 A 
HETATM    9  C14 UNL     1      26.973   1.744  51.995  1.00  0.00     0.032 A 
HETATM   10  C15 UNL     1      26.127   2.715  51.532  1.00  0.00     0.035 A 
HETATM   11  C22 UNL     1      24.802   2.466  51.817  1.00  0.00     0.045 A 
HETATM   12  C23 UNL     1      24.379   1.347  52.499  1.00  0.00     0.023 A 
ENDROOT
BRANCH   1  13
HETATM   13  N1  UNL     1      22.092   2.147  52.290  1.00  0.00    -0.354 N 
HETATM   14  H7  UNL     1      21.659   2.774  52.996  1.00  0.00     0.166 HD
BRANCH  13  15
HETATM   15  C7  UNL     1      21.804   2.197  50.892  1.00  0.00     0.040 A 
HETATM   16  C2  UNL     1      21.759   3.407  50.226  1.00  0.00    -0.018 A 
HETATM   17  C1  UNL     1      22.009   4.690  50.946  1.00  0.00     0.052 C 
HETATM   18  C3  UNL     1      21.477   3.450  48.857  1.00  0.00     0.019 A 
HETATM   19 BR1  UNL     1      21.401   5.089  47.886  1.00  0.00    -0.051 Br
HETATM   20  C4  UNL     1      21.250   2.232  48.221  1.00  0.00     0.020 A 
HETATM   21  C5  UNL     1      21.295   1.023  48.885  1.00  0.00     0.004 A 
HETATM   22  C6  UNL     1      21.578   0.993  50.253  1.00  0.00     0.030 A 
ENDBRANCH  13  15
ENDBRANCH   1  13
BRANCH  10  23
HETATM   23  N4  UNL     1      26.442   3.880  50.835  1.00  0.00    -0.324 N 
HETATM   24  C16 UNL     1      25.917   4.358  49.609  1.00  0.00     0.245 C 
HETATM   25  O1  UNL     1      25.043   3.683  49.021  1.00  0.00    -0.268 OA
HETATM   26  H11 UNL     1      27.158   4.538  51.214  1.00  0.00     0.169 HD
BRANCH  24  27
HETATM   27  C17 UNL     1      26.321   5.597  48.969  1.00  0.00     0.072 C 
HETATM   28  C18 UNL     1      27.508   5.822  48.445  1.00  0.00     0.008 C 
BRANCH  28  29
HETATM   29  C19 UNL     1      28.796   5.152  48.240  1.00  0.00     0.299 C 
BRANCH  29  30
HETATM   30  N5  UNL     1      29.919   6.045  48.529  1.00  0.00     0.083 N 
HETATM   31  C20 UNL     1      29.517   7.389  48.243  1.00  0.00     0.309 C 
HETATM   32  C21 UNL     1      31.115   5.633  47.863  1.00  0.00     0.309 C 
ENDBRANCH  29  30
ENDBRANCH  28  29
ENDBRANCH  24  27
ENDBRANCH  10  23
TORSDOF 6
ENDMDL
MODEL 6
REMARK VINA RESULT:      -7.9      2.990      6.403
REMARK  6 active torsions:
REMARK  status: ('A' for Active; 'I' for Inactive)
REMARK    1  A    between atoms: C7_8  and  N1_9 
REMARK    2  A    between atoms: N1_9  and  C8_10 
REMARK    3  A    between atoms: C15_19  and  N4_20 
REMARK       I    between atoms: N4_20  and  C16_21 
REMARK    4  A    between atoms: C16_21  and  C17_23 
REMARK    5  A    between atoms: C18_24  and  C19_25 
REMARK    6  A    between atoms: C19_25  and  N5_26 
ROOT
HETATM    1  C8  UNL     1      25.225   0.723  53.035  1.00  0.00     0.067 A 
HETATM    2  C9  UNL     1      26.445   0.847  53.668  1.00  0.00     0.089 A 
HETATM    3  C10 UNL     1      27.455   1.641  53.001  1.00  0.00     0.103 C 
HETATM    4  N2  UNL     1      28.258   2.268  52.476  1.00  0.00    -0.191 NA
HETATM    5  C11 UNL     1      26.686   0.236  54.885  1.00  0.00     0.142 A 
HETATM    6  N3  UNL     1      25.694  -0.491  55.449  1.00  0.00    -0.259 NA
HETATM    7  C12 UNL     1      24.496  -0.628  54.854  1.00  0.00     0.069 A 
HETATM    8  C13 UNL     1      23.498  -1.363  55.428  1.00  0.00     0.035 A 
HETATM    9  C14 UNL     1      22.292  -1.466  54.770  1.00  0.00     0.032 A 
HETATM   10  C15 UNL     1      21.982  -0.892  53.567  1.00  0.00     0.035 A 
HETATM   11  C22 UNL     1      23.018  -0.161  53.027  1.00  0.00     0.045 A 
HETATM   12  C23 UNL     1      24.241  -0.026  53.644  1.00  0.00     0.023 A 
ENDROOT
BRANCH   1  13
HETATM   13  N1  UNL     1      24.972   1.351  51.778  1.00  0.00    -0.354 N 
HETATM   14  H7  UNL     1      25.064   0.777  50.918  1.00  0.00     0.166 HD
BRANCH  13  15
HETATM   15  C7  UNL     1      24.609   2.732  51.784  1.00  0.00     0.040 A 
HETATM   16  C2  UNL     1      25.084   3.588  50.808  1.00  0.00    -0.018 A 
HETATM   17  C1  UNL     1      25.985   3.095  49.727  1.00  0.00     0.052 C 
HETATM   18  C3  UNL     1      24.726   4.940  50.819  1.00  0.00     0.019 A 
HETATM   19 BR1  UNL     1      25.349   6.167  49.500  1.00  0.00    -0.051 Br
HETATM   20  C4  UNL     1      23.882   5.362  51.845  1.00  0.00     0.020 A 
HETATM   21  C5  UNL     1      23.407   4.508  52.819  1.00  0.00     0.004 A 
HETATM   22  C6  UNL     1      23.773   3.159  52.798  1.00  0.00     0.030 A 
ENDBRANCH  13  15
ENDBRANCH   1  13
BRANCH  10  23
HETATM   23  N4  UNL     1      20.785  -0.961  52.857  1.00  0.00    -0.324 N 
HETATM   24  C16 UNL     1      19.831   0.057  52.611  1.00  0.00     0.245 C 
HETATM   25  O1  UNL     1      20.035   1.202  53.074  1.00  0.00    -0.268 OA
HETATM   26  H11 UNL     1      20.490  -1.860  52.416  1.00  0.00     0.169 HD
BRANCH  24  27
HETATM   27  C17 UNL     1      18.609  -0.128  51.850  1.00  0.00     0.072 C 
HETATM   28  C18 UNL     1      17.845   0.846  51.400  1.00  0.00     0.008 C 
BRANCH  28  29
HETATM   29  C19 UNL     1      17.774   2.311  51.392  1.00  0.00     0.299 C 
BRANCH  29  30
HETATM   30  N5  UNL     1      16.389   2.782  51.353  1.00  0.00     0.083 N 
HETATM   31  C20 UNL     1      16.343   4.104  51.899  1.00  0.00     0.309 C 
HETATM   32  C21 UNL     1      15.491   1.857  51.972  1.00  0.00     0.309 C 
ENDBRANCH  29  30
ENDBRANCH  28  29
ENDBRANCH  24  27
ENDBRANCH  10  23
TORSDOF 6
ENDMDL
MODEL 7
REMARK VINA RESULT:      -7.8      2.547      6.455
REMARK  6 active torsions:
REMARK  status: ('A' for Active; 'I' for Inactive)
REMARK    1  A    between atoms: C7_8  and  N1_9 
REMARK    2  A    between atoms: N1_9  and  C8_10 
REMARK    3  A    between atoms: C15_19  and  N4_20 
REMARK       I    between atoms: N4_20  and  C16_21 
REMARK    4  A    between atoms: C16_21  and  C17_23 
REMARK    5  A    between atoms: C18_24  and  C19_25 
REMARK    6  A    between atoms: C19_25  and  N5_26 
ROOT
HETATM    1  C8  UNL     1      25.442   1.629  53.374  1.00  0.00     0.067 A 
HETATM    2  C9  UNL     1      26.642   1.074  53.771  1.00  0.00     0.089 A 
HETATM    3  C10 UNL     1      27.781   1.962  53.858  1.00  0.00     0.103 C 
HETATM    4  N2  UNL     1      28.687   2.661  53.928  1.00  0.00    -0.191 NA
HETATM    5  C11 UNL     1      26.743  -0.273  54.069  1.00  0.00     0.142 A 
HETATM    6  N3  UNL     1      25.635  -1.042  53.964  1.00  0.00    -0.259 NA
HETATM    7  C12 UNL     1      24.454  -0.526  53.581  1.00  0.00     0.069 A 
HETATM    8  C13 UNL     1      23.338  -1.306  53.476  1.00  0.00     0.035 A 
HETATM    9  C14 UNL     1      22.157  -0.721  53.079  1.00  0.00     0.032 A 
HETATM   10  C15 UNL     1      21.981   0.601  52.768  1.00  0.00     0.035 A 
HETATM   11  C22 UNL     1      23.132   1.348  52.887  1.00  0.00     0.045 A 
HETATM   12  C23 UNL     1      24.337   0.811  53.281  1.00  0.00     0.023 A 
ENDROOT
BRANCH   1  13
HETATM   13  N1  UNL     1      25.332   3.020  53.065  1.00  0.00    -0.354 N 
HETATM   14  H7  UNL     1      25.248   3.690  53.854  1.00  0.00     0.166 HD
BRANCH  13  15
HETATM   15  C7  UNL     1      25.346   3.400  51.689  1.00  0.00     0.040 A 
HETATM   16  C2  UNL     1      24.416   4.298  51.199  1.00  0.00    -0.018 A 
HETATM   17  C1  UNL     1      23.378   4.892  52.090  1.00  0.00     0.052 C 
HETATM   18  C3  UNL     1      24.433   4.667  49.850  1.00  0.00     0.019 A 
HETATM   19 BR1  UNL     1      23.178   5.900  49.118  1.00  0.00    -0.051 Br
HETATM   20  C4  UNL     1      25.418   4.091  49.050  1.00  0.00     0.020 A 
HETATM   21  C5  UNL     1      26.347   3.195  49.539  1.00  0.00     0.004 A 
HETATM   22  C6  UNL     1      26.319   2.834  50.889  1.00  0.00     0.030 A 
ENDBRANCH  13  15
ENDBRANCH   1  13
BRANCH  10  23
HETATM   23  N4  UNL     1      20.815   1.247  52.361  1.00  0.00    -0.324 N 
HETATM   24  C16 UNL     1      20.206   1.270  51.083  1.00  0.00     0.245 C 
HETATM   25  O1  UNL     1      20.744   0.640  50.145  1.00  0.00    -0.268 OA
HETATM   26  H11 UNL     1      20.264   1.811  53.045  1.00  0.00     0.169 HD
BRANCH  24  27
HETATM   27  C17 UNL     1      18.980   1.982  50.768  1.00  0.00     0.072 C 
HETATM   28  C18 UNL     1      17.782   1.438  50.723  1.00  0.00     0.008 C 
BRANCH  28  29
HETATM   29  C19 UNL     1      17.125   0.141  50.908  1.00  0.00     0.299 C 
BRANCH  29  30
HETATM   30  N5  UNL     1      16.830  -0.117  52.319  1.00  0.00     0.083 N 
HETATM   31  C20 UNL     1      17.823  -1.009  52.835  1.00  0.00     0.309 C 
HETATM   32  C21 UNL     1      15.484  -0.558  52.512  1.00  0.00     0.309 C 
ENDBRANCH  29  30
ENDBRANCH  28  29
ENDBRANCH  24  27
ENDBRANCH  10  23
TORSDOF 6
ENDMDL
MODEL 8
REMARK VINA RESULT:      -7.5      2.987      5.783
REMARK  6 active torsions:
REMARK  status: ('A' for Active; 'I' for Inactive)
REMARK    1  A    between atoms: C7_8  and  N1_9 
REMARK    2  A    between atoms: N1_9  and  C8_10 
REMARK    3  A    between atoms: C15_19  and  N4_20 
REMARK       I    between atoms: N4_20  and  C16_21 
REMARK    4  A    between atoms: C16_21  and  C17_23 
REMARK    5  A    between atoms: C18_24  and  C19_25 
REMARK    6  A    between atoms: C19_25  and  N5_26 
ROOT
HETATM    1  C8  UNL     1      24.055   0.306  52.974  1.00  0.00     0.067 A 
HETATM    2  C9  UNL     1      25.068  -0.095  53.822  1.00  0.00     0.089 A 
HETATM    3  C10 UNL     1      26.407   0.353  53.505  1.00  0.00     0.103 C 
HETATM    4  N2  UNL     1      27.470   0.705  53.258  1.00  0.00    -0.191 NA
HETATM    5  C11 UNL     1      24.807  -0.891  54.922  1.00  0.00     0.142 A 
HETATM    6  N3  UNL     1      23.530  -1.271  55.155  1.00  0.00    -0.259 NA
HETATM    7  C12 UNL     1      22.525  -0.895  54.346  1.00  0.00     0.069 A 
HETATM    8  C13 UNL     1      21.237  -1.281  54.585  1.00  0.00     0.035 A 
HETATM    9  C14 UNL     1      20.250  -0.863  53.720  1.00  0.00     0.032 A 
HETATM   10  C15 UNL     1      20.431  -0.077  52.614  1.00  0.00     0.035 A 
HETATM   11  C22 UNL     1      21.745   0.288  52.413  1.00  0.00     0.045 A 
HETATM   12  C23 UNL     1      22.768  -0.103  53.248  1.00  0.00     0.023 A 
ENDROOT
BRANCH   1  13
HETATM   13  N1  UNL     1      24.320   1.127  51.836  1.00  0.00    -0.354 N 
HETATM   14  H7  UNL     1      24.786   0.691  51.017  1.00  0.00     0.166 HD
BRANCH  13  15
HETATM   15  C7  UNL     1      23.926   2.499  51.897  1.00  0.00     0.040 A 
HETATM   16  C2  UNL     1      23.328   3.108  50.810  1.00  0.00    -0.018 A 
HETATM   17  C1  UNL     1      23.078   2.352  49.548  1.00  0.00     0.052 C 
HETATM   18  C3  UNL     1      22.945   4.451  50.875  1.00  0.00     0.019 A 
HETATM   19 BR1  UNL     1      22.116   5.344  49.409  1.00  0.00    -0.051 Br
HETATM   20  C4  UNL     1      23.195   5.122  52.070  1.00  0.00     0.020 A 
HETATM   21  C5  UNL     1      23.792   4.515  53.156  1.00  0.00     0.004 A 
HETATM   22  C6  UNL     1      24.171   3.172  53.079  1.00  0.00     0.030 A 
ENDBRANCH  13  15
ENDBRANCH   1  13
BRANCH  10  23
HETATM   23  N4  UNL     1      19.476   0.375  51.706  1.00  0.00    -0.324 N 
HETATM   24  C16 UNL     1      18.922   1.671  51.563  1.00  0.00     0.245 C 
HETATM   25  O1  UNL     1      19.304   2.580  52.333  1.00  0.00    -0.268 OA
HETATM   26  H11 UNL     1      19.071  -0.282  51.003  1.00  0.00     0.169 HD
BRANCH  24  27
HETATM   27  C17 UNL     1      17.924   2.033  50.572  1.00  0.00     0.072 C 
HETATM   28  C18 UNL     1      18.190   2.515  49.376  1.00  0.00     0.008 C 
BRANCH  28  29
HETATM   29  C19 UNL     1      19.335   2.883  48.537  1.00  0.00     0.299 C 
BRANCH  29  30
HETATM   30  N5  UNL     1      18.946   3.809  47.472  1.00  0.00     0.083 N 
HETATM   31  C20 UNL     1      18.543   5.045  48.068  1.00  0.00     0.309 C 
HETATM   32  C21 UNL     1      17.976   3.235  46.592  1.00  0.00     0.309 C 
ENDBRANCH  29  30
ENDBRANCH  28  29
ENDBRANCH  24  27
ENDBRANCH  10  23
TORSDOF 6
ENDMDL
MODEL 9
REMARK VINA RESULT:      -7.2      2.682      6.572
REMARK  6 active torsions:
REMARK  status: ('A' for Active; 'I' for Inactive)
REMARK    1  A    between atoms: C7_8  and  N1_9 
REMARK    2  A    between atoms: N1_9  and  C8_10 
REMARK    3  A    between atoms: C15_19  and  N4_20 
REMARK       I    between atoms: N4_20  and  C16_21 
REMARK    4  A    between atoms: C16_21  and  C17_23 
REMARK    5  A    between atoms: C18_24  and  C19_25 
REMARK    6  A    between atoms: C19_25  and  N5_26 
ROOT
HETATM    1  C8  UNL     1      24.727   2.193  51.091  1.00  0.00     0.067 A 
HETATM    2  C9  UNL     1      25.991   2.745  51.033  1.00  0.00     0.089 A 
HETATM    3  C10 UNL     1      26.228   3.740  50.009  1.00  0.00     0.103 C 
HETATM    4  N2  UNL     1      26.421   4.529  49.200  1.00  0.00    -0.191 NA
HETATM    5  C11 UNL     1      26.983   2.359  51.916  1.00  0.00     0.142 A 
HETATM    6  N3  UNL     1      26.688   1.422  52.847  1.00  0.00    -0.259 NA
HETATM    7  C12 UNL     1      25.466   0.869  52.926  1.00  0.00     0.069 A 
HETATM    8  C13 UNL     1      25.173  -0.076  53.867  1.00  0.00     0.035 A 
HETATM    9  C14 UNL     1      23.902  -0.607  53.898  1.00  0.00     0.032 A 
HETATM   10  C15 UNL     1      22.873  -0.275  53.060  1.00  0.00     0.035 A 
HETATM   11  C22 UNL     1      23.214   0.681  52.128  1.00  0.00     0.045 A 
HETATM   12  C23 UNL     1      24.469   1.243  52.055  1.00  0.00     0.023 A 
ENDROOT
BRANCH   1  13
HETATM   13  N1  UNL     1      23.701   2.589  50.181  1.00  0.00    -0.354 N 
HETATM   14  H7  UNL     1      23.498   1.967  49.374  1.00  0.00     0.166 HD
BRANCH  13  15
HETATM   15  C7  UNL     1      23.018   3.816  50.438  1.00  0.00     0.040 A 
HETATM   16  C2  UNL     1      22.587   4.613  49.394  1.00  0.00    -0.018 A 
HETATM   17  C1  UNL     1      22.823   4.214  47.975  1.00  0.00     0.052 C 
HETATM   18  C3  UNL     1      21.920   5.814  49.651  1.00  0.00     0.019 A 
HETATM   19 BR1  UNL     1      21.303   6.954  48.253  1.00  0.00    -0.051 Br
HETATM   20  C4  UNL     1      21.719   6.151  50.988  1.00  0.00     0.020 A 
HETATM   21  C5  UNL     1      22.148   5.356  52.031  1.00  0.00     0.004 A 
HETATM   22  C6  UNL     1      22.815   4.158  51.761  1.00  0.00     0.030 A 
ENDBRANCH  13  15
ENDBRANCH   1  13
BRANCH  10  23
HETATM   23  N4  UNL     1      21.572  -0.776  53.043  1.00  0.00    -0.324 N 
HETATM   24  C16 UNL     1      20.361  -0.129  53.390  1.00  0.00     0.245 C 
HETATM   25  O1  UNL     1      20.399   1.061  53.775  1.00  0.00    -0.268 OA
HETATM   26  H11 UNL     1      21.395  -1.759  52.741  1.00  0.00     0.169 HD
BRANCH  24  27
HETATM   27  C17 UNL     1      19.051  -0.752  53.334  1.00  0.00     0.072 C 
HETATM   28  C18 UNL     1      18.196  -0.622  52.340  1.00  0.00     0.008 C 
BRANCH  28  29
HETATM   29  C19 UNL     1      18.071   0.044  51.040  1.00  0.00     0.299 C 
BRANCH  29  30
HETATM   30  N5  UNL     1      16.730   0.598  50.847  1.00  0.00     0.083 N 
HETATM   31  C20 UNL     1      15.804  -0.171  51.620  1.00  0.00     0.309 C 
HETATM   32  C21 UNL     1      16.392   0.710  49.462  1.00  0.00     0.309 C 
ENDBRANCH  29  30
ENDBRANCH  28  29
ENDBRANCH  24  27
ENDBRANCH  10  23
TORSDOF 6
ENDMDL
