MODEL 1
REMARK VINA RESULT:      -7.5      0.000      0.000
REMARK  4 active torsions:
REMARK  status: ('A' for Active; 'I' for Inactive)
REMARK    1  A    between atoms: C2_2  and  O1_3 
REMARK    2  A    between atoms: O1_3  and  C3_4 
REMARK    3  A    between atoms: C12_15  and  O2_16 
REMARK    4  A    between atoms: O2_16  and  C13_17 
ROOT
HETATM    1  C3  UNL     1      32.521   6.005  45.281  1.00  0.00     0.060 C 
HETATM    2  C4  UNL     1      32.179   5.421  46.416  1.00  0.00     0.083 C 
HETATM    3  C5  UNL     1      31.185   5.300  47.508  1.00  0.00     0.074 A 
HETATM    4  N1  UNL     1      30.233   5.242  48.416  1.00  0.00    -0.252 NA
HETATM    5  C6  UNL     1      28.933   5.691  48.365  1.00  0.00     0.181 C 
HETATM    6  N2  UNL     1      27.856   6.500  48.201  1.00  0.00    -0.247 NA
HETATM    7  C7  UNL     1      28.398   7.808  47.808  1.00  0.00     0.093 A 
HETATM    8  C8  UNL     1      29.060   7.557  46.614  1.00  0.00     0.064 A 
HETATM    9  C9  UNL     1      29.791   8.681  46.481  1.00  0.00     0.044 A 
HETATM   10  C10 UNL     1      29.931   9.826  47.217  1.00  0.00     0.033 A 
HETATM   11  C11 UNL     1      29.125   9.841  48.401  1.00  0.00     0.041 A 
HETATM   12  C12 UNL     1      28.285   8.768  48.757  1.00  0.00     0.098 A 
HETATM   13  N3  UNL     1      30.602   8.370  45.356  1.00  0.00    -0.278 N 
HETATM   14  C16 UNL     1      31.436   8.061  44.255  1.00  0.00     0.110 C 
HETATM   15  C17 UNL     1      32.296   7.021  44.264  1.00  0.00    -0.016 C 
HETATM   16  C18 UNL     1      33.076   6.938  43.034  1.00  0.00     0.052 C 
HETATM   17  C19 UNL     1      31.684   8.466  46.361  1.00  0.00     0.388 A 
HETATM   18  O3  UNL     1      32.789   8.592  46.816  1.00  0.00    -0.104 OA
HETATM   19  N4  UNL     1      32.158   8.464  47.777  1.00  0.00     0.124 N 
HETATM   20  C20 UNL     1      33.229   8.613  48.693  1.00  0.00     0.302 C 
HETATM   21  C21 UNL     1      34.401   7.749  48.543  1.00  0.00     0.152 C 
HETATM   22  N5  UNL     1      34.203   6.305  48.740  1.00  0.00    -0.394 N 
HETATM   23  C22 UNL     1      35.274   5.278  48.875  1.00  0.00     0.148 C 
HETATM   24  C23 UNL     1      32.841   5.875  48.774  1.00  0.00     0.080 C 
HETATM   25  C24 UNL     1      31.560   5.478  48.944  1.00  0.00     0.129 A 
HETATM   26  H22 UNL     1      31.273   8.209  48.317  1.00  0.00     0.330 HD
ENDROOT
BRANCH  12  27
HETATM   27  O2  UNL     1      27.625   8.963  49.883  1.00  0.00    -0.344 OA
BRANCH  27  28
HETATM   28  C13 UNL     1      26.268   9.164  50.050  1.00  0.00     0.120 C 
HETATM   29  C14 UNL     1      25.646   9.753  48.784  1.00  0.00     0.040 C 
HETATM   30  C15 UNL     1      25.524   7.837  50.280  1.00  0.00     0.040 C 
ENDBRANCH  27  28
ENDBRANCH  12  27
BRANCH   1  31
HETATM   31  O1  UNL     1      33.657   5.238  45.154  1.00  0.00    -0.355 OA
BRANCH  31  32
HETATM   32  C2  UNL     1      33.869   3.920  45.521  1.00  0.00     0.171 C 
HETATM   33  C1  UNL     1      35.357   3.631  45.507  1.00  0.00     0.034 C 
ENDBRANCH  31  32
ENDBRANCH   1  31
TORSDOF 4
ENDMDL
MODEL 2
REMARK VINA RESULT:      -7.3      8.124     12.946
REMARK  4 active torsions:
REMARK  status: ('A' for Active; 'I' for Inactive)
REMARK    1  A    between atoms: C2_2  and  O1_3 
REMARK    2  A    between atoms: O1_3  and  C3_4 
REMARK    3  A    between atoms: C12_15  and  O2_16 
REMARK    4  A    between atoms: O2_16  and  C13_17 
ROOT
HETATM    1  C3  UNL     1      20.130   0.160  51.694  1.00  0.00     0.060 C 
HETATM    2  C4  UNL     1      20.009   0.553  50.438  1.00  0.00     0.083 C 
HETATM    3  C5  UNL     1      20.600   1.295  49.299  1.00  0.00     0.074 A 
HETATM    4  N1  UNL     1      21.216   1.952  48.338  1.00  0.00    -0.252 NA
HETATM    5  C6  UNL     1      22.535   2.333  48.232  1.00  0.00     0.181 C 
HETATM    6  N2  UNL     1      23.744   2.879  48.517  1.00  0.00    -0.247 NA
HETATM    7  C7  UNL     1      23.595   3.505  49.838  1.00  0.00     0.093 A 
HETATM    8  C8  UNL     1      23.277   2.450  50.681  1.00  0.00     0.064 A 
HETATM    9  C9  UNL     1      22.840   3.111  51.772  1.00  0.00     0.044 A 
HETATM   10  C10 UNL     1      22.707   4.432  52.103  1.00  0.00     0.033 A 
HETATM   11  C11 UNL     1      23.120   5.322  51.059  1.00  0.00     0.041 A 
HETATM   12  C12 UNL     1      23.603   4.860  49.818  1.00  0.00     0.098 A 
HETATM   13  N3  UNL     1      22.351   2.049  52.580  1.00  0.00    -0.278 N 
HETATM   14  C16 UNL     1      21.833   1.003  53.381  1.00  0.00     0.110 C 
HETATM   15  C17 UNL     1      20.829   0.201  52.970  1.00  0.00    -0.016 C 
HETATM   16  C18 UNL     1      20.441  -0.768  53.989  1.00  0.00     0.052 C 
HETATM   17  C19 UNL     1      21.060   2.736  52.349  1.00  0.00     0.388 A 
HETATM   18  O3  UNL     1      19.914   3.060  52.509  1.00  0.00    -0.104 OA
HETATM   19  N4  UNL     1      20.200   3.680  51.575  1.00  0.00     0.124 N 
HETATM   20  C20 UNL     1      18.956   4.343  51.435  1.00  0.00     0.302 C 
HETATM   21  C21 UNL     1      17.739   3.534  51.352  1.00  0.00     0.152 C 
HETATM   22  N5  UNL     1      17.597   2.650  50.186  1.00  0.00    -0.394 N 
HETATM   23  C22 UNL     1      16.361   1.928  49.771  1.00  0.00     0.148 C 
HETATM   24  C23 UNL     1      18.784   2.464  49.412  1.00  0.00     0.080 C 
HETATM   25  C24 UNL     1      19.862   2.390  48.599  1.00  0.00     0.129 A 
HETATM   26  H22 UNL     1      20.825   3.936  50.747  1.00  0.00     0.330 HD
ENDROOT
BRANCH  12  27
HETATM   27  O2  UNL     1      23.929   5.828  48.983  1.00  0.00    -0.344 OA
BRANCH  27  28
HETATM   28  C13 UNL     1      25.108   6.547  48.931  1.00  0.00     0.120 C 
HETATM   29  C14 UNL     1      26.312   5.609  48.839  1.00  0.00     0.040 C 
HETATM   30  C15 UNL     1      25.184   7.417  47.665  1.00  0.00     0.040 C 
ENDBRANCH  27  28
ENDBRANCH  12  27
BRANCH   1  31
HETATM   31  O1  UNL     1      18.959  -0.561  51.647  1.00  0.00    -0.355 OA
BRANCH  31  32
HETATM   32  C2  UNL     1      17.719  -0.252  52.178  1.00  0.00     0.171 C 
HETATM   33  C1  UNL     1      17.079  -1.515  52.719  1.00  0.00     0.034 C 
ENDBRANCH  31  32
ENDBRANCH   1  31
TORSDOF 4
ENDMDL
MODEL 3
REMARK VINA RESULT:      -7.2      7.256     10.237
REMARK  4 active torsions:
REMARK  status: ('A' for Active; 'I' for Inactive)
REMARK    1  A    between atoms: C2_2  and  O1_3 
REMARK    2  A    between atoms: O1_3  and  C3_4 
REMARK    3  A    between atoms: C12_15  and  O2_16 
REMARK    4  A    between atoms: O2_16  and  C13_17 
ROOT
HETATM    1  C3  UNL     1      22.299   4.526  47.788  1.00  0.00     0.060 C 
HETATM    2  C4  UNL     1      23.392   5.161  48.173  1.00  0.00     0.083 C 
HETATM    3  C5  UNL     1      24.675   5.103  48.912  1.00  0.00     0.074 A 
HETATM    4  N1  UNL     1      25.807   4.946  49.566  1.00  0.00    -0.252 NA
HETATM    5  C6  UNL     1      26.454   3.794  49.953  1.00  0.00     0.181 C 
HETATM    6  N2  UNL     1      26.699   2.579  50.505  1.00  0.00    -0.247 NA
HETATM    7  C7  UNL     1      25.438   2.169  51.138  1.00  0.00     0.093 A 
HETATM    8  C8  UNL     1      24.536   2.101  50.086  1.00  0.00     0.064 A 
HETATM    9  C9  UNL     1      23.364   2.048  50.751  1.00  0.00     0.044 A 
HETATM   10  C10 UNL     1      23.012   2.039  52.073  1.00  0.00     0.033 A 
HETATM   11  C11 UNL     1      24.136   2.104  52.959  1.00  0.00     0.041 A 
HETATM   12  C12 UNL     1      25.464   2.178  52.493  1.00  0.00     0.098 A 
HETATM   13  N3  UNL     1      22.423   2.150  49.691  1.00  0.00    -0.278 N 
HETATM   14  C16 UNL     1      21.475   2.281  48.647  1.00  0.00     0.110 C 
HETATM   15  C17 UNL     1      21.430   3.360  47.838  1.00  0.00    -0.016 C 
HETATM   16  C18 UNL     1      20.339   3.282  46.873  1.00  0.00     0.052 C 
HETATM   17  C19 UNL     1      22.098   3.424  50.370  1.00  0.00     0.388 A 
HETATM   18  O3  UNL     1      21.476   4.401  50.691  1.00  0.00    -0.104 OA
HETATM   19  N4  UNL     1      22.446   4.534  51.307  1.00  0.00     0.124 N 
HETATM   20  C20 UNL     1      22.057   5.727  51.964  1.00  0.00     0.302 C 
HETATM   21  C21 UNL     1      21.625   6.863  51.149  1.00  0.00     0.152 C 
HETATM   22  N5  UNL     1      22.623   7.472  50.258  1.00  0.00    -0.394 N 
HETATM   23  C22 UNL     1      22.483   8.764  49.529  1.00  0.00     0.148 C 
HETATM   24  C23 UNL     1      23.820   6.713  50.074  1.00  0.00     0.080 C 
HETATM   25  C24 UNL     1      25.008   6.072  50.000  1.00  0.00     0.129 A 
HETATM   26  H22 UNL     1      23.460   4.312  51.561  1.00  0.00     0.330 HD
ENDROOT
BRANCH  12  27
HETATM   27  O2  UNL     1      26.362   2.235  53.458  1.00  0.00    -0.344 OA
BRANCH  27  28
HETATM   28  C13 UNL     1      27.530   1.506  53.578  1.00  0.00     0.120 C 
HETATM   29  C14 UNL     1      28.724   2.430  53.812  1.00  0.00     0.040 C 
HETATM   30  C15 UNL     1      27.494   0.582  54.807  1.00  0.00     0.040 C 
ENDBRANCH  27  28
ENDBRANCH  12  27
BRANCH   1  31
HETATM   31  O1  UNL     1      21.852   5.606  47.061  1.00  0.00    -0.355 OA
BRANCH  31  32
HETATM   32  C2  UNL     1      22.546   6.421  46.184  1.00  0.00     0.171 C 
HETATM   33  C1  UNL     1      22.167   6.062  44.762  1.00  0.00     0.034 C 
ENDBRANCH  31  32
ENDBRANCH   1  31
TORSDOF 4
ENDMDL
MODEL 4
REMARK VINA RESULT:      -7.2      7.182     11.199
REMARK  4 active torsions:
REMARK  status: ('A' for Active; 'I' for Inactive)
REMARK    1  A    between atoms: C2_2  and  O1_3 
REMARK    2  A    between atoms: O1_3  and  C3_4 
REMARK    3  A    between atoms: C12_15  and  O2_16 
REMARK    4  A    between atoms: O2_16  and  C13_17 
ROOT
HETATM    1  C3  UNL     1      21.279   6.003  48.248  1.00  0.00     0.060 C 
HETATM    2  C4  UNL     1      22.193   5.059  48.107  1.00  0.00     0.083 C 
HETATM    3  C5  UNL     1      22.570   3.643  48.327  1.00  0.00     0.074 A 
HETATM    4  N1  UNL     1      22.803   2.364  48.541  1.00  0.00    -0.252 NA
HETATM    5  C6  UNL     1      21.929   1.343  48.837  1.00  0.00     0.181 C 
HETATM    6  N2  UNL     1      20.954   0.617  49.441  1.00  0.00    -0.247 NA
HETATM    7  C7  UNL     1      20.463   1.454  50.545  1.00  0.00     0.093 A 
HETATM    8  C8  UNL     1      19.967   2.588  49.916  1.00  0.00     0.064 A 
HETATM    9  C9  UNL     1      19.842   3.430  50.962  1.00  0.00     0.044 A 
HETATM   10  C10 UNL     1      20.077   3.330  52.306  1.00  0.00     0.033 A 
HETATM   11  C11 UNL     1      20.574   2.046  52.701  1.00  0.00     0.041 A 
HETATM   12  C12 UNL     1      20.799   1.005  51.778  1.00  0.00     0.098 A 
HETATM   13  N3  UNL     1      19.498   4.648  50.316  1.00  0.00    -0.278 N 
HETATM   14  C16 UNL     1      19.185   5.874  49.682  1.00  0.00     0.110 C 
HETATM   15  C17 UNL     1      20.010   6.463  48.790  1.00  0.00    -0.016 C 
HETATM   16  C18 UNL     1      19.488   7.738  48.313  1.00  0.00     0.052 C 
HETATM   17  C19 UNL     1      20.806   5.073  50.863  1.00  0.00     0.388 A 
HETATM   18  O3  UNL     1      21.687   5.802  51.234  1.00  0.00    -0.104 OA
HETATM   19  N4  UNL     1      22.153   4.761  51.427  1.00  0.00     0.124 N 
HETATM   20  C20 UNL     1      23.366   5.230  51.989  1.00  0.00     0.302 C 
HETATM   21  C21 UNL     1      24.165   6.187  51.224  1.00  0.00     0.152 C 
HETATM   22  N5  UNL     1      24.732   5.725  49.948  1.00  0.00    -0.394 N 
HETATM   23  C22 UNL     1      25.759   6.431  49.131  1.00  0.00     0.148 C 
HETATM   24  C23 UNL     1      24.206   4.489  49.459  1.00  0.00     0.080 C 
HETATM   25  C24 UNL     1      23.817   3.259  49.058  1.00  0.00     0.129 A 
HETATM   26  H22 UNL     1      22.205   3.699  51.325  1.00  0.00     0.330 HD
ENDROOT
BRANCH  12  27
HETATM   27  O2  UNL     1      21.262  -0.100  52.329  1.00  0.00    -0.344 OA
BRANCH  27  28
HETATM   28  C13 UNL     1      21.727  -0.280  53.618  1.00  0.00     0.120 C 
HETATM   29  C14 UNL     1      21.144  -1.553  54.232  1.00  0.00     0.040 C 
HETATM   30  C15 UNL     1      23.250  -0.486  53.646  1.00  0.00     0.040 C 
ENDBRANCH  27  28
ENDBRANCH  12  27
BRANCH   1  31
HETATM   31  O1  UNL     1      22.044   6.931  47.578  1.00  0.00    -0.355 OA
BRANCH  31  32
HETATM   32  C2  UNL     1      22.713   6.809  46.374  1.00  0.00     0.171 C 
HETATM   33  C1  UNL     1      23.743   7.915  46.260  1.00  0.00     0.034 C 
ENDBRANCH  31  32
ENDBRANCH   1  31
TORSDOF 4
ENDMDL
MODEL 5
REMARK VINA RESULT:      -7.2      1.926      2.441
REMARK  4 active torsions:
REMARK  status: ('A' for Active; 'I' for Inactive)
REMARK    1  A    between atoms: C2_2  and  O1_3 
REMARK    2  A    between atoms: O1_3  and  C3_4 
REMARK    3  A    between atoms: C12_15  and  O2_16 
REMARK    4  A    between atoms: O2_16  and  C13_17 
ROOT
HETATM    1  C3  UNL     1      32.840   5.165  45.705  1.00  0.00     0.060 C 
HETATM    2  C4  UNL     1      32.403   5.316  46.943  1.00  0.00     0.083 C 
HETATM    3  C5  UNL     1      31.466   6.006  47.861  1.00  0.00     0.074 A 
HETATM    4  N1  UNL     1      30.580   6.649  48.592  1.00  0.00    -0.252 NA
HETATM    5  C6  UNL     1      29.456   7.346  48.209  1.00  0.00     0.181 C 
HETATM    6  N2  UNL     1      28.641   8.229  47.579  1.00  0.00    -0.247 NA
HETATM    7  C7  UNL     1      29.508   8.987  46.666  1.00  0.00     0.093 A 
HETATM    8  C8  UNL     1      30.016   8.025  45.804  1.00  0.00     0.064 A 
HETATM    9  C9  UNL     1      31.026   8.705  45.224  1.00  0.00     0.044 A 
HETATM   10  C10 UNL     1      31.515   9.977  45.337  1.00  0.00     0.033 A 
HETATM   11  C11 UNL     1      30.801  10.776  46.289  1.00  0.00     0.041 A 
HETATM   12  C12 UNL     1      29.712  10.276  47.031  1.00  0.00     0.098 A 
HETATM   13  N3  UNL     1      31.664   7.686  44.464  1.00  0.00    -0.278 N 
HETATM   14  C16 UNL     1      32.326   6.675  43.727  1.00  0.00     0.110 C 
HETATM   15  C17 UNL     1      32.861   5.583  44.311  1.00  0.00    -0.016 C 
HETATM   16  C18 UNL     1      33.528   4.712  43.349  1.00  0.00     0.052 C 
HETATM   17  C19 UNL     1      32.775   7.963  45.402  1.00  0.00     0.388 A 
HETATM   18  O3  UNL     1      33.892   7.992  45.845  1.00  0.00    -0.104 OA
HETATM   19  N4  UNL     1      33.296   8.517  46.687  1.00  0.00     0.124 N 
HETATM   20  C20 UNL     1      34.408   8.797  47.519  1.00  0.00     0.302 C 
HETATM   21  C21 UNL     1      35.283   7.691  47.911  1.00  0.00     0.152 C 
HETATM   22  N5  UNL     1      34.700   6.635  48.750  1.00  0.00    -0.394 N 
HETATM   23  C22 UNL     1      35.446   5.557  49.458  1.00  0.00     0.148 C 
HETATM   24  C23 UNL     1      33.275   6.655  48.854  1.00  0.00     0.080 C 
HETATM   25  C24 UNL     1      31.943   6.747  49.069  1.00  0.00     0.129 A 
HETATM   26  H22 UNL     1      32.401   8.800  47.196  1.00  0.00     0.330 HD
ENDROOT
BRANCH  12  27
HETATM   27  O2  UNL     1      29.186  11.157  47.860  1.00  0.00    -0.344 OA
BRANCH  27  28
HETATM   28  C13 UNL     1      29.559  12.474  48.052  1.00  0.00     0.120 C 
HETATM   29  C14 UNL     1      28.342  13.340  48.376  1.00  0.00     0.040 C 
HETATM   30  C15 UNL     1      30.491  12.626  49.265  1.00  0.00     0.040 C 
ENDBRANCH  27  28
ENDBRANCH  12  27
BRANCH   1  31
HETATM   31  O1  UNL     1      33.709   4.161  46.067  1.00  0.00    -0.355 OA
BRANCH  31  32
HETATM   32  C2  UNL     1      33.645   3.292  47.142  1.00  0.00     0.171 C 
HETATM   33  C1  UNL     1      32.858   2.059  46.742  1.00  0.00     0.034 C 
ENDBRANCH  31  32
ENDBRANCH   1  31
TORSDOF 4
ENDMDL
MODEL 6
REMARK VINA RESULT:      -7.1      8.468     11.234
REMARK  4 active torsions:
REMARK  status: ('A' for Active; 'I' for Inactive)
REMARK    1  A    between atoms: C2_2  and  O1_3 
REMARK    2  A    between atoms: O1_3  and  C3_4 
REMARK    3  A    between atoms: C12_15  and  O2_16 
REMARK    4  A    between atoms: O2_16  and  C13_17 
ROOT
HETATM    1  C3  UNL     1      22.292   5.610  47.201  1.00  0.00     0.060 C 
HETATM    2  C4  UNL     1      22.601   6.007  48.423  1.00  0.00     0.083 C 
HETATM    3  C5  UNL     1      23.083   5.631  49.773  1.00  0.00     0.074 A 
HETATM    4  N1  UNL     1      23.545   5.208  50.931  1.00  0.00    -0.252 NA
HETATM    5  C6  UNL     1      24.187   4.033  51.252  1.00  0.00     0.181 C 
HETATM    6  N2  UNL     1      24.468   2.711  51.372  1.00  0.00    -0.247 NA
HETATM    7  C7  UNL     1      23.341   2.007  50.744  1.00  0.00     0.093 A 
HETATM    8  C8  UNL     1      23.365   2.436  49.425  1.00  0.00     0.064 A 
HETATM    9  C9  UNL     1      22.152   2.031  48.998  1.00  0.00     0.044 A 
HETATM   10  C10 UNL     1      21.106   1.366  49.576  1.00  0.00     0.033 A 
HETATM   11  C11 UNL     1      21.341   1.021  50.946  1.00  0.00     0.041 A 
HETATM   12  C12 UNL     1      22.536   1.353  51.616  1.00  0.00     0.098 A 
HETATM   13  N3  UNL     1      22.091   2.611  47.702  1.00  0.00    -0.278 N 
HETATM   14  C16 UNL     1      22.005   3.208  46.421  1.00  0.00     0.110 C 
HETATM   15  C17 UNL     1      22.070   4.543  46.236  1.00  0.00    -0.016 C 
HETATM   16  C18 UNL     1      21.911   4.916  44.835  1.00  0.00     0.052 C 
HETATM   17  C19 UNL     1      20.986   3.379  48.318  1.00  0.00     0.388 A 
HETATM   18  O3  UNL     1      19.996   4.057  48.401  1.00  0.00    -0.104 OA
HETATM   19  N4  UNL     1      20.262   3.899  49.516  1.00  0.00     0.124 N 
HETATM   20  C20 UNL     1      19.155   4.606  50.046  1.00  0.00     0.302 C 
HETATM   21  C21 UNL     1      18.929   5.982  49.603  1.00  0.00     0.152 C 
HETATM   22  N5  UNL     1      19.954   6.978  49.949  1.00  0.00    -0.394 N 
HETATM   23  C22 UNL     1      19.827   8.457  49.817  1.00  0.00     0.148 C 
HETATM   24  C23 UNL     1      21.188   6.442  50.428  1.00  0.00     0.080 C 
HETATM   25  C24 UNL     1      22.307   5.953  51.010  1.00  0.00     0.129 A 
HETATM   26  H22 UNL     1      20.906   3.610  50.318  1.00  0.00     0.330 HD
ENDROOT
BRANCH  12  27
HETATM   27  O2  UNL     1      22.566   0.957  52.874  1.00  0.00    -0.344 OA
BRANCH  27  28
HETATM   28  C13 UNL     1      22.747  -0.325  53.359  1.00  0.00     0.120 C 
HETATM   29  C14 UNL     1      24.175  -0.514  53.872  1.00  0.00     0.040 C 
HETATM   30  C15 UNL     1      21.847  -0.601  54.574  1.00  0.00     0.040 C 
ENDBRANCH  27  28
ENDBRANCH  12  27
BRANCH   1  31
HETATM   31  O1  UNL     1      22.022   6.893  46.785  1.00  0.00    -0.355 OA
BRANCH  31  32
HETATM   32  C2  UNL     1      22.809   8.028  46.877  1.00  0.00     0.171 C 
HETATM   33  C1  UNL     1      23.635   8.168  45.614  1.00  0.00     0.034 C 
ENDBRANCH  31  32
ENDBRANCH   1  31
TORSDOF 4
ENDMDL
MODEL 7
REMARK VINA RESULT:      -7.1      8.892     11.911
REMARK  4 active torsions:
REMARK  status: ('A' for Active; 'I' for Inactive)
REMARK    1  A    between atoms: C2_2  and  O1_3 
REMARK    2  A    between atoms: O1_3  and  C3_4 
REMARK    3  A    between atoms: C12_15  and  O2_16 
REMARK    4  A    between atoms: O2_16  and  C13_17 
ROOT
HETATM    1  C3  UNL     1      21.342   6.791  49.624  1.00  0.00     0.060 C 
HETATM    2  C4  UNL     1      20.304   5.973  49.633  1.00  0.00     0.083 C 
HETATM    3  C5  UNL     1      19.677   4.758  50.205  1.00  0.00     0.074 A 
HETATM    4  N1  UNL     1      19.190   3.685  50.791  1.00  0.00    -0.252 NA
HETATM    5  C6  UNL     1      19.568   3.067  51.962  1.00  0.00     0.181 C 
HETATM    6  N2  UNL     1      20.327   2.470  52.915  1.00  0.00    -0.247 NA
HETATM    7  C7  UNL     1      21.693   2.438  52.373  1.00  0.00     0.093 A 
HETATM    8  C8  UNL     1      22.019   3.775  52.195  1.00  0.00     0.064 A 
HETATM    9  C9  UNL     1      23.112   3.673  51.412  1.00  0.00     0.044 A 
HETATM   10  C10 UNL     1      23.818   2.627  50.882  1.00  0.00     0.033 A 
HETATM   11  C11 UNL     1      23.279   1.346  51.230  1.00  0.00     0.041 A 
HETATM   12  C12 UNL     1      22.129   1.201  52.031  1.00  0.00     0.098 A 
HETATM   13  N3  UNL     1      23.360   5.032  51.079  1.00  0.00    -0.278 N 
HETATM   14  C16 UNL     1      23.599   6.379  50.716  1.00  0.00     0.110 C 
HETATM   15  C17 UNL     1      22.694   7.124  50.046  1.00  0.00    -0.016 C 
HETATM   16  C18 UNL     1      23.191   8.462  49.748  1.00  0.00     0.052 C 
HETATM   17  C19 UNL     1      23.040   4.548  49.717  1.00  0.00     0.388 A 
HETATM   18  O3  UNL     1      22.991   4.517  48.517  1.00  0.00    -0.104 OA
HETATM   19  N4  UNL     1      22.429   3.545  48.795  1.00  0.00     0.124 N 
HETATM   20  C20 UNL     1      22.196   3.109  47.467  1.00  0.00     0.302 C 
HETATM   21  C21 UNL     1      21.529   4.023  46.539  1.00  0.00     0.152 C 
HETATM   22  N5  UNL     1      20.142   4.400  46.844  1.00  0.00    -0.394 N 
HETATM   23  C22 UNL     1      19.200   5.111  45.934  1.00  0.00     0.148 C 
HETATM   24  C23 UNL     1      19.692   4.061  48.158  1.00  0.00     0.080 C 
HETATM   25  C24 UNL     1      19.215   3.626  49.345  1.00  0.00     0.129 A 
HETATM   26  H22 UNL     1      21.929   2.885  49.470  1.00  0.00     0.330 HD
ENDROOT
BRANCH  12  27
HETATM   27  O2  UNL     1      21.782  -0.055  52.239  1.00  0.00    -0.344 OA
BRANCH  27  28
HETATM   28  C13 UNL     1      22.120  -0.866  53.306  1.00  0.00     0.120 C 
HETATM   29  C14 UNL     1      23.526  -0.542  53.810  1.00  0.00     0.040 C 
HETATM   30  C15 UNL     1      21.198  -0.624  54.513  1.00  0.00     0.040 C 
ENDBRANCH  27  28
ENDBRANCH  12  27
BRANCH   1  31
HETATM   31  O1  UNL     1      20.750   7.632  48.709  1.00  0.00    -0.355 OA
BRANCH  31  32
HETATM   32  C2  UNL     1      19.511   8.246  48.756  1.00  0.00     0.171 C 
HETATM   33  C1  UNL     1      19.604   9.499  49.603  1.00  0.00     0.034 C 
ENDBRANCH  31  32
ENDBRANCH   1  31
TORSDOF 4
ENDMDL
MODEL 8
REMARK VINA RESULT:      -6.9      7.553     10.895
REMARK  4 active torsions:
REMARK  status: ('A' for Active; 'I' for Inactive)
REMARK    1  A    between atoms: C2_2  and  O1_3 
REMARK    2  A    between atoms: O1_3  and  C3_4 
REMARK    3  A    between atoms: C12_15  and  O2_16 
REMARK    4  A    between atoms: O2_16  and  C13_17 
ROOT
HETATM    1  C3  UNL     1      21.570   7.824  49.196  1.00  0.00     0.060 C 
HETATM    2  C4  UNL     1      20.878   6.830  49.726  1.00  0.00     0.083 C 
HETATM    3  C5  UNL     1      20.890   5.608  50.563  1.00  0.00     0.074 A 
HETATM    4  N1  UNL     1      20.994   4.552  51.342  1.00  0.00    -0.252 NA
HETATM    5  C6  UNL     1      22.002   4.185  52.206  1.00  0.00     0.181 C 
HETATM    6  N2  UNL     1      23.230   3.884  52.696  1.00  0.00    -0.247 NA
HETATM    7  C7  UNL     1      24.158   4.041  51.568  1.00  0.00     0.093 A 
HETATM    8  C8  UNL     1      24.041   5.378  51.215  1.00  0.00     0.064 A 
HETATM    9  C9  UNL     1      24.641   5.382  50.008  1.00  0.00     0.044 A 
HETATM   10  C10 UNL     1      25.248   4.429  49.236  1.00  0.00     0.033 A 
HETATM   11  C11 UNL     1      25.248   3.128  49.837  1.00  0.00     0.041 A 
HETATM   12  C12 UNL     1      24.665   2.876  51.095  1.00  0.00     0.098 A 
HETATM   13  N3  UNL     1      24.380   6.704  49.557  1.00  0.00    -0.278 N 
HETATM   14  C16 UNL     1      24.102   8.009  49.084  1.00  0.00     0.110 C 
HETATM   15  C17 UNL     1      22.844   8.466  48.909  1.00  0.00    -0.016 C 
HETATM   16  C18 UNL     1      22.817   9.821  48.370  1.00  0.00     0.052 C 
HETATM   17  C19 UNL     1      23.595   5.985  48.530  1.00  0.00     0.388 A 
HETATM   18  O3  UNL     1      23.008   5.780  47.501  1.00  0.00    -0.104 OA
HETATM   19  N4  UNL     1      22.883   4.765  48.044  1.00  0.00     0.124 N 
HETATM   20  C20 UNL     1      22.175   4.114  47.003  1.00  0.00     0.302 C 
HETATM   21  C21 UNL     1      20.963   4.746  46.481  1.00  0.00     0.152 C 
HETATM   22  N5  UNL     1      19.826   4.886  47.403  1.00  0.00    -0.394 N 
HETATM   23  C22 UNL     1      18.434   5.270  47.035  1.00  0.00     0.148 C 
HETATM   24  C23 UNL     1      20.125   4.652  48.780  1.00  0.00     0.080 C 
HETATM   25  C24 UNL     1      20.365   4.300  50.064  1.00  0.00     0.129 A 
HETATM   26  H22 UNL     1      22.921   4.120  48.894  1.00  0.00     0.330 HD
ENDROOT
BRANCH  12  27
HETATM   27  O2  UNL     1      24.759   1.618  51.480  1.00  0.00    -0.344 OA
BRANCH  27  28
HETATM   28  C13 UNL     1      25.528   1.096  52.503  1.00  0.00     0.120 C 
HETATM   29  C14 UNL     1      24.663   0.293  53.475  1.00  0.00     0.040 C 
HETATM   30  C15 UNL     1      26.568   0.094  51.974  1.00  0.00     0.040 C 
ENDBRANCH  27  28
ENDBRANCH  12  27
BRANCH   1  31
HETATM   31  O1  UNL     1      20.445   8.401  48.652  1.00  0.00    -0.355 OA
BRANCH  31  32
HETATM   32  C2  UNL     1      19.250   8.737  49.263  1.00  0.00     0.171 C 
HETATM   33  C1  UNL     1      19.289  10.197  49.669  1.00  0.00     0.034 C 
ENDBRANCH  31  32
ENDBRANCH   1  31
TORSDOF 4
ENDMDL
MODEL 9
REMARK VINA RESULT:      -6.9      6.603     10.801
REMARK  4 active torsions:
REMARK  status: ('A' for Active; 'I' for Inactive)
REMARK    1  A    between atoms: C2_2  and  O1_3 
REMARK    2  A    between atoms: O1_3  and  C3_4 
REMARK    3  A    between atoms: C12_15  and  O2_16 
REMARK    4  A    between atoms: O2_16  and  C13_17 
ROOT
HETATM    1  C3  UNL     1      24.675   5.667  49.767  1.00  0.00     0.060 C 
HETATM    2  C4  UNL     1      23.534   6.094  50.280  1.00  0.00     0.083 C 
HETATM    3  C5  UNL     1      22.271   5.750  50.974  1.00  0.00     0.074 A 
HETATM    4  N1  UNL     1      21.192   5.353  51.616  1.00  0.00    -0.252 NA
HETATM    5  C6  UNL     1      20.945   4.176  52.287  1.00  0.00     0.181 C 
HETATM    6  N2  UNL     1      20.830   2.854  52.567  1.00  0.00    -0.247 NA
HETATM    7  C7  UNL     1      21.240   2.152  51.343  1.00  0.00     0.093 A 
HETATM    8  C8  UNL     1      22.558   2.542  51.153  1.00  0.00     0.064 A 
HETATM    9  C9  UNL     1      22.765   2.146  49.881  1.00  0.00     0.044 A 
HETATM   10  C10 UNL     1      22.001   1.517  48.936  1.00  0.00     0.033 A 
HETATM   11  C11 UNL     1      20.678   1.209  49.391  1.00  0.00     0.041 A 
HETATM   12  C12 UNL     1      20.226   1.539  50.684  1.00  0.00     0.098 A 
HETATM   13  N3  UNL     1      24.051   2.688  49.613  1.00  0.00    -0.278 N 
HETATM   14  C16 UNL     1      25.319   3.249  49.323  1.00  0.00     0.110 C 
HETATM   15  C17 UNL     1      25.555   4.576  49.374  1.00  0.00    -0.016 C 
HETATM   16  C18 UNL     1      26.922   4.910  48.989  1.00  0.00     0.052 C 
HETATM   17  C19 UNL     1      23.286   3.494  48.636  1.00  0.00     0.388 A 
HETATM   18  O3  UNL     1      23.062   4.192  47.682  1.00  0.00    -0.104 OA
HETATM   19  N4  UNL     1      22.002   4.062  48.127  1.00  0.00     0.124 N 
HETATM   20  C20 UNL     1      21.319   4.805  47.132  1.00  0.00     0.302 C 
HETATM   21  C21 UNL     1      21.763   6.171  46.854  1.00  0.00     0.152 C 
HETATM   22  N5  UNL     1      21.624   7.158  47.935  1.00  0.00    -0.394 N 
HETATM   23  C22 UNL     1      21.780   8.634  47.807  1.00  0.00     0.148 C 
HETATM   24  C23 UNL     1      21.338   6.614  49.225  1.00  0.00     0.080 C 
HETATM   25  C24 UNL     1      20.934   6.123  50.418  1.00  0.00     0.129 A 
HETATM   26  H22 UNL     1      21.309   3.786  48.891  1.00  0.00     0.330 HD
ENDROOT
BRANCH  12  27
HETATM   27  O2  UNL     1      18.979   1.180  50.918  1.00  0.00    -0.344 OA
BRANCH  27  28
HETATM   28  C13 UNL     1      18.483  -0.094  51.122  1.00  0.00     0.120 C 
HETATM   29  C14 UNL     1      18.598  -0.492  52.594  1.00  0.00     0.040 C 
HETATM   30  C15 UNL     1      16.981  -0.174  50.804  1.00  0.00     0.040 C 
ENDBRANCH  27  28
ENDBRANCH  12  27
BRANCH   1  31
HETATM   31  O1  UNL     1      25.082   6.942  49.449  1.00  0.00    -0.355 OA
BRANCH  31  32
HETATM   32  C2  UNL     1      25.151   8.066  50.252  1.00  0.00     0.171 C 
HETATM   33  C1  UNL     1      26.546   8.653  50.173  1.00  0.00     0.034 C 
ENDBRANCH  31  32
ENDBRANCH   1  31
TORSDOF 4
ENDMDL
