MODEL 1
REMARK VINA RESULT:      -8.0      0.000      0.000
REMARK  4 active torsions:
REMARK  status: ('A' for Active; 'I' for Inactive)
REMARK    1  A    between atoms: C3_5  and  C4_6 
REMARK    2  A    between atoms: C4_6  and  N2_7 
REMARK    3  A    between atoms: N2_7  and  C5_8 
REMARK    4  A    between atoms: C7_10  and  O1_11 
ROOT
HETATM    1  C1  UNL     1      22.929   2.867  49.135  1.00  0.00     0.157 C 
HETATM    2  N1  UNL     1      23.632   2.394  50.334  1.00  0.00    -0.345 N 
HETATM    3  C2  UNL     1      24.949   2.763  50.791  1.00  0.00     0.090 A 
HETATM    4  S1  UNL     1      25.926   3.827  50.006  1.00  0.00    -0.064 SA
HETATM    5  C3  UNL     1      25.241   2.033  52.050  1.00  0.00     0.100 A 
HETATM    6  C10 UNL     1      24.030   1.242  52.269  1.00  0.00    -0.017 A 
HETATM    7  C11 UNL     1      23.727   0.375  53.278  1.00  0.00     0.034 A 
HETATM    8  C12 UNL     1      22.535  -0.314  53.369  1.00  0.00     0.034 A 
HETATM    9 CL1  UNL     1      22.197  -1.427  54.701  1.00  0.00    -0.084 Cl
HETATM   10  C13 UNL     1      21.584  -0.115  52.374  1.00  0.00     0.026 A 
HETATM   11  C14 UNL     1      21.866   0.757  51.344  1.00  0.00     0.032 A 
HETATM   12  C15 UNL     1      23.077   1.447  51.266  1.00  0.00     0.042 A 
ENDROOT
BRANCH   5  13
HETATM   13  C4  UNL     1      26.497   1.209  51.973  1.00  0.00     0.136 C 
BRANCH  13  14
HETATM   14  N2  UNL     1      26.962   0.732  53.256  1.00  0.00    -0.389 N 
HETATM   15  H7  UNL     1      26.633   1.115  54.169  1.00  0.00     0.159 HD
BRANCH  14  16
HETATM   16  C5  UNL     1      27.920  -0.321  53.255  1.00  0.00     0.026 A 
HETATM   17  C6  UNL     1      27.820  -1.469  52.593  1.00  0.00     0.037 A 
HETATM   18  C7  UNL     1      29.024  -2.302  52.850  1.00  0.00     0.166 A 
HETATM   19  C8  UNL     1      29.857  -1.484  53.761  1.00  0.00     0.011 A 
HETATM   20  C9  UNL     1      29.195  -0.376  53.962  1.00  0.00     0.027 A 
BRANCH  18  21
HETATM   21  O1  UNL     1      28.694  -3.465  53.545  1.00  0.00    -0.388 OA
HETATM   22  H10 UNL     1      29.414  -3.590  54.224  1.00  0.00     0.210 HD
ENDBRANCH  18  21
ENDBRANCH  14  16
ENDBRANCH  13  14
ENDBRANCH   5  13
TORSDOF 4
ENDMDL
MODEL 2
REMARK VINA RESULT:      -7.8      1.625      1.898
REMARK  4 active torsions:
REMARK  status: ('A' for Active; 'I' for Inactive)
REMARK    1  A    between atoms: C3_5  and  C4_6 
REMARK    2  A    between atoms: C4_6  and  N2_7 
REMARK    3  A    between atoms: N2_7  and  C5_8 
REMARK    4  A    between atoms: C7_10  and  O1_11 
ROOT
HETATM    1  C1  UNL     1      21.448   2.234  49.041  1.00  0.00     0.157 C 
HETATM    2  N1  UNL     1      22.479   2.196  50.085  1.00  0.00    -0.345 N 
HETATM    3  C2  UNL     1      23.654   3.024  50.198  1.00  0.00     0.090 A 
HETATM    4  S1  UNL     1      24.051   4.204  49.124  1.00  0.00    -0.064 SA
HETATM    5  C3  UNL     1      24.405   2.626  51.416  1.00  0.00     0.100 A 
HETATM    6  C10 UNL     1      23.595   1.541  51.970  1.00  0.00    -0.017 A 
HETATM    7  C11 UNL     1      23.797   0.791  53.092  1.00  0.00     0.034 A 
HETATM    8  C12 UNL     1      22.946  -0.213  53.510  1.00  0.00     0.034 A 
HETATM    9 CL1  UNL     1      23.259  -1.154  54.973  1.00  0.00    -0.084 Cl
HETATM   10  C13 UNL     1      21.817  -0.477  52.743  1.00  0.00     0.026 A 
HETATM   11  C14 UNL     1      21.591   0.268  51.605  1.00  0.00     0.032 A 
HETATM   12  C15 UNL     1      22.460   1.280  51.196  1.00  0.00     0.042 A 
ENDROOT
BRANCH   5  13
HETATM   13  C4  UNL     1      25.828   2.234  51.127  1.00  0.00     0.136 C 
BRANCH  13  14
HETATM   14  N2  UNL     1      26.796   2.875  51.988  1.00  0.00    -0.389 N 
HETATM   15  H7  UNL     1      26.932   3.908  52.036  1.00  0.00     0.159 HD
BRANCH  14  16
HETATM   16  C5  UNL     1      27.600   2.034  52.808  1.00  0.00     0.026 A 
HETATM   17  C6  UNL     1      27.481   0.716  52.931  1.00  0.00     0.037 A 
HETATM   18  C7  UNL     1      28.504   0.207  53.882  1.00  0.00     0.166 A 
HETATM   19  C8  UNL     1      29.251   1.413  54.308  1.00  0.00     0.011 A 
HETATM   20  C9  UNL     1      28.707   2.419  53.678  1.00  0.00     0.027 A 
BRANCH  18  21
HETATM   21  O1  UNL     1      27.911  -0.321  55.027  1.00  0.00    -0.388 OA
HETATM   22  H10 UNL     1      27.017  -0.659  54.739  1.00  0.00     0.210 HD
ENDBRANCH  18  21
ENDBRANCH  14  16
ENDBRANCH  13  14
ENDBRANCH   5  13
TORSDOF 4
ENDMDL
MODEL 3
REMARK VINA RESULT:      -7.7      3.691      5.820
REMARK  4 active torsions:
REMARK  status: ('A' for Active; 'I' for Inactive)
REMARK    1  A    between atoms: C3_5  and  C4_6 
REMARK    2  A    between atoms: C4_6  and  N2_7 
REMARK    3  A    between atoms: N2_7  and  C5_8 
REMARK    4  A    between atoms: C7_10  and  O1_11 
ROOT
HETATM    1  C1  UNL     1      22.116  -0.338  53.312  1.00  0.00     0.157 C 
HETATM    2  N1  UNL     1      23.136   0.672  53.001  1.00  0.00    -0.345 N 
HETATM    3  C2  UNL     1      22.936   1.992  52.457  1.00  0.00     0.090 A 
HETATM    4  S1  UNL     1      21.461   2.613  52.079  1.00  0.00    -0.064 SA
HETATM    5  C3  UNL     1      24.256   2.655  52.310  1.00  0.00     0.100 A 
HETATM    6  C10 UNL     1      25.195   1.643  52.796  1.00  0.00    -0.017 A 
HETATM    7  C11 UNL     1      26.555   1.695  52.896  1.00  0.00     0.034 A 
HETATM    8  C12 UNL     1      27.332   0.661  53.377  1.00  0.00     0.034 A 
HETATM    9 CL1  UNL     1      29.092   0.784  53.483  1.00  0.00    -0.084 Cl
HETATM   10  C13 UNL     1      26.692  -0.505  53.784  1.00  0.00     0.026 A 
HETATM   11  C14 UNL     1      25.319  -0.582  53.693  1.00  0.00     0.032 A 
HETATM   12  C15 UNL     1      24.547   0.473  53.204  1.00  0.00     0.042 A 
ENDROOT
BRANCH   5  13
HETATM   13  C4  UNL     1      24.530   3.113  50.905  1.00  0.00     0.136 C 
BRANCH  13  14
HETATM   14  N2  UNL     1      24.793   4.530  50.793  1.00  0.00    -0.389 N 
HETATM   15  H7  UNL     1      24.273   5.258  51.331  1.00  0.00     0.159 HD
BRANCH  14  16
HETATM   16  C5  UNL     1      25.822   4.937  49.898  1.00  0.00     0.026 A 
HETATM   17  C6  UNL     1      26.838   4.188  49.482  1.00  0.00     0.037 A 
HETATM   18  C7  UNL     1      27.694   4.975  48.555  1.00  0.00     0.166 A 
HETATM   19  C8  UNL     1      27.039   6.301  48.478  1.00  0.00     0.011 A 
HETATM   20  C9  UNL     1      25.989   6.234  49.251  1.00  0.00     0.027 A 
BRANCH  18  21
HETATM   21  O1  UNL     1      28.962   5.184  49.094  1.00  0.00    -0.388 OA
HETATM   22  H10 UNL     1      28.833   5.232  50.082  1.00  0.00     0.210 HD
ENDBRANCH  18  21
ENDBRANCH  14  16
ENDBRANCH  13  14
ENDBRANCH   5  13
TORSDOF 4
ENDMDL
MODEL 4
REMARK VINA RESULT:      -7.5      3.860      5.158
REMARK  4 active torsions:
REMARK  status: ('A' for Active; 'I' for Inactive)
REMARK    1  A    between atoms: C3_5  and  C4_6 
REMARK    2  A    between atoms: C4_6  and  N2_7 
REMARK    3  A    between atoms: N2_7  and  C5_8 
REMARK    4  A    between atoms: C7_10  and  O1_11 
ROOT
HETATM    1  C1  UNL     1      22.851   4.938  52.433  1.00  0.00     0.157 C 
HETATM    2  N1  UNL     1      23.872   4.440  51.502  1.00  0.00    -0.345 N 
HETATM    3  C2  UNL     1      24.236   3.070  51.238  1.00  0.00     0.090 A 
HETATM    4  S1  UNL     1      23.531   1.778  51.971  1.00  0.00    -0.064 SA
HETATM    5  C3  UNL     1      25.319   3.050  50.223  1.00  0.00     0.100 A 
HETATM    6  C10 UNL     1      25.540   4.467  49.938  1.00  0.00    -0.017 A 
HETATM    7  C11 UNL     1      26.422   5.055  49.079  1.00  0.00     0.034 A 
HETATM    8  C12 UNL     1      26.530   6.420  48.901  1.00  0.00     0.034 A 
HETATM    9 CL1  UNL     1      27.693   7.126  47.772  1.00  0.00    -0.084 Cl
HETATM   10  C13 UNL     1      25.692   7.246  49.642  1.00  0.00     0.026 A 
HETATM   11  C14 UNL     1      24.792   6.676  50.517  1.00  0.00     0.032 A 
HETATM   12  C15 UNL     1      24.694   5.294  50.685  1.00  0.00     0.042 A 
ENDROOT
BRANCH   5  13
HETATM   13  C4  UNL     1      26.551   2.326  50.694  1.00  0.00     0.136 C 
BRANCH  13  14
HETATM   14  N2  UNL     1      27.110   2.859  51.916  1.00  0.00    -0.389 N 
HETATM   15  H7  UNL     1      27.078   3.869  52.173  1.00  0.00     0.159 HD
BRANCH  14  16
HETATM   16  C5  UNL     1      27.733   1.939  52.806  1.00  0.00     0.026 A 
HETATM   17  C6  UNL     1      27.435   0.651  52.934  1.00  0.00     0.037 A 
HETATM   18  C7  UNL     1      28.308   0.034  53.967  1.00  0.00     0.166 A 
HETATM   19  C8  UNL     1      29.171   1.143  54.435  1.00  0.00     0.011 A 
HETATM   20  C9  UNL     1      28.812   2.197  53.754  1.00  0.00     0.027 A 
BRANCH  18  21
HETATM   21  O1  UNL     1      27.567  -0.388  55.068  1.00  0.00    -0.388 OA
HETATM   22  H10 UNL     1      28.173  -0.982  55.594  1.00  0.00     0.210 HD
ENDBRANCH  18  21
ENDBRANCH  14  16
ENDBRANCH  13  14
ENDBRANCH   5  13
TORSDOF 4
ENDMDL
MODEL 5
REMARK VINA RESULT:      -7.4      3.027      5.315
REMARK  4 active torsions:
REMARK  status: ('A' for Active; 'I' for Inactive)
REMARK    1  A    between atoms: C3_5  and  C4_6 
REMARK    2  A    between atoms: C4_6  and  N2_7 
REMARK    3  A    between atoms: N2_7  and  C5_8 
REMARK    4  A    between atoms: C7_10  and  O1_11 
ROOT
HETATM    1  C1  UNL     1      26.047  -0.340  54.754  1.00  0.00     0.157 C 
HETATM    2  N1  UNL     1      25.066   0.186  53.797  1.00  0.00    -0.345 N 
HETATM    3  C2  UNL     1      25.295   1.105  52.709  1.00  0.00     0.090 A 
HETATM    4  S1  UNL     1      26.766   1.745  52.345  1.00  0.00    -0.064 SA
HETATM    5  C3  UNL     1      24.008   1.353  52.012  1.00  0.00     0.100 A 
HETATM    6  C10 UNL     1      23.056   0.532  52.761  1.00  0.00    -0.017 A 
HETATM    7  C11 UNL     1      21.716   0.363  52.572  1.00  0.00     0.034 A 
HETATM    8  C12 UNL     1      20.924  -0.450  53.357  1.00  0.00     0.034 A 
HETATM    9 CL1  UNL     1      19.190  -0.630  53.065  1.00  0.00    -0.084 Cl
HETATM   10  C13 UNL     1      21.527  -1.138  54.405  1.00  0.00     0.026 A 
HETATM   11  C14 UNL     1      22.880  -0.984  54.616  1.00  0.00     0.032 A 
HETATM   12  C15 UNL     1      23.668  -0.158  53.813  1.00  0.00     0.042 A 
ENDROOT
BRANCH   5  13
HETATM   13  C4  UNL     1      23.641   2.810  51.957  1.00  0.00     0.136 C 
BRANCH  13  14
HETATM   14  N2  UNL     1      23.496   3.325  50.614  1.00  0.00    -0.389 N 
HETATM   15  H7  UNL     1      22.647   3.173  50.026  1.00  0.00     0.159 HD
BRANCH  14  16
HETATM   16  C5  UNL     1      24.578   4.080  50.082  1.00  0.00     0.026 A 
HETATM   17  C6  UNL     1      25.597   3.597  49.378  1.00  0.00     0.037 A 
HETATM   18  C7  UNL     1      26.518   4.704  49.005  1.00  0.00     0.166 A 
HETATM   19  C8  UNL     1      25.899   5.916  49.588  1.00  0.00     0.011 A 
HETATM   20  C9  UNL     1      24.809   5.517  50.186  1.00  0.00     0.027 A 
BRANCH  18  21
HETATM   21  O1  UNL     1      27.760   4.554  49.617  1.00  0.00    -0.388 OA
HETATM   22  H10 UNL     1      27.628   4.816  50.570  1.00  0.00     0.210 HD
ENDBRANCH  18  21
ENDBRANCH  14  16
ENDBRANCH  13  14
ENDBRANCH   5  13
TORSDOF 4
ENDMDL
MODEL 6
REMARK VINA RESULT:      -7.4      2.789      3.960
REMARK  4 active torsions:
REMARK  status: ('A' for Active; 'I' for Inactive)
REMARK    1  A    between atoms: C3_5  and  C4_6 
REMARK    2  A    between atoms: C4_6  and  N2_7 
REMARK    3  A    between atoms: N2_7  and  C5_8 
REMARK    4  A    between atoms: C7_10  and  O1_11 
ROOT
HETATM    1  C1  UNL     1      18.481   0.372  51.512  1.00  0.00     0.157 C 
HETATM    2  N1  UNL     1      19.865   0.711  51.866  1.00  0.00    -0.345 N 
HETATM    3  C2  UNL     1      20.688   1.758  51.313  1.00  0.00     0.090 A 
HETATM    4  S1  UNL     1      20.187   2.794  50.138  1.00  0.00    -0.064 SA
HETATM    5  C3  UNL     1      22.016   1.724  51.976  1.00  0.00     0.100 A 
HETATM    6  C10 UNL     1      21.893   0.612  52.919  1.00  0.00    -0.017 A 
HETATM    7  C11 UNL     1      22.806   0.116  53.803  1.00  0.00     0.034 A 
HETATM    8  C12 UNL     1      22.560  -0.949  54.647  1.00  0.00     0.034 A 
HETATM    9 CL1  UNL     1      23.783  -1.551  55.773  1.00  0.00    -0.084 Cl
HETATM   10  C13 UNL     1      21.308  -1.552  54.594  1.00  0.00     0.026 A 
HETATM   11  C14 UNL     1      20.368  -1.068  53.709  1.00  0.00     0.032 A 
HETATM   12  C15 UNL     1      20.631   0.010  52.863  1.00  0.00     0.042 A 
ENDROOT
BRANCH   5  13
HETATM   13  C4  UNL     1      23.154   1.571  51.005  1.00  0.00     0.136 C 
BRANCH  13  14
HETATM   14  N2  UNL     1      24.218   2.531  51.197  1.00  0.00    -0.389 N 
HETATM   15  H7  UNL     1      24.220   3.484  50.773  1.00  0.00     0.159 HD
BRANCH  14  16
HETATM   16  C5  UNL     1      25.315   2.137  52.014  1.00  0.00     0.026 A 
HETATM   17  C6  UNL     1      25.492   2.454  53.292  1.00  0.00     0.037 A 
HETATM   18  C7  UNL     1      26.758   1.851  53.787  1.00  0.00     0.166 A 
HETATM   19  C8  UNL     1      27.309   1.128  52.619  1.00  0.00     0.011 A 
HETATM   20  C9  UNL     1      26.463   1.316  51.642  1.00  0.00     0.027 A 
BRANCH  18  21
HETATM   21  O1  UNL     1      27.687   2.834  54.124  1.00  0.00    -0.388 OA
HETATM   22  H10 UNL     1      27.203   3.703  54.051  1.00  0.00     0.210 HD
ENDBRANCH  18  21
ENDBRANCH  14  16
ENDBRANCH  13  14
ENDBRANCH   5  13
TORSDOF 4
ENDMDL
MODEL 7
REMARK VINA RESULT:      -7.3      8.284     10.478
REMARK  4 active torsions:
REMARK  status: ('A' for Active; 'I' for Inactive)
REMARK    1  A    between atoms: C3_5  and  C4_6 
REMARK    2  A    between atoms: C4_6  and  N2_7 
REMARK    3  A    between atoms: N2_7  and  C5_8 
REMARK    4  A    between atoms: C7_10  and  O1_11 
ROOT
HETATM    1  C1  UNL     1      35.084   7.365  48.449  1.00  0.00     0.157 C 
HETATM    2  N1  UNL     1      33.837   6.699  48.052  1.00  0.00    -0.345 N 
HETATM    3  C2  UNL     1      32.546   7.301  47.824  1.00  0.00     0.090 A 
HETATM    4  S1  UNL     1      32.246   8.911  47.976  1.00  0.00    -0.064 SA
HETATM    5  C3  UNL     1      31.583   6.238  47.442  1.00  0.00     0.100 A 
HETATM    6  C10 UNL     1      32.396   5.022  47.470  1.00  0.00    -0.017 A 
HETATM    7  C11 UNL     1      32.041   3.731  47.203  1.00  0.00     0.034 A 
HETATM    8  C12 UNL     1      32.915   2.664  47.266  1.00  0.00     0.034 A 
HETATM    9 CL1  UNL     1      32.398   1.011  46.910  1.00  0.00    -0.084 Cl
HETATM   10  C13 UNL     1      34.235   2.917  47.622  1.00  0.00     0.026 A 
HETATM   11  C14 UNL     1      34.618   4.213  47.896  1.00  0.00     0.032 A 
HETATM   12  C15 UNL     1      33.723   5.282  47.828  1.00  0.00     0.042 A 
ENDROOT
BRANCH   5  13
HETATM   13  C4  UNL     1      30.380   6.184  48.341  1.00  0.00     0.136 C 
BRANCH  13  14
HETATM   14  N2  UNL     1      29.130   6.440  47.661  1.00  0.00    -0.389 N 
HETATM   15  H7  UNL     1      29.061   6.935  46.745  1.00  0.00     0.159 HD
BRANCH  14  16
HETATM   16  C5  UNL     1      27.937   5.983  48.290  1.00  0.00     0.026 A 
HETATM   17  C6  UNL     1      26.881   6.728  48.596  1.00  0.00     0.037 A 
HETATM   18  C7  UNL     1      25.842   5.883  49.242  1.00  0.00     0.166 A 
HETATM   19  C8  UNL     1      26.433   4.525  49.274  1.00  0.00     0.011 A 
HETATM   20  C9  UNL     1      27.614   4.629  48.728  1.00  0.00     0.027 A 
BRANCH  18  21
HETATM   21  O1  UNL     1      25.635   6.261  50.567  1.00  0.00    -0.388 OA
HETATM   22  H10 UNL     1      24.745   6.712  50.586  1.00  0.00     0.210 HD
ENDBRANCH  18  21
ENDBRANCH  14  16
ENDBRANCH  13  14
ENDBRANCH   5  13
TORSDOF 4
ENDMDL
MODEL 8
REMARK VINA RESULT:      -7.2      3.776      5.192
REMARK  4 active torsions:
REMARK  status: ('A' for Active; 'I' for Inactive)
REMARK    1  A    between atoms: C3_5  and  C4_6 
REMARK    2  A    between atoms: C4_6  and  N2_7 
REMARK    3  A    between atoms: N2_7  and  C5_8 
REMARK    4  A    between atoms: C7_10  and  O1_11 
ROOT
HETATM    1  C1  UNL     1      22.216   5.746  49.384  1.00  0.00     0.157 C 
HETATM    2  N1  UNL     1      23.380   4.872  49.570  1.00  0.00    -0.345 N 
HETATM    3  C2  UNL     1      23.414   3.556  50.160  1.00  0.00     0.090 A 
HETATM    4  S1  UNL     1      22.088   2.782  50.750  1.00  0.00    -0.064 SA
HETATM    5  C3  UNL     1      24.811   3.056  50.136  1.00  0.00     0.100 A 
HETATM    6  C10 UNL     1      25.550   4.152  49.508  1.00  0.00    -0.017 A 
HETATM    7  C11 UNL     1      26.880   4.253  49.222  1.00  0.00     0.034 A 
HETATM    8  C12 UNL     1      27.456   5.354  48.620  1.00  0.00     0.034 A 
HETATM    9 CL1  UNL     1      29.188   5.430  48.274  1.00  0.00    -0.084 Cl
HETATM   10  C13 UNL     1      26.634   6.424  48.284  1.00  0.00     0.026 A 
HETATM   11  C14 UNL     1      25.285   6.344  48.562  1.00  0.00     0.032 A 
HETATM   12  C15 UNL     1      24.718   5.225  49.171  1.00  0.00     0.042 A 
ENDROOT
BRANCH   5  13
HETATM   13  C4  UNL     1      25.325   2.681  51.498  1.00  0.00     0.136 C 
BRANCH  13  14
HETATM   14  N2  UNL     1      25.564   1.264  51.663  1.00  0.00    -0.389 N 
HETATM   15  H7  UNL     1      24.954   0.525  51.252  1.00  0.00     0.159 HD
BRANCH  14  16
HETATM   16  C5  UNL     1      26.698   0.876  52.430  1.00  0.00     0.026 A 
HETATM   17  C6  UNL     1      27.521   1.694  53.077  1.00  0.00     0.037 A 
HETATM   18  C7  UNL     1      28.581   0.903  53.758  1.00  0.00     0.166 A 
HETATM   19  C8  UNL     1      28.268  -0.505  53.423  1.00  0.00     0.011 A 
HETATM   20  C9  UNL     1      27.200  -0.472  52.673  1.00  0.00     0.027 A 
BRANCH  18  21
HETATM   21  O1  UNL     1      29.837   1.174  53.219  1.00  0.00    -0.388 OA
HETATM   22  H10 UNL     1      30.494   0.732  53.826  1.00  0.00     0.210 HD
ENDBRANCH  18  21
ENDBRANCH  14  16
ENDBRANCH  13  14
ENDBRANCH   5  13
TORSDOF 4
ENDMDL
MODEL 9
REMARK VINA RESULT:      -7.0      2.866      3.784
REMARK  4 active torsions:
REMARK  status: ('A' for Active; 'I' for Inactive)
REMARK    1  A    between atoms: C3_5  and  C4_6 
REMARK    2  A    between atoms: C4_6  and  N2_7 
REMARK    3  A    between atoms: N2_7  and  C5_8 
REMARK    4  A    between atoms: C7_10  and  O1_11 
ROOT
HETATM    1  C1  UNL     1      21.509  -1.030  54.869  1.00  0.00     0.157 C 
HETATM    2  N1  UNL     1      22.318  -0.377  53.831  1.00  0.00    -0.345 N 
HETATM    3  C2  UNL     1      23.752  -0.241  53.783  1.00  0.00     0.090 A 
HETATM    4  S1  UNL     1      24.768  -0.823  54.938  1.00  0.00    -0.064 SA
HETATM    5  C3  UNL     1      24.122   0.492  52.546  1.00  0.00     0.100 A 
HETATM    6  C10 UNL     1      22.830   0.757  51.913  1.00  0.00    -0.017 A 
HETATM    7  C11 UNL     1      22.550   1.402  50.744  1.00  0.00     0.034 A 
HETATM    8  C12 UNL     1      21.273   1.586  50.253  1.00  0.00     0.034 A 
HETATM    9 CL1  UNL     1      20.969   2.432  48.731  1.00  0.00    -0.084 Cl
HETATM   10  C13 UNL     1      20.207   1.084  50.993  1.00  0.00     0.026 A 
HETATM   11  C14 UNL     1      20.465   0.428  52.178  1.00  0.00     0.032 A 
HETATM   12  C15 UNL     1      21.762   0.250  52.661  1.00  0.00     0.042 A 
ENDROOT
BRANCH   5  13
HETATM   13  C4  UNL     1      24.930   1.731  52.817  1.00  0.00     0.136 C 
BRANCH  13  14
HETATM   14  N2  UNL     1      26.214   1.748  52.153  1.00  0.00    -0.389 N 
HETATM   15  H7  UNL     1      26.399   2.265  51.266  1.00  0.00     0.159 HD
BRANCH  14  16
HETATM   16  C5  UNL     1      27.273   1.014  52.758  1.00  0.00     0.026 A 
HETATM   17  C6  UNL     1      28.247   1.520  53.507  1.00  0.00     0.037 A 
HETATM   18  C7  UNL     1      29.156   0.430  53.950  1.00  0.00     0.166 A 
HETATM   19  C8  UNL     1      28.582  -0.799  53.356  1.00  0.00     0.011 A 
HETATM   20  C9  UNL     1      27.522  -0.422  52.693  1.00  0.00     0.027 A 
BRANCH  18  21
HETATM   21  O1  UNL     1      30.429   0.582  53.404  1.00  0.00    -0.388 OA
HETATM   22  H10 UNL     1      31.003   0.928  54.143  1.00  0.00     0.210 HD
ENDBRANCH  18  21
ENDBRANCH  14  16
ENDBRANCH  13  14
ENDBRANCH   5  13
TORSDOF 4
ENDMDL
