MODEL 1
REMARK VINA RESULT:      -8.0      0.000      0.000
REMARK  2 active torsions:
REMARK  status: ('A' for Active; 'I' for Inactive)
REMARK    1  A    between atoms: C18_19  and  C19_20 
REMARK    2  A    between atoms: C19_20  and  N1_21 
ROOT
HETATM    1  C1  UNL     1      25.354   9.238  43.111  1.00  0.00     0.045 C 
HETATM    2  C2  UNL     1      26.318   9.065  44.155  1.00  0.00    -0.064 C 
HETATM    3  C3  UNL     1      27.587   8.846  44.422  1.00  0.00     0.034 C 
HETATM    4  C4  UNL     1      27.931   8.795  45.836  1.00  0.00     0.039 C 
HETATM    5  C5  UNL     1      29.153   8.494  46.125  1.00  0.00    -0.007 C 
HETATM    6  C6  UNL     1      30.172   8.201  45.073  1.00  0.00     0.387 C 
HETATM    7  O1  UNL     1      30.976   7.969  44.163  1.00  0.00    -0.405 OA
HETATM    8  C7  UNL     1      29.871   8.393  47.443  1.00  0.00     0.049 C 
HETATM    9  C8  UNL     1      29.781   6.906  47.848  1.00  0.00    -0.025 A 
HETATM   10  C9  UNL     1      31.265   6.623  47.699  1.00  0.00     0.010 A 
HETATM   11  C10 UNL     1      31.958   5.717  46.876  1.00  0.00    -0.012 A 
HETATM   12  C11 UNL     1      33.326   5.391  46.726  1.00  0.00    -0.003 A 
HETATM   13  C12 UNL     1      34.072   6.156  47.601  1.00  0.00     0.000 A 
HETATM   14  C13 UNL     1      33.595   7.077  48.473  1.00  0.00     0.004 A 
HETATM   15  C14 UNL     1      32.211   7.313  48.531  1.00  0.00    -0.071 A 
HETATM   16  C15 UNL     1      31.786   8.227  49.605  1.00  0.00     0.044 C 
HETATM   17  C16 UNL     1      29.953   5.596  48.153  1.00  0.00     0.051 A 
HETATM   18  C17 UNL     1      28.553   5.216  48.522  1.00  0.00     0.039 A 
HETATM   19  C18 UNL     1      27.314   4.770  48.874  1.00  0.00     0.120 A 
HETATM   20  O2  UNL     1      27.360   6.037  48.551  1.00  0.00     0.000 OA
HETATM   21  C20 UNL     1      26.464   7.047  48.586  1.00  0.00     0.078 A 
HETATM   22  O3  UNL     1      26.431   5.842  48.884  1.00  0.00    -0.337 OA
HETATM   23  C21 UNL     1      25.668   8.279  48.533  1.00  0.00     0.087 C 
HETATM   24  C22 UNL     1      26.360   9.388  47.810  1.00  0.00     0.130 C 
HETATM   25  N2  UNL     1      26.693   9.033  46.408  1.00  0.00    -0.376 N 
HETATM   26  C23 UNL     1      25.607   8.919  45.482  1.00  0.00     0.157 C 
ENDROOT
BRANCH  19  27
HETATM   27  C19 UNL     1      26.635   3.526  49.322  1.00  0.00     0.153 C 
BRANCH  27  28
HETATM   28  N1  UNL     1      26.638   3.459  50.755  1.00  0.00    -0.427 N 
HETATM   29  H19 UNL     1      26.560   4.367  51.219  1.00  0.00     0.150 HD
HETATM   30  H20 UNL     1      27.272   2.796  51.186  1.00  0.00     0.150 HD
ENDBRANCH  27  28
ENDBRANCH  19  27
TORSDOF 2
ENDMDL
MODEL 2
REMARK VINA RESULT:      -8.0      3.675      5.226
REMARK  2 active torsions:
REMARK  status: ('A' for Active; 'I' for Inactive)
REMARK    1  A    between atoms: C18_19  and  C19_20 
REMARK    2  A    between atoms: C19_20  and  N1_21 
ROOT
HETATM    1  C1  UNL     1      32.396  10.234  41.302  1.00  0.00     0.045 C 
HETATM    2  C2  UNL     1      32.753   9.460  42.452  1.00  0.00    -0.064 C 
HETATM    3  C3  UNL     1      32.980   8.246  42.903  1.00  0.00     0.034 C 
HETATM    4  C4  UNL     1      33.353   8.157  44.307  1.00  0.00     0.039 C 
HETATM    5  C5  UNL     1      33.494   6.971  44.797  1.00  0.00    -0.007 C 
HETATM    6  C6  UNL     1      33.281   5.740  43.977  1.00  0.00     0.387 C 
HETATM    7  O1  UNL     1      33.094   4.755  43.255  1.00  0.00    -0.405 OA
HETATM    8  C7  UNL     1      33.909   6.498  46.163  1.00  0.00     0.049 C 
HETATM    9  C8  UNL     1      32.593   6.277  46.938  1.00  0.00    -0.025 A 
HETATM   10  C9  UNL     1      32.728   4.767  47.031  1.00  0.00     0.010 A 
HETATM   11  C10 UNL     1      31.902   3.731  46.560  1.00  0.00    -0.012 A 
HETATM   12  C11 UNL     1      31.963   2.322  46.651  1.00  0.00    -0.003 A 
HETATM   13  C12 UNL     1      33.090   1.963  47.365  1.00  0.00     0.000 A 
HETATM   14  C13 UNL     1      34.004   2.806  47.902  1.00  0.00     0.004 A 
HETATM   15  C14 UNL     1      33.834   4.192  47.746  1.00  0.00    -0.071 A 
HETATM   16  C15 UNL     1      34.802   5.020  48.484  1.00  0.00     0.044 C 
HETATM   17  C16 UNL     1      31.494   5.834  47.599  1.00  0.00     0.051 A 
HETATM   18  C17 UNL     1      30.817   7.134  47.903  1.00  0.00     0.039 A 
HETATM   19  C18 UNL     1      30.121   8.260  48.226  1.00  0.00     0.120 A 
HETATM   20  O2  UNL     1      31.238   8.482  47.583  1.00  0.00     0.000 OA
HETATM   21  C20 UNL     1      31.924   9.596  47.250  1.00  0.00     0.078 A 
HETATM   22  O3  UNL     1      30.862   9.374  47.854  1.00  0.00    -0.337 OA
HETATM   23  C21 UNL     1      32.824  10.658  46.784  1.00  0.00     0.087 C 
HETATM   24  C22 UNL     1      33.893  10.153  45.870  1.00  0.00     0.130 C 
HETATM   25  N2  UNL     1      33.343   9.497  44.659  1.00  0.00    -0.376 N 
HETATM   26  C23 UNL     1      32.710  10.335  43.685  1.00  0.00     0.157 C 
ENDROOT
BRANCH  19  27
HETATM   27  C19 UNL     1      28.868   8.668  48.914  1.00  0.00     0.153 C 
BRANCH  27  28
HETATM   28  N1  UNL     1      29.185   9.420  50.094  1.00  0.00    -0.427 N 
HETATM   29  H19 UNL     1      28.454  10.074  50.385  1.00  0.00     0.150 HD
HETATM   30  H20 UNL     1      30.138   9.752  50.191  1.00  0.00     0.150 HD
ENDBRANCH  27  28
ENDBRANCH  19  27
TORSDOF 2
ENDMDL
MODEL 3
REMARK VINA RESULT:      -7.7      7.830     12.405
REMARK  2 active torsions:
REMARK  status: ('A' for Active; 'I' for Inactive)
REMARK    1  A    between atoms: C18_19  and  C19_20 
REMARK    2  A    between atoms: C19_20  and  N1_21 
ROOT
HETATM    1  C1  UNL     1      25.667  -0.768  54.050  1.00  0.00     0.045 C 
HETATM    2  C2  UNL     1      24.489  -0.050  53.672  1.00  0.00    -0.064 C 
HETATM    3  C3  UNL     1      23.177  -0.103  53.584  1.00  0.00     0.034 C 
HETATM    4  C4  UNL     1      22.532   1.100  53.081  1.00  0.00     0.039 C 
HETATM    5  C5  UNL     1      21.254   1.042  52.901  1.00  0.00    -0.007 C 
HETATM    6  C6  UNL     1      20.465  -0.195  53.184  1.00  0.00     0.387 C 
HETATM    7  O1  UNL     1      19.860  -1.242  53.435  1.00  0.00    -0.405 OA
HETATM    8  C7  UNL     1      20.262   2.078  52.449  1.00  0.00     0.049 C 
HETATM    9  C8  UNL     1      20.129   1.881  50.924  1.00  0.00    -0.025 A 
HETATM   10  C9  UNL     1      18.693   1.390  50.964  1.00  0.00     0.010 A 
HETATM   11  C10 UNL     1      18.116   0.176  50.547  1.00  0.00    -0.012 A 
HETATM   12  C11 UNL     1      16.790  -0.314  50.529  1.00  0.00    -0.003 A 
HETATM   13  C12 UNL     1      15.943   0.653  51.036  1.00  0.00     0.000 A 
HETATM   14  C13 UNL     1      16.301   1.880  51.484  1.00  0.00     0.004 A 
HETATM   15  C14 UNL     1      17.654   2.255  51.450  1.00  0.00    -0.071 A 
HETATM   16  C15 UNL     1      17.917   3.655  51.828  1.00  0.00     0.044 C 
HETATM   17  C16 UNL     1      19.778   1.619  49.640  1.00  0.00     0.051 A 
HETATM   18  C17 UNL     1      21.025   2.038  48.927  1.00  0.00     0.039 A 
HETATM   19  C18 UNL     1      22.113   2.390  48.184  1.00  0.00     0.120 A 
HETATM   20  O2  UNL     1      22.252   2.582  49.471  1.00  0.00     0.000 OA
HETATM   21  C20 UNL     1      23.206   3.155  50.236  1.00  0.00     0.078 A 
HETATM   22  O3  UNL     1      23.065   2.963  49.017  1.00  0.00    -0.337 OA
HETATM   23  C21 UNL     1      24.102   3.719  51.253  1.00  0.00     0.087 C 
HETATM   24  C22 UNL     1      23.684   3.381  52.647  1.00  0.00     0.130 C 
HETATM   25  N2  UNL     1      23.633   1.918  52.886  1.00  0.00    -0.376 N 
HETATM   26  C23 UNL     1      24.879   1.214  52.938  1.00  0.00     0.157 C 
ENDROOT
BRANCH  19  27
HETATM   27  C19 UNL     1      22.564   2.424  46.769  1.00  0.00     0.153 C 
BRANCH  27  28
HETATM   28  N1  UNL     1      21.951   3.529  46.089  1.00  0.00    -0.427 N 
HETATM   29  H19 UNL     1      21.094   3.289  45.585  1.00  0.00     0.150 HD
HETATM   30  H20 UNL     1      22.567   4.187  45.625  1.00  0.00     0.150 HD
ENDBRANCH  27  28
ENDBRANCH  19  27
TORSDOF 2
ENDMDL
MODEL 4
REMARK VINA RESULT:      -7.6      1.521      2.050
REMARK  2 active torsions:
REMARK  status: ('A' for Active; 'I' for Inactive)
REMARK    1  A    between atoms: C18_19  and  C19_20 
REMARK    2  A    between atoms: C19_20  and  N1_21 
ROOT
HETATM    1  C1  UNL     1      23.215   7.773  43.040  1.00  0.00     0.045 C 
HETATM    2  C2  UNL     1      24.166   8.030  44.078  1.00  0.00    -0.064 C 
HETATM    3  C3  UNL     1      25.423   8.320  44.338  1.00  0.00     0.034 C 
HETATM    4  C4  UNL     1      25.752   8.477  45.747  1.00  0.00     0.039 C 
HETATM    5  C5  UNL     1      26.995   8.673  46.034  1.00  0.00    -0.007 C 
HETATM    6  C6  UNL     1      28.056   8.731  44.984  1.00  0.00     0.387 C 
HETATM    7  O1  UNL     1      28.894   8.771  44.076  1.00  0.00    -0.405 OA
HETATM    8  C7  UNL     1      27.690   8.921  47.345  1.00  0.00     0.049 C 
HETATM    9  C8  UNL     1      28.164   7.532  47.827  1.00  0.00    -0.025 A 
HETATM   10  C9  UNL     1      29.647   7.821  47.672  1.00  0.00     0.010 A 
HETATM   11  C10 UNL     1      30.636   7.201  46.886  1.00  0.00    -0.012 A 
HETATM   12  C11 UNL     1      32.026   7.407  46.734  1.00  0.00    -0.003 A 
HETATM   13  C12 UNL     1      32.423   8.441  47.558  1.00  0.00     0.000 A 
HETATM   14  C13 UNL     1      31.629   9.159  48.388  1.00  0.00     0.004 A 
HETATM   15  C14 UNL     1      30.258   8.860  48.454  1.00  0.00    -0.071 A 
HETATM   16  C15 UNL     1      29.513   9.601  49.486  1.00  0.00     0.044 C 
HETATM   17  C16 UNL     1      28.815   6.402  48.196  1.00  0.00     0.051 A 
HETATM   18  C17 UNL     1      27.659   5.543  48.604  1.00  0.00     0.039 A 
HETATM   19  C18 UNL     1      26.678   4.682  48.996  1.00  0.00     0.120 A 
HETATM   20  O2  UNL     1      26.245   5.854  48.608  1.00  0.00     0.000 OA
HETATM   21  C20 UNL     1      25.034   6.452  48.604  1.00  0.00     0.078 A 
HETATM   22  O3  UNL     1      25.456   5.342  48.964  1.00  0.00    -0.337 OA
HETATM   23  C21 UNL     1      23.833   7.289  48.499  1.00  0.00     0.087 C 
HETATM   24  C22 UNL     1      24.061   8.538  47.711  1.00  0.00     0.130 C 
HETATM   25  N2  UNL     1      24.512   8.261  46.324  1.00  0.00    -0.376 N 
HETATM   26  C23 UNL     1      23.555   7.698  45.421  1.00  0.00     0.157 C 
ENDROOT
BRANCH  19  27
HETATM   27  C19 UNL     1      26.515   3.300  49.516  1.00  0.00     0.153 C 
BRANCH  27  28
HETATM   28  N1  UNL     1      26.742   3.283  50.933  1.00  0.00    -0.427 N 
HETATM   29  H19 UNL     1      27.098   2.394  51.292  1.00  0.00     0.150 HD
HETATM   30  H20 UNL     1      26.059   3.754  51.517  1.00  0.00     0.150 HD
ENDBRANCH  27  28
ENDBRANCH  19  27
TORSDOF 2
ENDMDL
MODEL 5
REMARK VINA RESULT:      -7.6      3.614      7.597
REMARK  2 active torsions:
REMARK  status: ('A' for Active; 'I' for Inactive)
REMARK    1  A    between atoms: C18_19  and  C19_20 
REMARK    2  A    between atoms: C19_20  and  N1_21 
ROOT
HETATM    1  C1  UNL     1      30.108   6.338  47.269  1.00  0.00     0.045 C 
HETATM    2  C2  UNL     1      28.824   6.248  47.893  1.00  0.00    -0.064 C 
HETATM    3  C3  UNL     1      28.004   5.465  48.561  1.00  0.00     0.034 C 
HETATM    4  C4  UNL     1      26.735   6.065  48.943  1.00  0.00     0.039 C 
HETATM    5  C5  UNL     1      25.878   5.291  49.522  1.00  0.00    -0.007 C 
HETATM    6  C6  UNL     1      26.158   3.847  49.784  1.00  0.00     0.387 C 
HETATM    7  O1  UNL     1      26.441   2.660  49.980  1.00  0.00    -0.405 OA
HETATM    8  C7  UNL     1      24.511   5.562  50.087  1.00  0.00     0.049 C 
HETATM    9  C8  UNL     1      23.521   5.221  48.952  1.00  0.00    -0.025 A 
HETATM   10  C9  UNL     1      22.912   4.015  49.645  1.00  0.00     0.010 A 
HETATM   11  C10 UNL     1      22.851   2.661  49.268  1.00  0.00    -0.012 A 
HETATM   12  C11 UNL     1      22.269   1.514  49.855  1.00  0.00    -0.003 A 
HETATM   13  C12 UNL     1      21.650   1.875  51.035  1.00  0.00     0.000 A 
HETATM   14  C13 UNL     1      21.594   3.120  51.567  1.00  0.00     0.004 A 
HETATM   15  C14 UNL     1      22.211   4.184  50.888  1.00  0.00    -0.071 A 
HETATM   16  C15 UNL     1      21.973   5.513  51.476  1.00  0.00     0.044 C 
HETATM   17  C16 UNL     1      22.590   4.720  48.103  1.00  0.00     0.051 A 
HETATM   18  C17 UNL     1      22.678   5.715  46.987  1.00  0.00     0.039 A 
HETATM   19  C18 UNL     1      22.682   6.562  45.919  1.00  0.00     0.120 A 
HETATM   20  O2  UNL     1      23.521   6.887  46.870  1.00  0.00     0.000 OA
HETATM   21  C20 UNL     1      24.330   7.946  47.085  1.00  0.00     0.078 A 
HETATM   22  O3  UNL     1      23.536   7.625  46.187  1.00  0.00    -0.337 OA
HETATM   23  C21 UNL     1      25.275   8.982  47.520  1.00  0.00     0.087 C 
HETATM   24  C22 UNL     1      26.094   8.564  48.698  1.00  0.00     0.130 C 
HETATM   25  N2  UNL     1      26.892   7.342  48.432  1.00  0.00    -0.376 N 
HETATM   26  C23 UNL     1      27.996   7.460  47.528  1.00  0.00     0.157 C 
ENDROOT
BRANCH  19  27
HETATM   27  C19 UNL     1      22.009   6.746  44.607  1.00  0.00     0.153 C 
BRANCH  27  28
HETATM   28  N1  UNL     1      20.667   7.211  44.809  1.00  0.00    -0.427 N 
HETATM   29  H19 UNL     1      19.977   6.788  44.184  1.00  0.00     0.150 HD
HETATM   30  H20 UNL     1      20.543   8.198  45.002  1.00  0.00     0.150 HD
ENDBRANCH  27  28
ENDBRANCH  19  27
TORSDOF 2
ENDMDL
MODEL 6
REMARK VINA RESULT:      -7.5      2.148      2.663
REMARK  2 active torsions:
REMARK  status: ('A' for Active; 'I' for Inactive)
REMARK    1  A    between atoms: C18_19  and  C19_20 
REMARK    2  A    between atoms: C19_20  and  N1_21 
ROOT
HETATM    1  C1  UNL     1      29.090  10.777  42.555  1.00  0.00     0.045 C 
HETATM    2  C2  UNL     1      29.716  10.060  43.623  1.00  0.00    -0.064 C 
HETATM    3  C3  UNL     1      30.565   9.101  43.924  1.00  0.00     0.034 C 
HETATM    4  C4  UNL     1      30.778   8.873  45.346  1.00  0.00     0.039 C 
HETATM    5  C5  UNL     1      31.538   7.881  45.667  1.00  0.00    -0.007 C 
HETATM    6  C6  UNL     1      32.169   6.995  44.643  1.00  0.00     0.387 C 
HETATM    7  O1  UNL     1      32.667   6.294  43.755  1.00  0.00    -0.405 OA
HETATM    8  C7  UNL     1      32.013   7.379  47.004  1.00  0.00     0.049 C 
HETATM    9  C8  UNL     1      31.006   6.282  47.412  1.00  0.00    -0.025 A 
HETATM   10  C9  UNL     1      31.990   5.131  47.302  1.00  0.00     0.010 A 
HETATM   11  C10 UNL     1      31.979   3.975  46.501  1.00  0.00    -0.012 A 
HETATM   12  C11 UNL     1      32.845   2.864  46.387  1.00  0.00    -0.003 A 
HETATM   13  C12 UNL     1      33.890   3.011  47.278  1.00  0.00     0.000 A 
HETATM   14  C13 UNL     1      34.078   4.045  48.133  1.00  0.00     0.004 A 
HETATM   15  C14 UNL     1      33.145   5.095  48.156  1.00  0.00    -0.071 A 
HETATM   16  C15 UNL     1      33.365   6.094  49.215  1.00  0.00     0.044 C 
HETATM   17  C16 UNL     1      30.316   5.158  47.727  1.00  0.00     0.051 A 
HETATM   18  C17 UNL     1      28.980   5.743  48.061  1.00  0.00     0.039 A 
HETATM   19  C18 UNL     1      27.728   6.175  48.384  1.00  0.00     0.120 A 
HETATM   20  O2  UNL     1      28.561   7.129  48.057  1.00  0.00     0.000 OA
HETATM   21  C20 UNL     1      28.492   8.478  48.065  1.00  0.00     0.078 A 
HETATM   22  O3  UNL     1      27.709   7.563  48.367  1.00  0.00    -0.337 OA
HETATM   23  C21 UNL     1      28.641   9.936  47.986  1.00  0.00     0.087 C 
HETATM   24  C22 UNL     1      29.888  10.355  47.277  1.00  0.00     0.130 C 
HETATM   25  N2  UNL     1      29.950   9.844  45.886  1.00  0.00    -0.376 N 
HETATM   26  C23 UNL     1      29.047  10.415  44.933  1.00  0.00     0.157 C 
ENDROOT
BRANCH  19  27
HETATM   27  C19 UNL     1      26.413   5.637  48.819  1.00  0.00     0.153 C 
BRANCH  27  28
HETATM   28  N1  UNL     1      26.218   5.900  50.216  1.00  0.00    -0.427 N 
HETATM   29  H19 UNL     1      25.493   5.327  50.655  1.00  0.00     0.150 HD
HETATM   30  H20 UNL     1      26.257   6.868  50.515  1.00  0.00     0.150 HD
ENDBRANCH  27  28
ENDBRANCH  19  27
TORSDOF 2
ENDMDL
MODEL 7
REMARK VINA RESULT:      -7.0      2.978      4.493
REMARK  2 active torsions:
REMARK  status: ('A' for Active; 'I' for Inactive)
REMARK    1  A    between atoms: C18_19  and  C19_20 
REMARK    2  A    between atoms: C19_20  and  N1_21 
ROOT
HETATM    1  C1  UNL     1      20.837   5.183  44.025  1.00  0.00     0.045 C 
HETATM    2  C2  UNL     1      21.741   5.894  44.875  1.00  0.00    -0.064 C 
HETATM    3  C3  UNL     1      22.795   6.682  44.906  1.00  0.00     0.034 C 
HETATM    4  C4  UNL     1      23.235   7.091  46.232  1.00  0.00     0.039 C 
HETATM    5  C5  UNL     1      24.318   7.790  46.294  1.00  0.00    -0.007 C 
HETATM    6  C6  UNL     1      25.097   8.163  45.075  1.00  0.00     0.387 C 
HETATM    7  O1  UNL     1      25.703   8.445  44.035  1.00  0.00    -0.405 OA
HETATM    8  C7  UNL     1      25.036   8.417  47.458  1.00  0.00     0.049 C 
HETATM    9  C8  UNL     1      26.099   7.384  47.889  1.00  0.00    -0.025 A 
HETATM   10  C9  UNL     1      27.295   8.220  47.472  1.00  0.00     0.010 A 
HETATM   11  C10 UNL     1      28.324   7.971  46.545  1.00  0.00    -0.012 A 
HETATM   12  C11 UNL     1      29.472   8.695  46.149  1.00  0.00    -0.003 A 
HETATM   13  C12 UNL     1      29.530   9.876  46.862  1.00  0.00     0.000 A 
HETATM   14  C13 UNL     1      28.644  10.296  47.797  1.00  0.00     0.004 A 
HETATM   15  C14 UNL     1      27.539   9.485  48.107  1.00  0.00    -0.071 A 
HETATM   16  C15 UNL     1      26.717   9.966  49.231  1.00  0.00     0.044 C 
HETATM   17  C16 UNL     1      27.200   6.645  48.171  1.00  0.00     0.051 A 
HETATM   18  C17 UNL     1      26.567   5.441  48.797  1.00  0.00     0.039 A 
HETATM   19  C18 UNL     1      26.090   4.303  49.377  1.00  0.00     0.120 A 
HETATM   20  O2  UNL     1      25.166   5.165  49.036  1.00  0.00     0.000 OA
HETATM   21  C20 UNL     1      23.831   5.231  49.225  1.00  0.00     0.078 A 
HETATM   22  O3  UNL     1      24.715   4.419  49.538  1.00  0.00    -0.337 OA
HETATM   23  C21 UNL     1      22.391   5.509  49.306  1.00  0.00     0.087 C 
HETATM   24  C22 UNL     1      21.974   6.664  48.455  1.00  0.00     0.130 C 
HETATM   25  N2  UNL     1      22.289   6.457  47.020  1.00  0.00    -0.376 N 
HETATM   26  C23 UNL     1      21.523   5.477  46.312  1.00  0.00     0.157 C 
ENDROOT
BRANCH  19  27
HETATM   27  C19 UNL     1      26.582   3.026  49.956  1.00  0.00     0.153 C 
BRANCH  27  28
HETATM   28  N1  UNL     1      26.761   3.172  51.373  1.00  0.00    -0.427 N 
HETATM   29  H19 UNL     1      25.970   2.844  51.932  1.00  0.00     0.150 HD
HETATM   30  H20 UNL     1      27.211   4.019  51.698  1.00  0.00     0.150 HD
ENDBRANCH  27  28
ENDBRANCH  19  27
TORSDOF 2
ENDMDL
MODEL 8
REMARK VINA RESULT:      -7.0      2.640      4.976
REMARK  2 active torsions:
REMARK  status: ('A' for Active; 'I' for Inactive)
REMARK    1  A    between atoms: C18_19  and  C19_20 
REMARK    2  A    between atoms: C19_20  and  N1_21 
ROOT
HETATM    1  C1  UNL     1      24.608   6.278  49.496  1.00  0.00     0.045 C 
HETATM    2  C2  UNL     1      25.761   6.637  48.728  1.00  0.00    -0.064 C 
HETATM    3  C3  UNL     1      27.051   6.434  48.565  1.00  0.00     0.034 C 
HETATM    4  C4  UNL     1      27.672   7.183  47.483  1.00  0.00     0.039 C 
HETATM    5  C5  UNL     1      28.952   7.069  47.358  1.00  0.00    -0.007 C 
HETATM    6  C6  UNL     1      29.770   6.221  48.278  1.00  0.00     0.387 C 
HETATM    7  O1  UNL     1      30.399   5.505  49.064  1.00  0.00    -0.405 OA
HETATM    8  C7  UNL     1      29.912   7.643  46.353  1.00  0.00     0.049 C 
HETATM    9  C8  UNL     1      30.445   8.944  46.989  1.00  0.00    -0.025 A 
HETATM   10  C9  UNL     1      31.868   8.448  47.171  1.00  0.00     0.010 A 
HETATM   11  C10 UNL     1      32.655   8.291  48.327  1.00  0.00    -0.012 A 
HETATM   12  C11 UNL     1      33.987   7.870  48.545  1.00  0.00    -0.003 A 
HETATM   13  C12 UNL     1      34.572   7.571  47.331  1.00  0.00     0.000 A 
HETATM   14  C13 UNL     1      33.986   7.659  46.112  1.00  0.00     0.004 A 
HETATM   15  C14 UNL     1      32.653   8.093  46.022  1.00  0.00    -0.071 A 
HETATM   16  C15 UNL     1      32.159   8.287  44.648  1.00  0.00     0.044 C 
HETATM   17  C16 UNL     1      31.133   9.958  47.571  1.00  0.00     0.051 A 
HETATM   18  C17 UNL     1      30.069  11.009  47.633  1.00  0.00     0.039 A 
HETATM   19  C18 UNL     1      29.172  12.030  47.738  1.00  0.00     0.120 A 
HETATM   20  O2  UNL     1      28.694  10.947  47.181  1.00  0.00     0.000 OA
HETATM   21  C20 UNL     1      27.524  10.638  46.582  1.00  0.00     0.078 A 
HETATM   22  O3  UNL     1      27.986  11.658  47.117  1.00  0.00    -0.337 OA
HETATM   23  C21 UNL     1      26.347  10.083  45.903  1.00  0.00     0.087 C 
HETATM   24  C22 UNL     1      26.433   8.605  45.705  1.00  0.00     0.130 C 
HETATM   25  N2  UNL     1      26.576   7.867  46.984  1.00  0.00    -0.376 N 
HETATM   26  C23 UNL     1      25.438   7.826  47.852  1.00  0.00     0.157 C 
ENDROOT
BRANCH  19  27
HETATM   27  C19 UNL     1      29.090  13.429  48.232  1.00  0.00     0.153 C 
BRANCH  27  28
HETATM   28  N1  UNL     1      29.601  14.327  47.236  1.00  0.00    -0.427 N 
HETATM   29  H19 UNL     1      30.346  13.934  46.657  1.00  0.00     0.150 HD
HETATM   30  H20 UNL     1      29.715  15.299  47.503  1.00  0.00     0.150 HD
ENDBRANCH  27  28
ENDBRANCH  19  27
TORSDOF 2
ENDMDL
MODEL 9
REMARK VINA RESULT:      -6.9      3.442      7.284
REMARK  2 active torsions:
REMARK  status: ('A' for Active; 'I' for Inactive)
REMARK    1  A    between atoms: C18_19  and  C19_20 
REMARK    2  A    between atoms: C19_20  and  N1_21 
ROOT
HETATM    1  C1  UNL     1      21.473  11.914  48.235  1.00  0.00     0.045 C 
HETATM    2  C2  UNL     1      21.807  10.523  48.203  1.00  0.00    -0.064 C 
HETATM    3  C3  UNL     1      21.702   9.376  48.839  1.00  0.00     0.034 C 
HETATM    4  C4  UNL     1      22.317   8.234  48.180  1.00  0.00     0.039 C 
HETATM    5  C5  UNL     1      22.305   7.115  48.825  1.00  0.00    -0.007 C 
HETATM    6  C6  UNL     1      21.701   6.986  50.185  1.00  0.00     0.387 C 
HETATM    7  O1  UNL     1      21.186   6.934  51.308  1.00  0.00    -0.405 OA
HETATM    8  C7  UNL     1      22.792   5.742  48.451  1.00  0.00     0.049 C 
HETATM    9  C8  UNL     1      24.225   5.646  49.018  1.00  0.00    -0.025 A 
HETATM   10  C9  UNL     1      23.901   4.593  50.062  1.00  0.00     0.010 A 
HETATM   11  C10 UNL     1      24.011   4.612  51.464  1.00  0.00    -0.012 A 
HETATM   12  C11 UNL     1      23.759   3.654  52.472  1.00  0.00    -0.003 A 
HETATM   13  C12 UNL     1      23.320   2.484  51.884  1.00  0.00     0.000 A 
HETATM   14  C13 UNL     1      23.150   2.264  50.558  1.00  0.00     0.004 A 
HETATM   15  C14 UNL     1      23.437   3.298  49.650  1.00  0.00    -0.071 A 
HETATM   16  C15 UNL     1      23.355   2.913  48.230  1.00  0.00     0.044 C 
HETATM   17  C16 UNL     1      25.381   5.397  49.682  1.00  0.00     0.051 A 
HETATM   18  C17 UNL     1      26.323   6.286  48.932  1.00  0.00     0.039 A 
HETATM   19  C18 UNL     1      27.260   7.063  48.317  1.00  0.00     0.120 A 
HETATM   20  O2  UNL     1      26.059   7.155  47.804  1.00  0.00     0.000 OA
HETATM   21  C20 UNL     1      25.548   7.777  46.720  1.00  0.00     0.078 A 
HETATM   22  O3  UNL     1      26.681   7.686  47.219  1.00  0.00    -0.337 OA
HETATM   23  C21 UNL     1      24.780   8.363  45.615  1.00  0.00     0.087 C 
HETATM   24  C22 UNL     1      23.305   8.206  45.783  1.00  0.00     0.130 C 
HETATM   25  N2  UNL     1      22.804   8.834  47.031  1.00  0.00    -0.376 N 
HETATM   26  C23 UNL     1      22.801  10.265  47.092  1.00  0.00     0.157 C 
ENDROOT
BRANCH  19  27
HETATM   27  C19 UNL     1      28.707   7.388  48.403  1.00  0.00     0.153 C 
BRANCH  27  28
HETATM   28  N1  UNL     1      28.902   8.512  49.272  1.00  0.00    -0.427 N 
HETATM   29  H19 UNL     1      29.402   8.294  50.137  1.00  0.00     0.150 HD
HETATM   30  H20 UNL     1      28.135   9.169  49.359  1.00  0.00     0.150 HD
ENDBRANCH  27  28
ENDBRANCH  19  27
TORSDOF 2
ENDMDL
