MODEL 1
REMARK VINA RESULT:      -8.2      0.000      0.000
REMARK  7 active torsions:
REMARK  status: ('A' for Active; 'I' for Inactive)
REMARK    1  A    between atoms: O1_1  and  C1_2 
REMARK    2  A    between atoms: C1_2  and  C2_3 
REMARK    3  A    between atoms: C2_3  and  C3_4 
REMARK    4  A    between atoms: C3_4  and  C4_5 
REMARK    5  A    between atoms: C7_9  and  C8_10 
REMARK    6  A    between atoms: C11_14  and  N3_15 
REMARK    7  A    between atoms: N3_15  and  C12_16 
ROOT
HETATM    1  C8  UNL     1      25.441   3.815  49.895  1.00  0.00     0.088 A 
HETATM    2  C9  UNL     1      24.187   3.509  49.432  1.00  0.00     0.148 A 
HETATM    3  N2  UNL     1      23.441   2.582  50.027  1.00  0.00    -0.267 NA
HETATM    4  C10 UNL     1      23.909   1.929  51.099  1.00  0.00     0.166 A 
HETATM    5  C11 UNL     1      25.160   2.189  51.616  1.00  0.00     0.146 A 
HETATM    6  N4  UNL     1      25.851   3.134  50.963  1.00  0.00    -0.228 NA
ENDROOT
BRANCH   1   7
HETATM    7  C7  UNL     1      26.252   4.829  49.241  1.00  0.00     0.012 A 
HETATM    8  C6  UNL     1      25.745   6.050  48.862  1.00  0.00     0.130 A 
HETATM    9  N1  UNL     1      26.441   7.025  48.257  1.00  0.00    -0.272 NA
HETATM   10  C5  UNL     1      27.745   6.846  47.973  1.00  0.00     0.123 A 
HETATM   11  C4  UNL     1      28.340   5.633  48.322  1.00  0.00    -0.040 A 
HETATM   12  C18 UNL     1      27.570   4.653  48.951  1.00  0.00     0.024 A 
BRANCH  11  13
HETATM   13  C3  UNL     1      29.776   5.403  48.024  1.00  0.00     0.042 C 
BRANCH  13  14
HETATM   14  C2  UNL     1      30.633   6.539  48.569  1.00  0.00     0.030 C 
BRANCH  14  15
HETATM   15  C1  UNL     1      31.777   5.908  49.354  1.00  0.00     0.164 C 
BRANCH  15  16
HETATM   16  O1  UNL     1      31.296   5.345  50.547  1.00  0.00    -0.401 OA
HETATM   17  H1  UNL     1      30.734   4.576  50.272  1.00  0.00     0.209 HD
ENDBRANCH  15  16
ENDBRANCH  14  15
ENDBRANCH  13  14
ENDBRANCH  11  13
ENDBRANCH   1   7
BRANCH   5  18
HETATM   18  N3  UNL     1      25.614   1.473  52.752  1.00  0.00    -0.340 N 
HETATM   19  H12 UNL     1      24.873   1.233  53.478  1.00  0.00     0.167 HD
BRANCH  18  20
HETATM   20  C12 UNL     1      26.914   1.016  53.087  1.00  0.00     0.035 A 
HETATM   21  C13 UNL     1      27.886   1.868  53.568  1.00  0.00     0.029 A 
HETATM   22  C14 UNL     1      29.146   1.445  53.898  1.00  0.00     0.004 A 
HETATM   23  C15 UNL     1      29.506   0.123  53.760  1.00  0.00     0.024 A 
HETATM   24  C16 UNL     1      28.583  -0.781  53.285  1.00  0.00     0.036 A 
HETATM   25 CL1  UNL     1      29.010  -2.468  53.098  1.00  0.00    -0.084 Cl
HETATM   26  C17 UNL     1      27.334  -0.291  52.972  1.00  0.00     0.053 A 
ENDBRANCH  18  20
ENDBRANCH   5  18
TORSDOF 7
ENDMDL
MODEL 2
REMARK VINA RESULT:      -7.9      3.732      6.868
REMARK  7 active torsions:
REMARK  status: ('A' for Active; 'I' for Inactive)
REMARK    1  A    between atoms: O1_1  and  C1_2 
REMARK    2  A    between atoms: C1_2  and  C2_3 
REMARK    3  A    between atoms: C2_3  and  C3_4 
REMARK    4  A    between atoms: C3_4  and  C4_5 
REMARK    5  A    between atoms: C7_9  and  C8_10 
REMARK    6  A    between atoms: C11_14  and  N3_15 
REMARK    7  A    between atoms: N3_15  and  C12_16 
ROOT
HETATM    1  C8  UNL     1      23.339   2.344  50.741  1.00  0.00     0.088 A 
HETATM    2  C9  UNL     1      23.290   3.069  49.578  1.00  0.00     0.148 A 
HETATM    3  N2  UNL     1      24.354   3.733  49.136  1.00  0.00    -0.267 NA
HETATM    4  C10 UNL     1      25.500   3.704  49.829  1.00  0.00     0.166 A 
HETATM    5  C11 UNL     1      25.618   2.995  51.004  1.00  0.00     0.146 A 
HETATM    6  N4  UNL     1      24.505   2.352  51.385  1.00  0.00    -0.228 NA
ENDROOT
BRANCH   1   7
HETATM    7  C7  UNL     1      22.174   1.618  51.220  1.00  0.00     0.012 A 
HETATM    8  C6  UNL     1      21.119   1.290  50.400  1.00  0.00     0.130 A 
HETATM    9  N1  UNL     1      20.019   0.624  50.782  1.00  0.00    -0.272 NA
HETATM   10  C5  UNL     1      19.883   0.220  52.058  1.00  0.00     0.123 A 
HETATM   11  C4  UNL     1      20.907   0.513  52.959  1.00  0.00    -0.040 A 
HETATM   12  C18 UNL     1      22.031   1.209  52.510  1.00  0.00     0.024 A 
BRANCH  11  13
HETATM   13  C3  UNL     1      20.791   0.082  54.375  1.00  0.00     0.042 C 
BRANCH  13  14
HETATM   14  C2  UNL     1      21.272  -1.353  54.548  1.00  0.00     0.030 C 
BRANCH  14  15
HETATM   15  C1  UNL     1      22.765  -1.299  54.851  1.00  0.00     0.164 C 
BRANCH  15  16
HETATM   16  O1  UNL     1      23.039  -1.950  56.065  1.00  0.00    -0.401 OA
HETATM   17  H1  UNL     1      22.505  -2.785  56.047  1.00  0.00     0.209 HD
ENDBRANCH  15  16
ENDBRANCH  14  15
ENDBRANCH  13  14
ENDBRANCH  11  13
ENDBRANCH   1   7
BRANCH   5  18
HETATM   18  N3  UNL     1      26.851   2.993  51.704  1.00  0.00    -0.340 N 
HETATM   19  H12 UNL     1      27.415   3.894  51.655  1.00  0.00     0.167 HD
BRANCH  18  20
HETATM   20  C12 UNL     1      27.467   1.971  52.471  1.00  0.00     0.035 A 
HETATM   21  C13 UNL     1      28.388   2.254  53.457  1.00  0.00     0.029 A 
HETATM   22  C14 UNL     1      28.993   1.282  54.208  1.00  0.00     0.004 A 
HETATM   23  C15 UNL     1      28.704  -0.049  54.005  1.00  0.00     0.024 A 
HETATM   24  C16 UNL     1      27.793  -0.401  53.034  1.00  0.00     0.036 A 
HETATM   25 CL1  UNL     1      27.404  -2.084  52.752  1.00  0.00    -0.084 Cl
HETATM   26  C17 UNL     1      27.220   0.625  52.316  1.00  0.00     0.053 A 
ENDBRANCH  18  20
ENDBRANCH   5  18
TORSDOF 7
ENDMDL
MODEL 3
REMARK VINA RESULT:      -7.7      3.847      5.740
REMARK  7 active torsions:
REMARK  status: ('A' for Active; 'I' for Inactive)
REMARK    1  A    between atoms: O1_1  and  C1_2 
REMARK    2  A    between atoms: C1_2  and  C2_3 
REMARK    3  A    between atoms: C2_3  and  C3_4 
REMARK    4  A    between atoms: C3_4  and  C4_5 
REMARK    5  A    between atoms: C7_9  and  C8_10 
REMARK    6  A    between atoms: C11_14  and  N3_15 
REMARK    7  A    between atoms: N3_15  and  C12_16 
ROOT
HETATM    1  C8  UNL     1      22.257  -0.166  53.085  1.00  0.00     0.088 A 
HETATM    2  C9  UNL     1      21.397  -0.849  53.906  1.00  0.00     0.148 A 
HETATM    3  N2  UNL     1      21.833  -1.452  55.009  1.00  0.00    -0.267 NA
HETATM    4  C10 UNL     1      23.132  -1.399  55.336  1.00  0.00     0.166 A 
HETATM    5  C11 UNL     1      24.048  -0.729  54.555  1.00  0.00     0.146 A 
HETATM    6  N4  UNL     1      23.534  -0.148  53.462  1.00  0.00    -0.228 NA
ENDROOT
BRANCH   1   7
HETATM    7  C7  UNL     1      21.777   0.492  51.880  1.00  0.00     0.012 A 
HETATM    8  C6  UNL     1      20.506   0.297  51.390  1.00  0.00     0.130 A 
HETATM    9  N1  UNL     1      20.006   0.874  50.286  1.00  0.00    -0.272 NA
HETATM   10  C5  UNL     1      20.763   1.719  49.563  1.00  0.00     0.123 A 
HETATM   11  C4  UNL     1      22.067   1.972  49.990  1.00  0.00    -0.040 A 
HETATM   12  C18 UNL     1      22.539   1.347  51.145  1.00  0.00     0.024 A 
BRANCH  11  13
HETATM   13  C3  UNL     1      22.930   2.900  49.216  1.00  0.00     0.042 C 
BRANCH  13  14
HETATM   14  C2  UNL     1      24.311   3.014  49.852  1.00  0.00     0.030 C 
BRANCH  14  15
HETATM   15  C1  UNL     1      24.585   4.496  50.078  1.00  0.00     0.164 C 
BRANCH  15  16
HETATM   16  O1  UNL     1      25.905   4.685  50.519  1.00  0.00    -0.401 OA
HETATM   17  H1  UNL     1      26.450   4.780  49.697  1.00  0.00     0.209 HD
ENDBRANCH  15  16
ENDBRANCH  14  15
ENDBRANCH  13  14
ENDBRANCH  11  13
ENDBRANCH   1   7
BRANCH   5  18
HETATM   18  N3  UNL     1      25.412  -0.700  54.940  1.00  0.00    -0.340 N 
HETATM   19  H12 UNL     1      25.685  -1.351  55.737  1.00  0.00     0.167 HD
BRANCH  18  20
HETATM   20  C12 UNL     1      26.492   0.065  54.430  1.00  0.00     0.035 A 
HETATM   21  C13 UNL     1      26.359   1.403  54.125  1.00  0.00     0.029 A 
HETATM   22  C14 UNL     1      27.390   2.157  53.632  1.00  0.00     0.004 A 
HETATM   23  C15 UNL     1      28.631   1.602  53.415  1.00  0.00     0.024 A 
HETATM   24  C16 UNL     1      28.832   0.269  53.699  1.00  0.00     0.036 A 
HETATM   25 CL1  UNL     1      30.398  -0.466  53.433  1.00  0.00    -0.084 Cl
HETATM   26  C17 UNL     1      27.754  -0.432  54.191  1.00  0.00     0.053 A 
ENDBRANCH  18  20
ENDBRANCH   5  18
TORSDOF 7
ENDMDL
MODEL 4
REMARK VINA RESULT:      -7.7      1.771      2.549
REMARK  7 active torsions:
REMARK  status: ('A' for Active; 'I' for Inactive)
REMARK    1  A    between atoms: O1_1  and  C1_2 
REMARK    2  A    between atoms: C1_2  and  C2_3 
REMARK    3  A    between atoms: C2_3  and  C3_4 
REMARK    4  A    between atoms: C3_4  and  C4_5 
REMARK    5  A    between atoms: C7_9  and  C8_10 
REMARK    6  A    between atoms: C11_14  and  N3_15 
REMARK    7  A    between atoms: N3_15  and  C12_16 
ROOT
HETATM    1  C8  UNL     1      24.321   2.562  51.452  1.00  0.00     0.088 A 
HETATM    2  C9  UNL     1      23.017   2.449  51.862  1.00  0.00     0.148 A 
HETATM    3  N2  UNL     1      22.607   1.399  52.568  1.00  0.00    -0.267 NA
HETATM    4  C10 UNL     1      23.470   0.427  52.892  1.00  0.00     0.166 A 
HETATM    5  C11 UNL     1      24.794   0.479  52.512  1.00  0.00     0.146 A 
HETATM    6  N4  UNL     1      25.132   1.566  51.804  1.00  0.00    -0.228 NA
ENDROOT
BRANCH   1   7
HETATM    7  C7  UNL     1      24.765   3.711  50.680  1.00  0.00     0.012 A 
HETATM    8  C6  UNL     1      24.007   4.852  50.550  1.00  0.00     0.130 A 
HETATM    9  N1  UNL     1      24.361   5.943  49.854  1.00  0.00    -0.272 NA
HETATM   10  C5  UNL     1      25.543   5.979  49.211  1.00  0.00     0.123 A 
HETATM   11  C4  UNL     1      26.375   4.862  49.289  1.00  0.00    -0.040 A 
HETATM   12  C18 UNL     1      25.959   3.753  50.027  1.00  0.00     0.024 A 
BRANCH  11  13
HETATM   13  C3  UNL     1      27.686   4.867  48.592  1.00  0.00     0.042 C 
BRANCH  13  14
HETATM   14  C2  UNL     1      28.045   6.271  48.122  1.00  0.00     0.030 C 
BRANCH  14  15
HETATM   15  C1  UNL     1      29.566   6.375  48.126  1.00  0.00     0.164 C 
BRANCH  15  16
HETATM   16  O1  UNL     1      30.001   7.097  49.251  1.00  0.00    -0.401 OA
HETATM   17  H1  UNL     1      29.302   7.779  49.417  1.00  0.00     0.209 HD
ENDBRANCH  15  16
ENDBRANCH  14  15
ENDBRANCH  13  14
ENDBRANCH  11  13
ENDBRANCH   1   7
BRANCH   5  18
HETATM   18  N3  UNL     1      25.672  -0.572  52.877  1.00  0.00    -0.340 N 
HETATM   19  H12 UNL     1      25.241  -1.545  52.919  1.00  0.00     0.167 HD
BRANCH  18  20
HETATM   20  C12 UNL     1      27.052  -0.543  53.200  1.00  0.00     0.035 A 
HETATM   21  C13 UNL     1      27.871  -1.636  53.009  1.00  0.00     0.029 A 
HETATM   22  C14 UNL     1      29.205  -1.626  53.315  1.00  0.00     0.004 A 
HETATM   23  C15 UNL     1      29.801  -0.501  53.839  1.00  0.00     0.024 A 
HETATM   24  C16 UNL     1      29.041   0.626  54.056  1.00  0.00     0.036 A 
HETATM   25 CL1  UNL     1      29.769   2.072  54.721  1.00  0.00    -0.084 Cl
HETATM   26  C17 UNL     1      27.705   0.550  53.726  1.00  0.00     0.053 A 
ENDBRANCH  18  20
ENDBRANCH   5  18
TORSDOF 7
ENDMDL
MODEL 5
REMARK VINA RESULT:      -7.6      3.712      7.316
REMARK  7 active torsions:
REMARK  status: ('A' for Active; 'I' for Inactive)
REMARK    1  A    between atoms: O1_1  and  C1_2 
REMARK    2  A    between atoms: C1_2  and  C2_3 
REMARK    3  A    between atoms: C2_3  and  C3_4 
REMARK    4  A    between atoms: C3_4  and  C4_5 
REMARK    5  A    between atoms: C7_9  and  C8_10 
REMARK    6  A    between atoms: C11_14  and  N3_15 
REMARK    7  A    between atoms: N3_15  and  C12_16 
ROOT
HETATM    1  C8  UNL     1      24.202   3.533  51.762  1.00  0.00     0.088 A 
HETATM    2  C9  UNL     1      23.343   4.378  52.417  1.00  0.00     0.148 A 
HETATM    3  N2  UNL     1      23.101   5.603  51.960  1.00  0.00    -0.267 NA
HETATM    4  C10 UNL     1      23.699   6.034  50.841  1.00  0.00     0.166 A 
HETATM    5  C11 UNL     1      24.572   5.236  50.134  1.00  0.00     0.146 A 
HETATM    6  N4  UNL     1      24.765   4.017  50.656  1.00  0.00    -0.228 NA
ENDROOT
BRANCH   1   7
HETATM    7  C7  UNL     1      24.463   2.194  52.265  1.00  0.00     0.012 A 
HETATM    8  C6  UNL     1      23.486   1.420  52.847  1.00  0.00     0.130 A 
HETATM    9  N1  UNL     1      23.665   0.180  53.329  1.00  0.00    -0.272 NA
HETATM   10  C5  UNL     1      24.877  -0.401  53.264  1.00  0.00     0.123 A 
HETATM   11  C4  UNL     1      25.927   0.316  52.690  1.00  0.00    -0.040 A 
HETATM   12  C18 UNL     1      25.687   1.602  52.203  1.00  0.00     0.024 A 
BRANCH  11  13
HETATM   13  C3  UNL     1      27.277  -0.294  52.602  1.00  0.00     0.042 C 
BRANCH  13  14
HETATM   14  C2  UNL     1      27.200  -1.808  52.755  1.00  0.00     0.030 C 
BRANCH  14  15
HETATM   15  C1  UNL     1      28.619  -2.314  52.989  1.00  0.00     0.164 C 
BRANCH  15  16
HETATM   16  O1  UNL     1      28.594  -3.652  53.416  1.00  0.00    -0.401 OA
HETATM   17  H1  UNL     1      28.655  -3.618  54.404  1.00  0.00     0.209 HD
ENDBRANCH  15  16
ENDBRANCH  14  15
ENDBRANCH  13  14
ENDBRANCH  11  13
ENDBRANCH   1   7
BRANCH   5  18
HETATM   18  N3  UNL     1      25.183   5.734  48.955  1.00  0.00    -0.340 N 
HETATM   19  H12 UNL     1      24.530   5.912  48.133  1.00  0.00     0.167 HD
BRANCH  18  20
HETATM   20  C12 UNL     1      26.541   6.038  48.685  1.00  0.00     0.035 A 
HETATM   21  C13 UNL     1      27.504   5.056  48.592  1.00  0.00     0.029 A 
HETATM   22  C14 UNL     1      28.820   5.330  48.331  1.00  0.00     0.004 A 
HETATM   23  C15 UNL     1      29.249   6.626  48.148  1.00  0.00     0.024 A 
HETATM   24  C16 UNL     1      28.338   7.655  48.228  1.00  0.00     0.036 A 
HETATM   25 CL1  UNL     1      28.851   9.313  48.001  1.00  0.00    -0.084 Cl
HETATM   26  C17 UNL     1      27.030   7.311  48.493  1.00  0.00     0.053 A 
ENDBRANCH  18  20
ENDBRANCH   5  18
TORSDOF 7
ENDMDL
MODEL 6
REMARK VINA RESULT:      -7.6      4.769      8.218
REMARK  7 active torsions:
REMARK  status: ('A' for Active; 'I' for Inactive)
REMARK    1  A    between atoms: O1_1  and  C1_2 
REMARK    2  A    between atoms: C1_2  and  C2_3 
REMARK    3  A    between atoms: C2_3  and  C3_4 
REMARK    4  A    between atoms: C3_4  and  C4_5 
REMARK    5  A    between atoms: C7_9  and  C8_10 
REMARK    6  A    between atoms: C11_14  and  N3_15 
REMARK    7  A    between atoms: N3_15  and  C12_16 
ROOT
HETATM    1  C8  UNL     1      23.141   1.173  52.264  1.00  0.00     0.088 A 
HETATM    2  C9  UNL     1      22.547   1.878  51.248  1.00  0.00     0.148 A 
HETATM    3  N2  UNL     1      23.238   2.754  50.523  1.00  0.00    -0.267 NA
HETATM    4  C10 UNL     1      24.537   2.963  50.778  1.00  0.00     0.166 A 
HETATM    5  C11 UNL     1      25.195   2.287  51.783  1.00  0.00     0.146 A 
HETATM    6  N4  UNL     1      24.433   1.422  52.468  1.00  0.00    -0.228 NA
ENDROOT
BRANCH   1   7
HETATM    7  C7  UNL     1      22.383   0.217  53.053  1.00  0.00     0.012 A 
HETATM    8  C6  UNL     1      22.963  -0.560  54.029  1.00  0.00     0.130 A 
HETATM    9  N1  UNL     1      22.318  -1.459  54.789  1.00  0.00    -0.272 NA
HETATM   10  C5  UNL     1      20.997  -1.656  54.627  1.00  0.00     0.123 A 
HETATM   11  C4  UNL     1      20.329  -0.909  53.656  1.00  0.00    -0.040 A 
HETATM   12  C18 UNL     1      21.047   0.012  52.892  1.00  0.00     0.024 A 
BRANCH  11  13
HETATM   13  C3  UNL     1      18.871  -1.101  53.450  1.00  0.00     0.042 C 
BRANCH  13  14
HETATM   14  C2  UNL     1      18.394  -0.349  52.213  1.00  0.00     0.030 C 
BRANCH  14  15
HETATM   15  C1  UNL     1      16.897  -0.602  52.078  1.00  0.00     0.164 C 
BRANCH  15  16
HETATM   16  O1  UNL     1      16.305  -0.708  53.348  1.00  0.00    -0.401 OA
HETATM   17  H1  UNL     1      16.513  -1.624  53.664  1.00  0.00     0.209 HD
ENDBRANCH  15  16
ENDBRANCH  14  15
ENDBRANCH  13  14
ENDBRANCH  11  13
ENDBRANCH   1   7
BRANCH   5  18
HETATM   18  N3  UNL     1      26.570   2.540  52.017  1.00  0.00    -0.340 N 
HETATM   19  H12 UNL     1      26.960   3.430  51.581  1.00  0.00     0.167 HD
BRANCH  18  20
HETATM   20  C12 UNL     1      27.528   1.791  52.746  1.00  0.00     0.035 A 
HETATM   21  C13 UNL     1      28.407   2.388  53.624  1.00  0.00     0.029 A 
HETATM   22  C14 UNL     1      29.338   1.682  54.337  1.00  0.00     0.004 A 
HETATM   23  C15 UNL     1      29.441   0.315  54.205  1.00  0.00     0.024 A 
HETATM   24  C16 UNL     1      28.592  -0.345  53.344  1.00  0.00     0.036 A 
HETATM   25 CL1  UNL     1      28.698  -2.082  53.154  1.00  0.00    -0.084 Cl
HETATM   26  C17 UNL     1      27.679   0.425  52.657  1.00  0.00     0.053 A 
ENDBRANCH  18  20
ENDBRANCH   5  18
TORSDOF 7
ENDMDL
MODEL 7
REMARK VINA RESULT:      -7.6      3.497      4.456
REMARK  7 active torsions:
REMARK  status: ('A' for Active; 'I' for Inactive)
REMARK    1  A    between atoms: O1_1  and  C1_2 
REMARK    2  A    between atoms: C1_2  and  C2_3 
REMARK    3  A    between atoms: C2_3  and  C3_4 
REMARK    4  A    between atoms: C3_4  and  C4_5 
REMARK    5  A    between atoms: C7_9  and  C8_10 
REMARK    6  A    between atoms: C11_14  and  N3_15 
REMARK    7  A    between atoms: N3_15  and  C12_16 
ROOT
HETATM    1  C8  UNL     1      24.639   4.476  50.397  1.00  0.00     0.088 A 
HETATM    2  C9  UNL     1      23.811   5.338  51.069  1.00  0.00     0.148 A 
HETATM    3  N2  UNL     1      22.763   4.891  51.754  1.00  0.00    -0.267 NA
HETATM    4  C10 UNL     1      22.498   3.579  51.799  1.00  0.00     0.166 A 
HETATM    5  C11 UNL     1      23.290   2.658  51.147  1.00  0.00     0.146 A 
HETATM    6  N4  UNL     1      24.326   3.184  50.479  1.00  0.00    -0.228 NA
ENDROOT
BRANCH   1   7
HETATM    7  C7  UNL     1      25.784   4.969  49.649  1.00  0.00     0.012 A 
HETATM    8  C6  UNL     1      26.878   4.182  49.369  1.00  0.00     0.130 A 
HETATM    9  N1  UNL     1      27.962   4.579  48.684  1.00  0.00    -0.272 NA
HETATM   10  C5  UNL     1      28.039   5.836  48.211  1.00  0.00     0.123 A 
HETATM   11  C4  UNL     1      26.972   6.702  48.451  1.00  0.00    -0.040 A 
HETATM   12  C18 UNL     1      25.868   6.240  49.169  1.00  0.00     0.024 A 
BRANCH  11  13
HETATM   13  C3  UNL     1      27.024   8.096  47.944  1.00  0.00     0.042 C 
BRANCH  13  14
HETATM   14  C2  UNL     1      26.694   9.090  49.051  1.00  0.00     0.030 C 
BRANCH  14  15
HETATM   15  C1  UNL     1      27.965   9.299  49.866  1.00  0.00     0.164 C 
BRANCH  15  16
HETATM   16  O1  UNL     1      27.645   9.542  51.212  1.00  0.00    -0.401 OA
HETATM   17  H1  UNL     1      27.628   8.652  51.648  1.00  0.00     0.209 HD
ENDBRANCH  15  16
ENDBRANCH  14  15
ENDBRANCH  13  14
ENDBRANCH  11  13
ENDBRANCH   1   7
BRANCH   5  18
HETATM   18  N3  UNL     1      22.972   1.279  51.222  1.00  0.00    -0.340 N 
HETATM   19  H12 UNL     1      23.229   0.696  50.368  1.00  0.00     0.167 HD
BRANCH  18  20
HETATM   20  C12 UNL     1      22.359   0.534  52.261  1.00  0.00     0.035 A 
HETATM   21  C13 UNL     1      20.998   0.317  52.298  1.00  0.00     0.029 A 
HETATM   22  C14 UNL     1      20.388  -0.399  53.292  1.00  0.00     0.004 A 
HETATM   23  C15 UNL     1      21.121  -0.945  54.322  1.00  0.00     0.024 A 
HETATM   24  C16 UNL     1      22.486  -0.765  54.346  1.00  0.00     0.036 A 
HETATM   25 CL1  UNL     1      23.447  -1.446  55.641  1.00  0.00    -0.084 Cl
HETATM   26  C17 UNL     1      23.037  -0.035  53.316  1.00  0.00     0.053 A 
ENDBRANCH  18  20
ENDBRANCH   5  18
TORSDOF 7
ENDMDL
MODEL 8
REMARK VINA RESULT:      -7.6      4.314      8.417
REMARK  7 active torsions:
REMARK  status: ('A' for Active; 'I' for Inactive)
REMARK    1  A    between atoms: O1_1  and  C1_2 
REMARK    2  A    between atoms: C1_2  and  C2_3 
REMARK    3  A    between atoms: C2_3  and  C3_4 
REMARK    4  A    between atoms: C3_4  and  C4_5 
REMARK    5  A    between atoms: C7_9  and  C8_10 
REMARK    6  A    between atoms: C11_14  and  N3_15 
REMARK    7  A    between atoms: N3_15  and  C12_16 
ROOT
HETATM    1  C8  UNL     1      24.805   0.159  53.448  1.00  0.00     0.088 A 
HETATM    2  C9  UNL     1      25.843  -0.036  54.323  1.00  0.00     0.148 A 
HETATM    3  N2  UNL     1      27.066   0.409  54.048  1.00  0.00    -0.267 NA
HETATM    4  C10 UNL     1      27.304   1.060  52.902  1.00  0.00     0.166 A 
HETATM    5  C11 UNL     1      26.306   1.290  51.980  1.00  0.00     0.146 A 
HETATM    6  N4  UNL     1      25.101   0.813  52.327  1.00  0.00    -0.228 NA
ENDROOT
BRANCH   1   7
HETATM    7  C7  UNL     1      23.469  -0.328  53.752  1.00  0.00     0.012 A 
HETATM    8  C6  UNL     1      23.213  -1.169  54.811  1.00  0.00     0.130 A 
HETATM    9  N1  UNL     1      22.005  -1.651  55.142  1.00  0.00    -0.272 NA
HETATM   10  C5  UNL     1      20.923  -1.319  54.415  1.00  0.00     0.123 A 
HETATM   11  C4  UNL     1      21.093  -0.471  53.320  1.00  0.00    -0.040 A 
HETATM   12  C18 UNL     1      22.371   0.003  53.019  1.00  0.00     0.024 A 
BRANCH  11  13
HETATM   13  C3  UNL     1      19.921  -0.084  52.496  1.00  0.00     0.042 C 
BRANCH  13  14
HETATM   14  C2  UNL     1      20.302   0.986  51.479  1.00  0.00     0.030 C 
BRANCH  14  15
HETATM   15  C1  UNL     1      19.502   2.239  51.818  1.00  0.00     0.164 C 
BRANCH  15  16
HETATM   16  O1  UNL     1      20.117   2.938  52.870  1.00  0.00    -0.401 OA
HETATM   17  H1  UNL     1      20.274   2.266  53.582  1.00  0.00     0.209 HD
ENDBRANCH  15  16
ENDBRANCH  14  15
ENDBRANCH  13  14
ENDBRANCH  11  13
ENDBRANCH   1   7
BRANCH   5  18
HETATM   18  N3  UNL     1      26.602   1.984  50.780  1.00  0.00    -0.340 N 
HETATM   19  H12 UNL     1      27.226   1.468  50.087  1.00  0.00     0.167 HD
BRANCH  18  20
HETATM   20  C12 UNL     1      26.201   3.271  50.342  1.00  0.00     0.035 A 
HETATM   21  C13 UNL     1      26.891   3.959  49.367  1.00  0.00     0.029 A 
HETATM   22  C14 UNL     1      26.518   5.202  48.931  1.00  0.00     0.004 A 
HETATM   23  C15 UNL     1      25.414   5.834  49.458  1.00  0.00     0.024 A 
HETATM   24  C16 UNL     1      24.679   5.202  50.436  1.00  0.00     0.036 A 
HETATM   25 CL1  UNL     1      23.271   5.978  51.127  1.00  0.00    -0.084 Cl
HETATM   26  C17 UNL     1      25.108   3.953  50.829  1.00  0.00     0.053 A 
ENDBRANCH  18  20
ENDBRANCH   5  18
TORSDOF 7
ENDMDL
MODEL 9
REMARK VINA RESULT:      -7.5      3.621      7.179
REMARK  7 active torsions:
REMARK  status: ('A' for Active; 'I' for Inactive)
REMARK    1  A    between atoms: O1_1  and  C1_2 
REMARK    2  A    between atoms: C1_2  and  C2_3 
REMARK    3  A    between atoms: C2_3  and  C3_4 
REMARK    4  A    between atoms: C3_4  and  C4_5 
REMARK    5  A    between atoms: C7_9  and  C8_10 
REMARK    6  A    between atoms: C11_14  and  N3_15 
REMARK    7  A    between atoms: N3_15  and  C12_16 
ROOT
HETATM    1  C8  UNL     1      23.043   3.443  52.197  1.00  0.00     0.088 A 
HETATM    2  C9  UNL     1      21.729   3.731  51.928  1.00  0.00     0.148 A 
HETATM    3  N2  UNL     1      21.364   4.934  51.493  1.00  0.00    -0.267 NA
HETATM    4  C10 UNL     1      22.285   5.891  51.309  1.00  0.00     0.166 A 
HETATM    5  C11 UNL     1      23.621   5.667  51.559  1.00  0.00     0.146 A 
HETATM    6  N4  UNL     1      23.911   4.432  51.994  1.00  0.00    -0.228 NA
ENDROOT
BRANCH   1   7
HETATM    7  C7  UNL     1      23.437   2.126  52.672  1.00  0.00     0.012 A 
HETATM    8  C6  UNL     1      22.546   1.084  52.784  1.00  0.00     0.130 A 
HETATM    9  N1  UNL     1      22.848  -0.150  53.215  1.00  0.00    -0.272 NA
HETATM   10  C5  UNL     1      24.109  -0.448  53.581  1.00  0.00     0.123 A 
HETATM   11  C4  UNL     1      25.077   0.553  53.500  1.00  0.00    -0.040 A 
HETATM   12  C18 UNL     1      24.710   1.820  53.045  1.00  0.00     0.024 A 
BRANCH  11  13
HETATM   13  C3  UNL     1      26.477   0.260  53.895  1.00  0.00     0.042 C 
BRANCH  13  14
HETATM   14  C2  UNL     1      27.459   0.831  52.880  1.00  0.00     0.030 C 
BRANCH  14  15
HETATM   15  C1  UNL     1      28.518   1.605  53.657  1.00  0.00     0.164 C 
BRANCH  15  16
HETATM   16  O1  UNL     1      27.998   2.835  54.094  1.00  0.00    -0.401 OA
HETATM   17  H1  UNL     1      28.634   3.166  54.778  1.00  0.00     0.209 HD
ENDBRANCH  15  16
ENDBRANCH  14  15
ENDBRANCH  13  14
ENDBRANCH  11  13
ENDBRANCH   1   7
BRANCH   5  18
HETATM   18  N3  UNL     1      24.560   6.708  51.350  1.00  0.00    -0.340 N 
HETATM   19  H12 UNL     1      24.525   7.512  52.047  1.00  0.00     0.167 HD
BRANCH  18  20
HETATM   20  C12 UNL     1      25.554   6.858  50.350  1.00  0.00     0.035 A 
HETATM   21  C13 UNL     1      25.890   5.832  49.493  1.00  0.00     0.029 A 
HETATM   22  C14 UNL     1      26.846   5.959  48.522  1.00  0.00     0.004 A 
HETATM   23  C15 UNL     1      27.530   7.142  48.354  1.00  0.00     0.024 A 
HETATM   24  C16 UNL     1      27.245   8.208  49.178  1.00  0.00     0.036 A 
HETATM   25 CL1  UNL     1      28.098   9.725  48.991  1.00  0.00    -0.084 Cl
HETATM   26  C17 UNL     1      26.272   8.014  50.134  1.00  0.00     0.053 A 
ENDBRANCH  18  20
ENDBRANCH   5  18
TORSDOF 7
ENDMDL
