MODEL 1
REMARK VINA RESULT:      -9.2      0.000      0.000
REMARK  6 active torsions:
REMARK  status: ('A' for Active; 'I' for Inactive)
REMARK    1  A    between atoms: O1_2  and  C2_3 
REMARK    2  A    between atoms: C6_9  and  N3_10 
REMARK    3  A    between atoms: N3_10  and  C7_11 
REMARK    4  A    between atoms: C14_20  and  C15_21 
REMARK    5  A    between atoms: C15_21  and  N4_22 
REMARK    6  A    between atoms: C18_25  and  C19_26 
REMARK       I    between atoms: C19_26  and  N5_27 
ROOT
HETATM    1  C2  UNL     1      22.325   0.136  53.409  1.00  0.00     0.079 A 
HETATM    2  C3  UNL     1      21.073   0.536  53.511  1.00  0.00     0.069 A 
HETATM    3  C4  UNL     1      21.070   1.822  52.837  1.00  0.00     0.071 A 
HETATM    4  N1  UNL     1      20.153   2.719  52.594  1.00  0.00    -0.242 NA
HETATM    5  C5  UNL     1      20.478   3.917  51.885  1.00  0.00     0.230 A 
HETATM    6  N2  UNL     1      21.658   4.161  51.463  1.00  0.00    -0.252 NA
HETATM    7  C6  UNL     1      22.791   3.307  51.629  1.00  0.00     0.244 A 
HETATM    8  C13 UNL     1      22.424   2.074  52.368  1.00  0.00     0.025 A 
HETATM    9  C14 UNL     1      23.218   1.041  52.712  1.00  0.00     0.016 A 
ENDROOT
BRANCH   9  10
HETATM   10  C15 UNL     1      24.658   0.994  52.418  1.00  0.00     0.314 C 
BRANCH  10  11
HETATM   11  N4  UNL     1      25.494   0.526  53.477  1.00  0.00     0.093 N 
HETATM   12  C16 UNL     1      26.114  -0.717  53.020  1.00  0.00     0.273 C 
HETATM   13  C17 UNL     1      27.542  -0.722  53.434  1.00  0.00     0.046 C 
HETATM   14  C18 UNL     1      27.696   0.488  54.322  1.00  0.00     0.107 C 
HETATM   15  C20 UNL     1      26.562   1.396  53.832  1.00  0.00     0.286 C 
BRANCH  14  16
HETATM   16  C19 UNL     1      28.983   1.163  54.155  1.00  0.00     0.221 C 
HETATM   17  N5  UNL     1      30.141   0.735  53.482  1.00  0.00    -0.370 N 
HETATM   18  H18 UNL     1      30.907   0.033  53.642  1.00  0.00     0.159 HD
HETATM   19  H19 UNL     1      30.538   1.062  52.564  1.00  0.00     0.159 HD
HETATM   20  O2  UNL     1      29.189   2.302  54.650  1.00  0.00    -0.273 OA
ENDBRANCH  14  16
ENDBRANCH  10  11
ENDBRANCH   9  10
BRANCH   1  21
HETATM   21  O1  UNL     1      22.653  -1.078  53.968  1.00  0.00    -0.355 OA
HETATM   22  C1  UNL     1      22.902  -1.333  55.327  1.00  0.00     0.210 C 
ENDBRANCH   1  21
BRANCH   7  23
HETATM   23  N3  UNL     1      23.347   2.943  50.312  1.00  0.00    -0.363 N 
HETATM   24  H7  UNL     1      22.971   2.171  49.720  1.00  0.00     0.162 HD
BRANCH  23  25
HETATM   25  C7  UNL     1      24.459   3.687  49.827  1.00  0.00     0.031 A 
HETATM   26  C8  UNL     1      25.741   3.179  49.871  1.00  0.00     0.032 A 
HETATM   27  C9  UNL     1      26.842   3.874  49.406  1.00  0.00     0.046 A 
HETATM   28  C10 UNL     1      26.608   5.127  48.881  1.00  0.00     0.138 A 
HETATM   29  F1  UNL     1      27.632   5.883  48.399  1.00  0.00    -0.204 F 
HETATM   30  C11 UNL     1      25.346   5.718  48.796  1.00  0.00     0.074 A 
HETATM   31 CL1  UNL     1      25.088   7.315  48.123  1.00  0.00    -0.081 Cl
HETATM   32  C12 UNL     1      24.307   4.938  49.291  1.00  0.00     0.056 A 
ENDBRANCH  23  25
ENDBRANCH   7  23
TORSDOF 6
ENDMDL
MODEL 2
REMARK VINA RESULT:      -8.8      2.047      2.525
REMARK  6 active torsions:
REMARK  status: ('A' for Active; 'I' for Inactive)
REMARK    1  A    between atoms: O1_2  and  C2_3 
REMARK    2  A    between atoms: C6_9  and  N3_10 
REMARK    3  A    between atoms: N3_10  and  C7_11 
REMARK    4  A    between atoms: C14_20  and  C15_21 
REMARK    5  A    between atoms: C15_21  and  N4_22 
REMARK    6  A    between atoms: C18_25  and  C19_26 
REMARK       I    between atoms: C19_26  and  N5_27 
ROOT
HETATM    1  C2  UNL     1      23.904   0.087  53.497  1.00  0.00     0.079 A 
HETATM    2  C3  UNL     1      22.803  -0.347  52.917  1.00  0.00     0.069 A 
HETATM    3  C4  UNL     1      22.579   0.610  51.849  1.00  0.00     0.071 A 
HETATM    4  N1  UNL     1      21.669   0.742  50.923  1.00  0.00    -0.242 NA
HETATM    5  C5  UNL     1      21.731   1.825  49.992  1.00  0.00     0.230 A 
HETATM    6  N2  UNL     1      22.662   2.698  50.022  1.00  0.00    -0.252 NA
HETATM    7  C6  UNL     1      23.743   2.725  50.955  1.00  0.00     0.244 A 
HETATM    8  C13 UNL     1      23.651   1.591  51.907  1.00  0.00     0.025 A 
HETATM    9  C14 UNL     1      24.485   1.285  52.922  1.00  0.00     0.016 A 
ENDROOT
BRANCH   9  10
HETATM   10  C15 UNL     1      25.659   2.097  53.279  1.00  0.00     0.314 C 
BRANCH  10  11
HETATM   11  N4  UNL     1      26.925   1.453  53.138  1.00  0.00     0.093 N 
HETATM   12  C16 UNL     1      27.397   1.131  54.483  1.00  0.00     0.273 C 
HETATM   13  C17 UNL     1      27.994  -0.230  54.470  1.00  0.00     0.046 C 
HETATM   14  C18 UNL     1      28.027  -0.628  53.015  1.00  0.00     0.107 C 
HETATM   15  C20 UNL     1      26.901   0.225  52.420  1.00  0.00     0.286 C 
BRANCH  14  16
HETATM   16  C19 UNL     1      27.743  -2.048  52.802  1.00  0.00     0.221 C 
HETATM   17  N5  UNL     1      28.485  -3.179  53.184  1.00  0.00    -0.370 N 
HETATM   18  H18 UNL     1      29.372  -3.654  52.880  1.00  0.00     0.159 HD
HETATM   19  H19 UNL     1      28.291  -3.878  53.946  1.00  0.00     0.159 HD
HETATM   20  O2  UNL     1      26.703  -2.419  52.197  1.00  0.00    -0.273 OA
ENDBRANCH  14  16
ENDBRANCH  10  11
ENDBRANCH   9  10
BRANCH   1  21
HETATM   21  O1  UNL     1      24.382  -0.626  54.572  1.00  0.00    -0.355 OA
HETATM   22  C1  UNL     1      23.616  -1.350  55.502  1.00  0.00     0.210 C 
ENDBRANCH   1  21
BRANCH   7  23
HETATM   23  N3  UNL     1      25.031   2.662  50.239  1.00  0.00    -0.363 N 
HETATM   24  H7  UNL     1      25.586   1.787  50.124  1.00  0.00     0.162 HD
BRANCH  23  25
HETATM   25  C7  UNL     1      25.541   3.864  49.674  1.00  0.00     0.031 A 
HETATM   26  C8  UNL     1      24.749   4.984  49.524  1.00  0.00     0.032 A 
HETATM   27  C9  UNL     1      25.214   6.168  48.983  1.00  0.00     0.046 A 
HETATM   28  C10 UNL     1      26.534   6.193  48.587  1.00  0.00     0.138 A 
HETATM   29  F1  UNL     1      27.079   7.316  48.043  1.00  0.00    -0.204 F 
HETATM   30  C11 UNL     1      27.407   5.109  48.701  1.00  0.00     0.074 A 
HETATM   31 CL1  UNL     1      29.080   5.177  48.186  1.00  0.00    -0.081 Cl
HETATM   32  C12 UNL     1      26.842   3.966  49.258  1.00  0.00     0.056 A 
ENDBRANCH  23  25
ENDBRANCH   7  23
TORSDOF 6
ENDMDL
MODEL 3
REMARK VINA RESULT:      -8.7      3.397      5.874
REMARK  6 active torsions:
REMARK  status: ('A' for Active; 'I' for Inactive)
REMARK    1  A    between atoms: O1_2  and  C2_3 
REMARK    2  A    between atoms: C6_9  and  N3_10 
REMARK    3  A    between atoms: N3_10  and  C7_11 
REMARK    4  A    between atoms: C14_20  and  C15_21 
REMARK    5  A    between atoms: C15_21  and  N4_22 
REMARK    6  A    between atoms: C18_25  and  C19_26 
REMARK       I    between atoms: C19_26  and  N5_27 
ROOT
HETATM    1  C2  UNL     1      20.882   1.060  52.334  1.00  0.00     0.079 A 
HETATM    2  C3  UNL     1      20.401   0.434  53.390  1.00  0.00     0.069 A 
HETATM    3  C4  UNL     1      21.575  -0.166  53.995  1.00  0.00     0.071 A 
HETATM    4  N1  UNL     1      21.776  -0.905  55.052  1.00  0.00    -0.242 NA
HETATM    5  C5  UNL     1      23.093  -1.349  55.390  1.00  0.00     0.230 A 
HETATM    6  N2  UNL     1      24.115  -1.047  54.687  1.00  0.00    -0.252 NA
HETATM    7  C6  UNL     1      24.100  -0.252  53.501  1.00  0.00     0.244 A 
HETATM    8  C13 UNL     1      22.722   0.192  53.176  1.00  0.00     0.025 A 
HETATM    9  C14 UNL     1      22.314   0.952  52.140  1.00  0.00     0.016 A 
ENDROOT
BRANCH   9  10
HETATM   10  C15 UNL     1      23.222   1.457  51.099  1.00  0.00     0.314 C 
BRANCH  10  11
HETATM   11  N4  UNL     1      23.067   2.833  50.752  1.00  0.00     0.093 N 
HETATM   12  C16 UNL     1      23.184   3.605  51.988  1.00  0.00     0.273 C 
HETATM   13  C17 UNL     1      24.001   4.817  51.721  1.00  0.00     0.046 C 
HETATM   14  C18 UNL     1      24.207   4.829  50.226  1.00  0.00     0.107 C 
HETATM   15  C20 UNL     1      24.055   3.347  49.867  1.00  0.00     0.286 C 
BRANCH  14  16
HETATM   16  C19 UNL     1      25.534   5.304  49.833  1.00  0.00     0.221 C 
HETATM   17  N5  UNL     1      26.186   6.509  50.147  1.00  0.00    -0.370 N 
HETATM   18  H18 UNL     1      26.108   7.520  49.867  1.00  0.00     0.159 HD
HETATM   19  H19 UNL     1      26.987   6.682  50.807  1.00  0.00     0.159 HD
HETATM   20  O2  UNL     1      26.286   4.604  49.105  1.00  0.00    -0.273 OA
ENDBRANCH  14  16
ENDBRANCH  10  11
ENDBRANCH   9  10
BRANCH   1  21
HETATM   21  O1  UNL     1      19.990   1.738  51.535  1.00  0.00    -0.355 OA
HETATM   22  C1  UNL     1      19.436   3.005  51.790  1.00  0.00     0.210 C 
ENDBRANCH   1  21
BRANCH   7  23
HETATM   23  N3  UNL     1      24.969   0.927  53.673  1.00  0.00    -0.363 N 
HETATM   24  H7  UNL     1      24.608   1.893  53.825  1.00  0.00     0.162 HD
BRANCH  23  25
HETATM   25  C7  UNL     1      26.378   0.732  53.626  1.00  0.00     0.031 A 
HETATM   26  C8  UNL     1      27.257   1.781  53.801  1.00  0.00     0.032 A 
HETATM   27  C9  UNL     1      28.630   1.626  53.764  1.00  0.00     0.046 A 
HETATM   28  C10 UNL     1      29.105   0.351  53.541  1.00  0.00     0.138 A 
HETATM   29  F1  UNL     1      30.443   0.103  53.489  1.00  0.00    -0.204 F 
HETATM   30  C11 UNL     1      28.289  -0.767  53.353  1.00  0.00     0.074 A 
HETATM   31 CL1  UNL     1      28.930  -2.373  53.071  1.00  0.00    -0.081 Cl
HETATM   32  C12 UNL     1      26.925  -0.504  53.408  1.00  0.00     0.056 A 
ENDBRANCH  23  25
ENDBRANCH   7  23
TORSDOF 6
ENDMDL
MODEL 4
REMARK VINA RESULT:      -8.6      1.166      1.450
REMARK  6 active torsions:
REMARK  status: ('A' for Active; 'I' for Inactive)
REMARK    1  A    between atoms: O1_2  and  C2_3 
REMARK    2  A    between atoms: C6_9  and  N3_10 
REMARK    3  A    between atoms: N3_10  and  C7_11 
REMARK    4  A    between atoms: C14_20  and  C15_21 
REMARK    5  A    between atoms: C15_21  and  N4_22 
REMARK    6  A    between atoms: C18_25  and  C19_26 
REMARK       I    between atoms: C19_26  and  N5_27 
ROOT
HETATM    1  C2  UNL     1      22.307   0.225  53.190  1.00  0.00     0.079 A 
HETATM    2  C3  UNL     1      21.010   0.457  53.202  1.00  0.00     0.069 A 
HETATM    3  C4  UNL     1      20.900   1.806  52.680  1.00  0.00     0.071 A 
HETATM    4  N1  UNL     1      19.899   2.610  52.443  1.00  0.00    -0.242 NA
HETATM    5  C5  UNL     1      20.127   3.918  51.910  1.00  0.00     0.230 A 
HETATM    6  N2  UNL     1      21.298   4.351  51.645  1.00  0.00    -0.252 NA
HETATM    7  C6  UNL     1      22.514   3.625  51.834  1.00  0.00     0.244 A 
HETATM    8  C13 UNL     1      22.245   2.275  52.389  1.00  0.00     0.025 A 
HETATM    9  C14 UNL     1      23.134   1.310  52.697  1.00  0.00     0.016 A 
ENDROOT
BRANCH   9  10
HETATM   10  C15 UNL     1      24.589   1.472  52.554  1.00  0.00     0.314 C 
BRANCH  10  11
HETATM   11  N4  UNL     1      25.389   0.761  53.498  1.00  0.00     0.093 N 
HETATM   12  C16 UNL     1      25.864  -0.452  52.834  1.00  0.00     0.273 C 
HETATM   13  C17 UNL     1      27.290  -0.669  53.191  1.00  0.00     0.046 C 
HETATM   14  C18 UNL     1      27.590   0.366  54.249  1.00  0.00     0.107 C 
HETATM   15  C20 UNL     1      26.551   1.450  53.944  1.00  0.00     0.286 C 
BRANCH  14  16
HETATM   16  C19 UNL     1      28.939   0.922  54.142  1.00  0.00     0.221 C 
HETATM   17  N5  UNL     1      29.450   2.138  54.628  1.00  0.00    -0.370 N 
HETATM   18  H18 UNL     1      29.372   3.157  54.383  1.00  0.00     0.159 HD
HETATM   19  H19 UNL     1      30.099   2.312  55.439  1.00  0.00     0.159 HD
HETATM   20  O2  UNL     1      29.854   0.297  53.544  1.00  0.00    -0.273 OA
ENDBRANCH  14  16
ENDBRANCH  10  11
ENDBRANCH   9  10
BRANCH   1  21
HETATM   21  O1  UNL     1      22.740  -1.001  53.641  1.00  0.00    -0.355 OA
HETATM   22  C1  UNL     1      22.774  -1.436  54.977  1.00  0.00     0.210 C 
ENDBRANCH   1  21
BRANCH   7  23
HETATM   23  N3  UNL     1      23.230   3.496  50.552  1.00  0.00    -0.363 N 
HETATM   24  H7  UNL     1      23.082   2.709  49.884  1.00  0.00     0.162 HD
BRANCH  23  25
HETATM   25  C7  UNL     1      24.175   4.504  50.210  1.00  0.00     0.031 A 
HETATM   26  C8  UNL     1      23.925   5.839  50.452  1.00  0.00     0.032 A 
HETATM   27  C9  UNL     1      24.822   6.842  50.134  1.00  0.00     0.046 A 
HETATM   28  C10 UNL     1      26.008   6.452  49.551  1.00  0.00     0.138 A 
HETATM   29  F1  UNL     1      26.952   7.370  49.205  1.00  0.00    -0.204 F 
HETATM   30  C11 UNL     1      26.345   5.125  49.270  1.00  0.00     0.074 A 
HETATM   31 CL1  UNL     1      27.863   4.667  48.527  1.00  0.00    -0.081 Cl
HETATM   32  C12 UNL     1      25.375   4.195  49.628  1.00  0.00     0.056 A 
ENDBRANCH  23  25
ENDBRANCH   7  23
TORSDOF 6
ENDMDL
MODEL 5
REMARK VINA RESULT:      -8.5      3.241      5.773
REMARK  6 active torsions:
REMARK  status: ('A' for Active; 'I' for Inactive)
REMARK    1  A    between atoms: O1_2  and  C2_3 
REMARK    2  A    between atoms: C6_9  and  N3_10 
REMARK    3  A    between atoms: N3_10  and  C7_11 
REMARK    4  A    between atoms: C14_20  and  C15_21 
REMARK    5  A    between atoms: C15_21  and  N4_22 
REMARK    6  A    between atoms: C18_25  and  C19_26 
REMARK       I    between atoms: C19_26  and  N5_27 
ROOT
HETATM    1  C2  UNL     1      21.314   2.896  52.378  1.00  0.00     0.079 A 
HETATM    2  C3  UNL     1      20.351   2.064  52.725  1.00  0.00     0.069 A 
HETATM    3  C4  UNL     1      21.056   0.830  53.018  1.00  0.00     0.071 A 
HETATM    4  N1  UNL     1      20.684  -0.358  53.410  1.00  0.00    -0.242 NA
HETATM    5  C5  UNL     1      21.651  -1.391  53.617  1.00  0.00     0.230 A 
HETATM    6  N2  UNL     1      22.900  -1.203  53.432  1.00  0.00    -0.252 NA
HETATM    7  C6  UNL     1      23.500   0.021  53.006  1.00  0.00     0.244 A 
HETATM    8  C13 UNL     1      22.474   1.072  52.799  1.00  0.00     0.025 A 
HETATM    9  C14 UNL     1      22.655   2.347  52.402  1.00  0.00     0.016 A 
ENDROOT
BRANCH   9  10
HETATM   10  C15 UNL     1      23.972   2.910  52.063  1.00  0.00     0.314 C 
BRANCH  10  11
HETATM   11  N4  UNL     1      24.040   3.633  50.834  1.00  0.00     0.093 N 
HETATM   12  C16 UNL     1      23.971   5.056  51.166  1.00  0.00     0.273 C 
HETATM   13  C17 UNL     1      24.950   5.794  50.326  1.00  0.00     0.046 C 
HETATM   14  C18 UNL     1      25.472   4.772  49.346  1.00  0.00     0.107 C 
HETATM   15  C20 UNL     1      25.244   3.456  50.097  1.00  0.00     0.286 C 
BRANCH  14  16
HETATM   16  C19 UNL     1      26.895   4.937  49.047  1.00  0.00     0.221 C 
HETATM   17  N5  UNL     1      27.663   6.111  48.956  1.00  0.00    -0.370 N 
HETATM   18  H18 UNL     1      27.771   6.907  48.278  1.00  0.00     0.159 HD
HETATM   19  H19 UNL     1      28.381   6.492  49.624  1.00  0.00     0.159 HD
HETATM   20  O2  UNL     1      27.632   3.941  48.824  1.00  0.00    -0.273 OA
ENDBRANCH  14  16
ENDBRANCH  10  11
ENDBRANCH   9  10
BRANCH   1  21
HETATM   21  O1  UNL     1      20.954   4.178  52.032  1.00  0.00    -0.355 OA
HETATM   22  C1  UNL     1      20.276   4.570  50.865  1.00  0.00     0.210 C 
ENDBRANCH   1  21
BRANCH   7  23
HETATM   23  N3  UNL     1      24.478   0.480  54.010  1.00  0.00    -0.363 N 
HETATM   24  H7  UNL     1      24.217   1.003  54.874  1.00  0.00     0.162 HD
BRANCH  23  25
HETATM   25  C7  UNL     1      25.854   0.193  53.784  1.00  0.00     0.031 A 
HETATM   26  C8  UNL     1      26.256  -0.978  53.177  1.00  0.00     0.032 A 
HETATM   27  C9  UNL     1      27.583  -1.286  52.941  1.00  0.00     0.046 A 
HETATM   28  C10 UNL     1      28.517  -0.356  53.343  1.00  0.00     0.138 A 
HETATM   29  F1  UNL     1      29.847  -0.573  53.150  1.00  0.00    -0.204 F 
HETATM   30  C11 UNL     1      28.200   0.855  53.963  1.00  0.00     0.074 A 
HETATM   31 CL1  UNL     1      29.416   2.013  54.461  1.00  0.00    -0.081 Cl
HETATM   32  C12 UNL     1      26.840   1.068  54.155  1.00  0.00     0.056 A 
ENDBRANCH  23  25
ENDBRANCH   7  23
TORSDOF 6
ENDMDL
MODEL 6
REMARK VINA RESULT:      -8.4      2.046      2.556
REMARK  6 active torsions:
REMARK  status: ('A' for Active; 'I' for Inactive)
REMARK    1  A    between atoms: O1_2  and  C2_3 
REMARK    2  A    between atoms: C6_9  and  N3_10 
REMARK    3  A    between atoms: N3_10  and  C7_11 
REMARK    4  A    between atoms: C14_20  and  C15_21 
REMARK    5  A    between atoms: C15_21  and  N4_22 
REMARK    6  A    between atoms: C18_25  and  C19_26 
REMARK       I    between atoms: C19_26  and  N5_27 
ROOT
HETATM    1  C2  UNL     1      22.142   0.741  51.640  1.00  0.00     0.079 A 
HETATM    2  C3  UNL     1      21.426   0.477  50.565  1.00  0.00     0.069 A 
HETATM    3  C4  UNL     1      21.822   1.513  49.629  1.00  0.00     0.071 A 
HETATM    4  N1  UNL     1      21.484   1.807  48.403  1.00  0.00    -0.242 NA
HETATM    5  C5  UNL     1      22.073   2.926  47.736  1.00  0.00     0.230 A 
HETATM    6  N2  UNL     1      22.941   3.676  48.297  1.00  0.00    -0.252 NA
HETATM    7  C6  UNL     1      23.437   3.518  49.627  1.00  0.00     0.244 A 
HETATM    8  C13 UNL     1      22.807   2.351  50.293  1.00  0.00     0.025 A 
HETATM    9  C14 UNL     1      23.021   1.889  51.542  1.00  0.00     0.016 A 
ENDROOT
BRANCH   9  10
HETATM   10  C15 UNL     1      23.938   2.531  52.496  1.00  0.00     0.314 C 
BRANCH  10  11
HETATM   11  N4  UNL     1      24.870   1.663  53.142  1.00  0.00     0.093 N 
HETATM   12  C16 UNL     1      25.425   0.784  52.114  1.00  0.00     0.273 C 
HETATM   13  C17 UNL     1      26.886   0.641  52.341  1.00  0.00     0.046 C 
HETATM   14  C18 UNL     1      27.145   1.323  53.663  1.00  0.00     0.107 C 
HETATM   15  C20 UNL     1      25.980   2.314  53.749  1.00  0.00     0.286 C 
BRANCH  14  16
HETATM   16  C19 UNL     1      28.418   2.043  53.698  1.00  0.00     0.221 C 
HETATM   17  N5  UNL     1      29.430   2.031  54.673  1.00  0.00    -0.370 N 
HETATM   18  H18 UNL     1      29.568   2.417  55.641  1.00  0.00     0.159 HD
HETATM   19  H19 UNL     1      30.381   1.581  54.643  1.00  0.00     0.159 HD
HETATM   20  O2  UNL     1      28.754   2.815  52.761  1.00  0.00    -0.273 OA
ENDBRANCH  14  16
ENDBRANCH  10  11
ENDBRANCH   9  10
BRANCH   1  21
HETATM   21  O1  UNL     1      21.984  -0.085  52.729  1.00  0.00    -0.355 OA
HETATM   22  C1  UNL     1      21.020   0.044  53.744  1.00  0.00     0.210 C 
ENDBRANCH   1  21
BRANCH   7  23
HETATM   23  N3  UNL     1      24.900   3.340  49.603  1.00  0.00    -0.363 N 
HETATM   24  H7  UNL     1      25.377   2.442  49.834  1.00  0.00     0.162 HD
BRANCH  23  25
HETATM   25  C7  UNL     1      25.704   4.458  49.244  1.00  0.00     0.031 A 
HETATM   26  C8  UNL     1      25.190   5.738  49.222  1.00  0.00     0.032 A 
HETATM   27  C9  UNL     1      25.944   6.846  48.881  1.00  0.00     0.046 A 
HETATM   28  C10 UNL     1      27.264   6.622  48.556  1.00  0.00     0.138 A 
HETATM   29  F1  UNL     1      28.083   7.653  48.208  1.00  0.00    -0.204 F 
HETATM   30  C11 UNL     1      27.868   5.362  48.552  1.00  0.00     0.074 A 
HETATM   31 CL1  UNL     1      29.550   5.116  48.131  1.00  0.00    -0.081 Cl
HETATM   32  C12 UNL     1      27.024   4.316  48.909  1.00  0.00     0.056 A 
ENDBRANCH  23  25
ENDBRANCH   7  23
TORSDOF 6
ENDMDL
MODEL 7
REMARK VINA RESULT:      -8.3      3.597      6.241
REMARK  6 active torsions:
REMARK  status: ('A' for Active; 'I' for Inactive)
REMARK    1  A    between atoms: O1_2  and  C2_3 
REMARK    2  A    between atoms: C6_9  and  N3_10 
REMARK    3  A    between atoms: N3_10  and  C7_11 
REMARK    4  A    between atoms: C14_20  and  C15_21 
REMARK    5  A    between atoms: C15_21  and  N4_22 
REMARK    6  A    between atoms: C18_25  and  C19_26 
REMARK       I    between atoms: C19_26  and  N5_27 
ROOT
HETATM    1  C2  UNL     1      26.707   0.776  53.539  1.00  0.00     0.079 A 
HETATM    2  C3  UNL     1      26.719  -0.290  54.314  1.00  0.00     0.069 A 
HETATM    3  C4  UNL     1      25.312  -0.564  54.540  1.00  0.00     0.071 A 
HETATM    4  N1  UNL     1      24.659  -1.473  55.212  1.00  0.00    -0.242 NA
HETATM    5  C5  UNL     1      23.229  -1.471  55.237  1.00  0.00     0.230 A 
HETATM    6  N2  UNL     1      22.537  -0.598  54.614  1.00  0.00    -0.252 NA
HETATM    7  C6  UNL     1      23.065   0.471  53.827  1.00  0.00     0.244 A 
HETATM    8  C13 UNL     1      24.548   0.444  53.821  1.00  0.00     0.025 A 
HETATM    9  C14 UNL     1      25.394   1.285  53.193  1.00  0.00     0.016 A 
ENDROOT
BRANCH   9  10
HETATM   10  C15 UNL     1      24.947   2.442  52.402  1.00  0.00     0.314 C 
BRANCH  10  11
HETATM   11  N4  UNL     1      25.304   2.425  51.020  1.00  0.00     0.093 N 
HETATM   12  C16 UNL     1      24.230   3.096  50.289  1.00  0.00     0.273 C 
HETATM   13  C17 UNL     1      24.831   3.975  49.252  1.00  0.00     0.046 C 
HETATM   14  C18 UNL     1      26.305   3.652  49.272  1.00  0.00     0.107 C 
HETATM   15  C20 UNL     1      26.501   3.123  50.697  1.00  0.00     0.286 C 
BRANCH  14  16
HETATM   16  C19 UNL     1      27.152   4.824  49.054  1.00  0.00     0.221 C 
HETATM   17  N5  UNL     1      26.945   6.165  49.424  1.00  0.00    -0.370 N 
HETATM   18  H18 UNL     1      26.335   6.962  49.111  1.00  0.00     0.159 HD
HETATM   19  H19 UNL     1      27.408   6.726  50.184  1.00  0.00     0.159 HD
HETATM   20  O2  UNL     1      28.256   4.727  48.454  1.00  0.00    -0.273 OA
ENDBRANCH  14  16
ENDBRANCH  10  11
ENDBRANCH   9  10
BRANCH   1  21
HETATM   21  O1  UNL     1      27.920   1.291  53.144  1.00  0.00    -0.355 OA
HETATM   22  C1  UNL     1      28.563   2.420  53.680  1.00  0.00     0.210 C 
ENDBRANCH   1  21
BRANCH   7  23
HETATM   23  N3  UNL     1      22.566   0.373  52.443  1.00  0.00    -0.363 N 
HETATM   24  H7  UNL     1      23.069  -0.131  51.682  1.00  0.00     0.162 HD
BRANCH  23  25
HETATM   25  C7  UNL     1      21.328   1.003  52.133  1.00  0.00     0.031 A 
HETATM   26  C8  UNL     1      21.131   2.352  52.347  1.00  0.00     0.032 A 
HETATM   27  C9  UNL     1      19.943   2.995  52.054  1.00  0.00     0.046 A 
HETATM   28  C10 UNL     1      18.932   2.221  51.525  1.00  0.00     0.138 A 
HETATM   29  F1  UNL     1      17.727   2.768  51.206  1.00  0.00    -0.204 F 
HETATM   30  C11 UNL     1      19.043   0.851  51.275  1.00  0.00     0.074 A 
HETATM   31 CL1  UNL     1      17.736  -0.101  50.602  1.00  0.00    -0.081 Cl
HETATM   32  C12 UNL     1      20.277   0.301  51.605  1.00  0.00     0.056 A 
ENDBRANCH  23  25
ENDBRANCH   7  23
TORSDOF 6
ENDMDL
MODEL 8
REMARK VINA RESULT:      -8.2      2.066      2.388
REMARK  6 active torsions:
REMARK  status: ('A' for Active; 'I' for Inactive)
REMARK    1  A    between atoms: O1_2  and  C2_3 
REMARK    2  A    between atoms: C6_9  and  N3_10 
REMARK    3  A    between atoms: N3_10  and  C7_11 
REMARK    4  A    between atoms: C14_20  and  C15_21 
REMARK    5  A    between atoms: C15_21  and  N4_22 
REMARK    6  A    between atoms: C18_25  and  C19_26 
REMARK       I    between atoms: C19_26  and  N5_27 
ROOT
HETATM    1  C2  UNL     1      22.311   0.671  52.611  1.00  0.00     0.079 A 
HETATM    2  C3  UNL     1      21.187   1.356  52.688  1.00  0.00     0.069 A 
HETATM    3  C4  UNL     1      21.582   2.702  52.318  1.00  0.00     0.071 A 
HETATM    4  N1  UNL     1      20.946   3.836  52.201  1.00  0.00    -0.242 NA
HETATM    5  C5  UNL     1      21.640   5.022  51.805  1.00  0.00     0.230 A 
HETATM    6  N2  UNL     1      22.891   5.027  51.552  1.00  0.00    -0.252 NA
HETATM    7  C6  UNL     1      23.756   3.893  51.624  1.00  0.00     0.244 A 
HETATM    8  C13 UNL     1      23.009   2.680  52.037  1.00  0.00     0.025 A 
HETATM    9  C14 UNL     1      23.481   1.429  52.212  1.00  0.00     0.016 A 
ENDROOT
BRANCH   9  10
HETATM   10  C15 UNL     1      24.896   1.067  52.042  1.00  0.00     0.314 C 
BRANCH  10  11
HETATM   11  N4  UNL     1      25.578   0.651  53.225  1.00  0.00     0.093 N 
HETATM   12  C16 UNL     1      26.169  -0.656  52.945  1.00  0.00     0.273 C 
HETATM   13  C17 UNL     1      27.539  -0.698  53.522  1.00  0.00     0.046 C 
HETATM   14  C18 UNL     1      27.665   0.576  54.322  1.00  0.00     0.107 C 
HETATM   15  C20 UNL     1      26.650   1.493  53.631  1.00  0.00     0.286 C 
BRANCH  14  16
HETATM   16  C19 UNL     1      29.001   1.167  54.253  1.00  0.00     0.221 C 
HETATM   17  N5  UNL     1      30.125   0.763  53.511  1.00  0.00    -0.370 N 
HETATM   18  H18 UNL     1      30.834  -0.012  53.552  1.00  0.00     0.159 HD
HETATM   19  H19 UNL     1      30.550   1.199  52.653  1.00  0.00     0.159 HD
HETATM   20  O2  UNL     1      29.292   2.194  54.920  1.00  0.00    -0.273 OA
ENDBRANCH  14  16
ENDBRANCH  10  11
ENDBRANCH   9  10
BRANCH   1  21
HETATM   21  O1  UNL     1      22.262  -0.670  52.913  1.00  0.00    -0.355 OA
HETATM   22  C1  UNL     1      22.321  -1.241  54.196  1.00  0.00     0.210 C 
ENDBRANCH   1  21
BRANCH   7  23
HETATM   23  N3  UNL     1      24.389   3.657  50.313  1.00  0.00    -0.363 N 
HETATM   24  H7  UNL     1      25.416   3.526  50.182  1.00  0.00     0.162 HD
BRANCH  23  25
HETATM   25  C7  UNL     1      23.550   3.606  49.165  1.00  0.00     0.031 A 
HETATM   26  C8  UNL     1      22.973   2.425  48.745  1.00  0.00     0.032 A 
HETATM   27  C9  UNL     1      22.151   2.341  47.636  1.00  0.00     0.046 A 
HETATM   28  C10 UNL     1      21.921   3.512  46.945  1.00  0.00     0.138 A 
HETATM   29  F1  UNL     1      21.124   3.525  45.841  1.00  0.00    -0.204 F 
HETATM   30  C11 UNL     1      22.462   4.750  47.298  1.00  0.00     0.074 A 
HETATM   31 CL1  UNL     1      22.148   6.217  46.393  1.00  0.00    -0.081 Cl
HETATM   32  C12 UNL     1      23.274   4.726  48.427  1.00  0.00     0.056 A 
ENDBRANCH  23  25
ENDBRANCH   7  23
TORSDOF 6
ENDMDL
MODEL 9
REMARK VINA RESULT:      -8.1      2.452      5.359
REMARK  6 active torsions:
REMARK  status: ('A' for Active; 'I' for Inactive)
REMARK    1  A    between atoms: O1_2  and  C2_3 
REMARK    2  A    between atoms: C6_9  and  N3_10 
REMARK    3  A    between atoms: N3_10  and  C7_11 
REMARK    4  A    between atoms: C14_20  and  C15_21 
REMARK    5  A    between atoms: C15_21  and  N4_22 
REMARK    6  A    between atoms: C18_25  and  C19_26 
REMARK       I    between atoms: C19_26  and  N5_27 
ROOT
HETATM    1  C2  UNL     1      23.075  -0.531  54.358  1.00  0.00     0.079 A 
HETATM    2  C3  UNL     1      24.125  -1.156  54.853  1.00  0.00     0.069 A 
HETATM    3  C4  UNL     1      25.236  -0.606  54.099  1.00  0.00     0.071 A 
HETATM    4  N1  UNL     1      26.526  -0.804  54.107  1.00  0.00    -0.242 NA
HETATM    5  C5  UNL     1      27.378  -0.081  53.214  1.00  0.00     0.230 A 
HETATM    6  N2  UNL     1      26.926   0.776  52.384  1.00  0.00    -0.252 NA
HETATM    7  C6  UNL     1      25.551   1.130  52.224  1.00  0.00     0.244 A 
HETATM    8  C13 UNL     1      24.693   0.365  53.162  1.00  0.00     0.025 A 
HETATM    9  C14 UNL     1      23.354   0.427  53.306  1.00  0.00     0.016 A 
ENDROOT
BRANCH   9  10
HETATM   10  C15 UNL     1      22.490   1.289  52.484  1.00  0.00     0.314 C 
BRANCH  10  11
HETATM   11  N4  UNL     1      22.033   0.720  51.258  1.00  0.00     0.093 N 
HETATM   12  C16 UNL     1      20.571   0.701  51.310  1.00  0.00     0.273 C 
HETATM   13  C17 UNL     1      20.038   1.115  49.986  1.00  0.00     0.046 C 
HETATM   14  C18 UNL     1      21.247   1.200  49.086  1.00  0.00     0.107 C 
HETATM   15  C20 UNL     1      22.379   1.452  50.088  1.00  0.00     0.286 C 
BRANCH  14  16
HETATM   16  C19 UNL     1      21.172   2.302  48.127  1.00  0.00     0.221 C 
HETATM   17  N5  UNL     1      22.195   3.126  47.625  1.00  0.00    -0.370 N 
HETATM   18  H18 UNL     1      22.788   3.917  47.981  1.00  0.00     0.159 HD
HETATM   19  H19 UNL     1      22.641   3.130  46.672  1.00  0.00     0.159 HD
HETATM   20  O2  UNL     1      20.074   2.645  47.615  1.00  0.00    -0.273 OA
ENDBRANCH  14  16
ENDBRANCH  10  11
ENDBRANCH   9  10
BRANCH   1  21
HETATM   21  O1  UNL     1      21.841  -0.846  54.879  1.00  0.00    -0.355 OA
HETATM   22  C1  UNL     1      20.821  -1.567  54.235  1.00  0.00     0.210 C 
ENDBRANCH   1  21
BRANCH   7  23
HETATM   23  N3  UNL     1      25.371   2.575  52.462  1.00  0.00    -0.363 N 
HETATM   24  H7  UNL     1      25.276   2.997  53.410  1.00  0.00     0.162 HD
BRANCH  23  25
HETATM   25  C7  UNL     1      25.325   3.437  51.331  1.00  0.00     0.031 A 
HETATM   26  C8  UNL     1      26.322   3.431  50.378  1.00  0.00     0.032 A 
HETATM   27  C9  UNL     1      26.307   4.253  49.266  1.00  0.00     0.046 A 
HETATM   28  C10 UNL     1      25.230   5.104  49.139  1.00  0.00     0.138 A 
HETATM   29  F1  UNL     1      25.130   5.950  48.077  1.00  0.00    -0.204 F 
HETATM   30  C11 UNL     1      24.177   5.177  50.054  1.00  0.00     0.074 A 
HETATM   31 CL1  UNL     1      22.823   6.273  49.859  1.00  0.00    -0.081 Cl
HETATM   32  C12 UNL     1      24.288   4.310  51.135  1.00  0.00     0.056 A 
ENDBRANCH  23  25
ENDBRANCH   7  23
TORSDOF 6
ENDMDL
