MODEL 1
REMARK VINA RESULT:      -8.1      0.000      0.000
REMARK  1 active torsions:
REMARK  status: ('A' for Active; 'I' for Inactive)
REMARK    1  A    between atoms: C7_10  and  N2_11 
ROOT
HETATM    1  O1  UNL     1      27.098  -0.531  55.149  1.00  0.00    -0.271 OA
HETATM    2  C1  UNL     1      27.769   0.286  54.470  1.00  0.00     0.248 C 
HETATM    3  C2  UNL     1      29.047   1.131  54.599  1.00  0.00     0.278 C 
HETATM    4  O2  UNL     1      28.573   2.471  54.126  1.00  0.00    -0.341 OA
HETATM    5  C3  UNL     1      27.317   2.396  53.538  1.00  0.00     0.085 C 
HETATM    6  C4  UNL     1      26.899   1.785  52.470  1.00  0.00     0.130 C 
HETATM    7  N1  UNL     1      27.207   0.534  53.185  1.00  0.00    -0.324 N 
HETATM    8  C5  UNL     1      26.443  -0.540  52.357  1.00  0.00     0.134 C 
HETATM    9  C6  UNL     1      25.125   0.010  52.584  1.00  0.00     0.060 C 
HETATM   10  C7  UNL     1      23.839   0.543  52.802  1.00  0.00     0.248 C 
HETATM   11  C12 UNL     1      23.061   1.119  51.689  1.00  0.00     0.021 C 
HETATM   12  C13 UNL     1      23.758   1.996  51.030  1.00  0.00    -0.028 C 
HETATM   13  C14 UNL     1      24.169   2.910  51.847  1.00  0.00     0.012 C 
HETATM   14  C15 UNL     1      24.793   3.083  53.139  1.00  0.00     0.004 C 
HETATM   15  C16 UNL     1      25.963   2.905  53.808  1.00  0.00     0.038 C 
ENDROOT
BRANCH  10  16
HETATM   16  N2  UNL     1      23.071  -0.597  53.242  1.00  0.00     0.100 N 
HETATM   17  C8  UNL     1      23.307  -0.968  54.610  1.00  0.00     0.299 C 
HETATM   18  C9  UNL     1      22.330  -2.060  54.973  1.00  0.00     0.198 C 
HETATM   19  O3  UNL     1      21.018  -1.595  54.965  1.00  0.00    -0.388 OA
HETATM   20  C10 UNL     1      20.902  -0.414  54.224  1.00  0.00     0.198 C 
HETATM   21  C11 UNL     1      21.690  -0.585  52.944  1.00  0.00     0.299 C 
ENDBRANCH  10  16
TORSDOF 1
ENDMDL
MODEL 2
REMARK VINA RESULT:      -7.7      2.200      3.590
REMARK  1 active torsions:
REMARK  status: ('A' for Active; 'I' for Inactive)
REMARK    1  A    between atoms: C7_10  and  N2_11 
ROOT
HETATM    1  O1  UNL     1      23.571   2.424  50.173  1.00  0.00    -0.271 OA
HETATM    2  C1  UNL     1      24.622   3.013  50.530  1.00  0.00     0.248 C 
HETATM    3  C2  UNL     1      25.697   3.937  49.933  1.00  0.00     0.278 C 
HETATM    4  O2  UNL     1      26.958   3.272  50.397  1.00  0.00    -0.341 OA
HETATM    5  C3  UNL     1      26.704   2.291  51.347  1.00  0.00     0.085 C 
HETATM    6  C4  UNL     1      26.207   2.358  52.546  1.00  0.00     0.130 C 
HETATM    7  N1  UNL     1      24.954   2.779  51.896  1.00  0.00    -0.324 N 
HETATM    8  C5  UNL     1      23.894   2.582  53.018  1.00  0.00     0.134 C 
HETATM    9  C6  UNL     1      24.087   1.157  53.155  1.00  0.00     0.060 C 
HETATM   10  C7  UNL     1      24.272  -0.233  53.292  1.00  0.00     0.248 C 
HETATM   11  C12 UNL     1      24.841  -0.801  54.529  1.00  0.00     0.021 C 
HETATM   12  C13 UNL     1      25.951  -0.209  54.853  1.00  0.00    -0.028 C 
HETATM   13  C14 UNL     1      26.780  -0.295  53.866  1.00  0.00     0.012 C 
HETATM   14  C15 UNL     1      26.866  -0.116  52.434  1.00  0.00     0.004 C 
HETATM   15  C16 UNL     1      26.843   0.830  51.458  1.00  0.00     0.038 C 
ENDROOT
BRANCH  10  16
HETATM   16  N2  UNL     1      22.931  -0.762  53.221  1.00  0.00     0.100 N 
HETATM   17  C8  UNL     1      22.372  -1.110  54.498  1.00  0.00     0.299 C 
HETATM   18  C9  UNL     1      20.927  -1.492  54.287  1.00  0.00     0.198 C 
HETATM   19  O3  UNL     1      20.168  -0.404  53.865  1.00  0.00    -0.388 OA
HETATM   20  C10 UNL     1      20.977   0.607  53.337  1.00  0.00     0.198 C 
HETATM   21  C11 UNL     1      22.005  -0.040  52.435  1.00  0.00     0.299 C 
ENDBRANCH  10  16
TORSDOF 1
ENDMDL
MODEL 3
REMARK VINA RESULT:      -7.3      2.306      4.163
REMARK  1 active torsions:
REMARK  status: ('A' for Active; 'I' for Inactive)
REMARK    1  A    between atoms: C7_10  and  N2_11 
ROOT
HETATM    1  O1  UNL     1      27.918   2.482  52.332  1.00  0.00    -0.271 OA
HETATM    2  C1  UNL     1      28.000   1.779  53.370  1.00  0.00     0.248 C 
HETATM    3  C2  UNL     1      29.060   0.996  54.162  1.00  0.00     0.278 C 
HETATM    4  O2  UNL     1      28.362  -0.311  54.391  1.00  0.00    -0.341 OA
HETATM    5  C3  UNL     1      27.015  -0.241  54.059  1.00  0.00     0.085 C 
HETATM    6  C4  UNL     1      26.037   0.457  54.557  1.00  0.00     0.130 C 
HETATM    7  N1  UNL     1      26.754   1.639  54.048  1.00  0.00    -0.324 N 
HETATM    8  C5  UNL     1      25.667   2.753  54.090  1.00  0.00     0.134 C 
HETATM    9  C6  UNL     1      24.765   2.112  53.161  1.00  0.00     0.060 C 
HETATM   10  C7  UNL     1      23.881   1.491  52.256  1.00  0.00     0.248 C 
HETATM   11  C12 UNL     1      22.566   0.995  52.703  1.00  0.00     0.021 C 
HETATM   12  C13 UNL     1      22.680   0.232  53.749  1.00  0.00    -0.028 C 
HETATM   13  C14 UNL     1      23.487  -0.740  53.477  1.00  0.00     0.012 C 
HETATM   14  C15 UNL     1      24.775  -1.016  52.882  1.00  0.00     0.004 C 
HETATM   15  C16 UNL     1      26.111  -0.847  53.068  1.00  0.00     0.038 C 
ENDROOT
BRANCH  10  16
HETATM   16  N2  UNL     1      23.582   2.535  51.305  1.00  0.00     0.100 N 
HETATM   17  C8  UNL     1      24.674   2.858  50.428  1.00  0.00     0.299 C 
HETATM   18  C9  UNL     1      24.171   3.839  49.398  1.00  0.00     0.198 C 
HETATM   19  O3  UNL     1      23.219   3.259  48.562  1.00  0.00    -0.388 OA
HETATM   20  C10 UNL     1      22.667   2.111  49.140  1.00  0.00     0.198 C 
HETATM   21  C11 UNL     1      22.368   2.415  50.591  1.00  0.00     0.299 C 
ENDBRANCH  10  16
TORSDOF 1
ENDMDL
MODEL 4
REMARK VINA RESULT:      -7.2      2.784      5.882
REMARK  1 active torsions:
REMARK  status: ('A' for Active; 'I' for Inactive)
REMARK    1  A    between atoms: C7_10  and  N2_11 
ROOT
HETATM    1  O1  UNL     1      22.680   4.233  51.655  1.00  0.00    -0.271 OA
HETATM    2  C1  UNL     1      21.535   3.786  51.393  1.00  0.00     0.248 C 
HETATM    3  C2  UNL     1      20.101   4.305  51.197  1.00  0.00     0.278 C 
HETATM    4  O2  UNL     1      19.317   3.355  52.051  1.00  0.00    -0.341 OA
HETATM    5  C3  UNL     1      20.087   2.275  52.461  1.00  0.00     0.085 C 
HETATM    6  C4  UNL     1      20.661   1.319  51.792  1.00  0.00     0.130 C 
HETATM    7  N1  UNL     1      21.518   2.372  51.218  1.00  0.00    -0.324 N 
HETATM    8  C5  UNL     1      22.698   1.565  50.602  1.00  0.00     0.134 C 
HETATM    9  C6  UNL     1      23.150   0.992  51.849  1.00  0.00     0.060 C 
HETATM   10  C7  UNL     1      23.595   0.430  53.063  1.00  0.00     0.248 C 
HETATM   11  C12 UNL     1      23.490  -1.021  53.307  1.00  0.00     0.021 C 
HETATM   12  C13 UNL     1      22.287  -1.453  53.075  1.00  0.00    -0.028 C 
HETATM   13  C14 UNL     1      21.451  -0.787  53.802  1.00  0.00     0.012 C 
HETATM   14  C15 UNL     1      21.110   0.560  54.198  1.00  0.00     0.004 C 
HETATM   15  C16 UNL     1      20.600   1.730  53.728  1.00  0.00     0.038 C 
ENDROOT
BRANCH  10  16
HETATM   16  N2  UNL     1      25.011   0.708  53.065  1.00  0.00     0.100 N 
HETATM   17  C8  UNL     1      25.347   2.036  53.497  1.00  0.00     0.299 C 
HETATM   18  C9  UNL     1      26.849   2.128  53.600  1.00  0.00     0.198 C 
HETATM   19  O3  UNL     1      27.343   1.305  54.609  1.00  0.00    -0.388 OA
HETATM   20  C10 UNL     1      26.420   0.313  54.953  1.00  0.00     0.198 C 
HETATM   21  C11 UNL     1      25.846  -0.257  53.674  1.00  0.00     0.299 C 
ENDBRANCH  10  16
TORSDOF 1
ENDMDL
MODEL 5
REMARK VINA RESULT:      -7.0      2.658      5.819
REMARK  1 active torsions:
REMARK  status: ('A' for Active; 'I' for Inactive)
REMARK    1  A    between atoms: C7_10  and  N2_11 
ROOT
HETATM    1  O1  UNL     1      20.540   1.704  53.301  1.00  0.00    -0.271 OA
HETATM    2  C1  UNL     1      20.569   0.452  53.201  1.00  0.00     0.248 C 
HETATM    3  C2  UNL     1      19.754  -0.770  53.658  1.00  0.00     0.278 C 
HETATM    4  O2  UNL     1      20.829  -1.666  54.195  1.00  0.00    -0.341 OA
HETATM    5  C3  UNL     1      22.097  -1.207  53.861  1.00  0.00     0.085 C 
HETATM    6  C4  UNL     1      22.687  -1.058  52.713  1.00  0.00     0.130 C 
HETATM    7  N1  UNL     1      21.678  -0.020  52.441  1.00  0.00    -0.324 N 
HETATM    8  C5  UNL     1      22.285   0.752  51.234  1.00  0.00     0.134 C 
HETATM    9  C6  UNL     1      23.475   1.193  51.926  1.00  0.00     0.060 C 
HETATM   10  C7  UNL     1      24.636   1.625  52.597  1.00  0.00     0.248 C 
HETATM   11  C12 UNL     1      25.967   1.124  52.204  1.00  0.00     0.021 C 
HETATM   12  C13 UNL     1      25.986  -0.174  52.152  1.00  0.00    -0.028 C 
HETATM   13  C14 UNL     1      25.619  -0.648  53.297  1.00  0.00     0.012 C 
HETATM   14  C15 UNL     1      24.606  -0.500  54.317  1.00  0.00     0.004 C 
HETATM   15  C16 UNL     1      23.284  -0.697  54.566  1.00  0.00     0.038 C 
ENDROOT
BRANCH  10  16
HETATM   16  N2  UNL     1      24.676   3.042  52.325  1.00  0.00     0.100 N 
HETATM   17  C8  UNL     1      24.630   3.371  50.927  1.00  0.00     0.299 C 
HETATM   18  C9  UNL     1      24.518   4.871  50.804  1.00  0.00     0.198 C 
HETATM   19  O3  UNL     1      23.305   5.336  51.306  1.00  0.00    -0.388 OA
HETATM   20  C10 UNL     1      22.718   4.400  52.163  1.00  0.00     0.198 C 
HETATM   21  C11 UNL     1      23.797   3.857  53.074  1.00  0.00     0.299 C 
ENDBRANCH  10  16
TORSDOF 1
ENDMDL
MODEL 6
REMARK VINA RESULT:      -7.0      2.331      5.418
REMARK  1 active torsions:
REMARK  status: ('A' for Active; 'I' for Inactive)
REMARK    1  A    between atoms: C7_10  and  N2_11 
ROOT
HETATM    1  O1  UNL     1      22.793   0.502  53.169  1.00  0.00    -0.271 OA
HETATM    2  C1  UNL     1      22.065   1.474  52.846  1.00  0.00     0.248 C 
HETATM    3  C2  UNL     1      20.573   1.800  52.669  1.00  0.00     0.278 C 
HETATM    4  O2  UNL     1      20.569   2.485  51.336  1.00  0.00    -0.341 OA
HETATM    5  C3  UNL     1      21.855   2.786  50.908  1.00  0.00     0.085 C 
HETATM    6  C4  UNL     1      22.766   3.574  51.396  1.00  0.00     0.130 C 
HETATM    7  N1  UNL     1      22.810   2.650  52.542  1.00  0.00    -0.324 N 
HETATM    8  C5  UNL     1      24.144   3.030  53.248  1.00  0.00     0.134 C 
HETATM    9  C6  UNL     1      25.001   2.697  52.134  1.00  0.00     0.060 C 
HETATM   10  C7  UNL     1      25.840   2.372  51.049  1.00  0.00     0.248 C 
HETATM   11  C12 UNL     1      26.591   3.423  50.335  1.00  0.00     0.021 C 
HETATM   12  C13 UNL     1      25.811   4.395  49.969  1.00  0.00    -0.028 C 
HETATM   13  C14 UNL     1      24.853   3.918  49.244  1.00  0.00     0.012 C 
HETATM   14  C15 UNL     1      23.879   2.851  49.204  1.00  0.00     0.004 C 
HETATM   15  C16 UNL     1      22.749   2.394  49.806  1.00  0.00     0.038 C 
ENDROOT
BRANCH  10  16
HETATM   16  N2  UNL     1      26.851   1.530  51.644  1.00  0.00     0.100 N 
HETATM   17  C8  UNL     1      27.558   2.145  52.732  1.00  0.00     0.299 C 
HETATM   18  C9  UNL     1      28.459   1.105  53.350  1.00  0.00     0.198 C 
HETATM   19  O3  UNL     1      27.725   0.085  53.951  1.00  0.00    -0.388 OA
HETATM   20  C10 UNL     1      26.414   0.049  53.465  1.00  0.00     0.198 C 
HETATM   21  C11 UNL     1      26.468   0.208  51.962  1.00  0.00     0.299 C 
ENDBRANCH  10  16
TORSDOF 1
ENDMDL
MODEL 7
REMARK VINA RESULT:      -6.8      3.729      6.714
REMARK  1 active torsions:
REMARK  status: ('A' for Active; 'I' for Inactive)
REMARK    1  A    between atoms: C7_10  and  N2_11 
ROOT
HETATM    1  O1  UNL     1      21.100   3.682  52.256  1.00  0.00    -0.271 OA
HETATM    2  C1  UNL     1      21.416   2.467  52.306  1.00  0.00     0.248 C 
HETATM    3  C2  UNL     1      21.052   1.204  53.104  1.00  0.00     0.278 C 
HETATM    4  O2  UNL     1      22.407   0.666  53.452  1.00  0.00    -0.341 OA
HETATM    5  C3  UNL     1      23.415   1.314  52.750  1.00  0.00     0.085 C 
HETATM    6  C4  UNL     1      23.680   1.375  51.479  1.00  0.00     0.130 C 
HETATM    7  N1  UNL     1      22.410   2.110  51.350  1.00  0.00    -0.324 N 
HETATM    8  C5  UNL     1      22.525   2.764  49.942  1.00  0.00     0.134 C 
HETATM    9  C6  UNL     1      23.690   3.563  50.246  1.00  0.00     0.060 C 
HETATM   10  C7  UNL     1      24.827   4.343  50.537  1.00  0.00     0.248 C 
HETATM   11  C12 UNL     1      26.119   4.071  49.879  1.00  0.00     0.021 C 
HETATM   12  C13 UNL     1      26.448   2.819  49.984  1.00  0.00    -0.028 C 
HETATM   13  C14 UNL     1      26.473   2.492  51.234  1.00  0.00     0.012 C 
HETATM   14  C15 UNL     1      25.706   2.604  52.455  1.00  0.00     0.004 C 
HETATM   15  C16 UNL     1      24.563   2.181  53.057  1.00  0.00     0.038 C 
ENDROOT
BRANCH  10  16
HETATM   16  N2  UNL     1      24.452   5.665  50.092  1.00  0.00     0.100 N 
HETATM   17  C8  UNL     1      23.817   6.464  51.102  1.00  0.00     0.299 C 
HETATM   18  C9  UNL     1      23.630   7.855  50.548  1.00  0.00     0.198 C 
HETATM   19  O3  UNL     1      24.852   8.486  50.330  1.00  0.00    -0.388 OA
HETATM   20  C10 UNL     1      25.897   7.560  50.256  1.00  0.00     0.198 C 
HETATM   21  C11 UNL     1      25.437   6.403  49.397  1.00  0.00     0.299 C 
ENDBRANCH  10  16
TORSDOF 1
ENDMDL
MODEL 8
REMARK VINA RESULT:      -6.6      3.763      5.413
REMARK  1 active torsions:
REMARK  status: ('A' for Active; 'I' for Inactive)
REMARK    1  A    between atoms: C7_10  and  N2_11 
ROOT
HETATM    1  O1  UNL     1      21.020   4.929  51.280  1.00  0.00    -0.271 OA
HETATM    2  C1  UNL     1      21.824   5.882  51.125  1.00  0.00     0.248 C 
HETATM    3  C2  UNL     1      21.826   7.326  50.596  1.00  0.00     0.278 C 
HETATM    4  O2  UNL     1      23.030   7.318  49.703  1.00  0.00    -0.341 OA
HETATM    5  C3  UNL     1      23.795   6.173  49.880  1.00  0.00     0.085 C 
HETATM    6  C4  UNL     1      24.457   5.725  50.905  1.00  0.00     0.130 C 
HETATM    7  N1  UNL     1      23.145   5.572  51.558  1.00  0.00    -0.324 N 
HETATM    8  C5  UNL     1      23.460   4.633  52.759  1.00  0.00     0.134 C 
HETATM    9  C6  UNL     1      23.902   3.514  51.959  1.00  0.00     0.060 C 
HETATM   10  C7  UNL     1      24.333   2.420  51.182  1.00  0.00     0.248 C 
HETATM   11  C12 UNL     1      25.741   1.979  51.216  1.00  0.00     0.021 C 
HETATM   12  C13 UNL     1      26.552   2.972  51.006  1.00  0.00    -0.028 C 
HETATM   13  C14 UNL     1      26.255   3.529  49.879  1.00  0.00     0.012 C 
HETATM   14  C15 UNL     1      25.131   4.020  49.114  1.00  0.00     0.004 C 
HETATM   15  C16 UNL     1      24.190   5.001  49.081  1.00  0.00     0.038 C 
ENDROOT
BRANCH  10  16
HETATM   16  N2  UNL     1      23.581   1.309  51.716  1.00  0.00     0.100 N 
HETATM   17  C8  UNL     1      23.856   1.027  53.098  1.00  0.00     0.299 C 
HETATM   18  C9  UNL     1      22.893  -0.041  53.556  1.00  0.00     0.198 C 
HETATM   19  O3  UNL     1      21.579   0.421  53.555  1.00  0.00    -0.388 OA
HETATM   20  C10 UNL     1      21.439   1.551  52.743  1.00  0.00     0.198 C 
HETATM   21  C11 UNL     1      22.192   1.300  51.455  1.00  0.00     0.299 C 
ENDBRANCH  10  16
TORSDOF 1
ENDMDL
MODEL 9
REMARK VINA RESULT:      -6.4      3.844      6.589
REMARK  1 active torsions:
REMARK  status: ('A' for Active; 'I' for Inactive)
REMARK    1  A    between atoms: C7_10  and  N2_11 
ROOT
HETATM    1  O1  UNL     1      20.192   3.015  52.686  1.00  0.00    -0.271 OA
HETATM    2  C1  UNL     1      20.752   1.891  52.723  1.00  0.00     0.248 C 
HETATM    3  C2  UNL     1      20.768   0.629  53.602  1.00  0.00     0.278 C 
HETATM    4  O2  UNL     1      22.239   0.389  53.758  1.00  0.00    -0.341 OA
HETATM    5  C3  UNL     1      22.985   1.181  52.895  1.00  0.00     0.085 C 
HETATM    6  C4  UNL     1      23.052   1.220  51.598  1.00  0.00     0.130 C 
HETATM    7  N1  UNL     1      21.654   1.683  51.640  1.00  0.00    -0.324 N 
HETATM    8  C5  UNL     1      21.434   2.263  50.212  1.00  0.00     0.134 C 
HETATM    9  C6  UNL     1      22.443   3.292  50.315  1.00  0.00     0.060 C 
HETATM   10  C7  UNL     1      23.427   4.296  50.411  1.00  0.00     0.248 C 
HETATM   11  C12 UNL     1      24.642   4.246  49.575  1.00  0.00     0.021 C 
HETATM   12  C13 UNL     1      25.230   3.091  49.666  1.00  0.00    -0.028 C 
HETATM   13  C14 UNL     1      25.496   2.848  50.907  1.00  0.00     0.012 C 
HETATM   14  C15 UNL     1      24.902   2.878  52.224  1.00  0.00     0.004 C 
HETATM   15  C16 UNL     1      23.966   2.273  53.003  1.00  0.00     0.038 C 
ENDROOT
BRANCH  10  16
HETATM   16  N2  UNL     1      22.733   5.490  49.989  1.00  0.00     0.100 N 
HETATM   17  C8  UNL     1      21.780   5.981  50.945  1.00  0.00     0.299 C 
HETATM   18  C9  UNL     1      21.256   7.304  50.444  1.00  0.00     0.198 C 
HETATM   19  O3  UNL     1      22.254   8.275  50.427  1.00  0.00    -0.388 OA
HETATM   20  C10 UNL     1      23.527   7.695  50.447  1.00  0.00     0.198 C 
HETATM   21  C11 UNL     1      23.530   6.537  49.474  1.00  0.00     0.299 C 
ENDBRANCH  10  16
TORSDOF 1
ENDMDL
