MODEL 1
REMARK VINA RESULT:      -7.7      0.000      0.000
REMARK  6 active torsions:
REMARK  status: ('A' for Active; 'I' for Inactive)
REMARK    1  A    between atoms: N1_2  and  C2_3 
REMARK    2  A    between atoms: N1_2  and  C12_18 
REMARK    3  A    between atoms: C2_3  and  C3_4 
REMARK    4  A    between atoms: C7_10  and  O1_11 
REMARK    5  A    between atoms: C8_13  and  C9_14 
REMARK    6  A    between atoms: C9_14  and  O2_15 
ROOT
HETATM    1  C3  UNL     1      23.849   2.117  52.798  1.00  0.00     0.076 A 
HETATM    2  N2  UNL     1      22.701   1.375  52.864  1.00  0.00    -0.244 NA
HETATM    3  C4  UNL     1      22.750   0.113  53.344  1.00  0.00     0.234 A 
HETATM    4  N3  UNL     1      23.881  -0.483  53.778  1.00  0.00    -0.241 NA
HETATM    5  C5  UNL     1      25.049   0.196  53.742  1.00  0.00     0.073 A 
HETATM    6  C6  UNL     1      26.219  -0.387  54.181  1.00  0.00     0.073 A 
HETATM    7  C7  UNL     1      27.422   0.306  54.149  1.00  0.00     0.122 A 
HETATM    8  C8  UNL     1      27.390   1.587  53.664  1.00  0.00     0.003 A 
HETATM    9  C10 UNL     1      26.219   2.148  53.232  1.00  0.00     0.028 A 
HETATM   10  C11 UNL     1      25.002   1.499  53.245  1.00  0.00     0.020 A 
ENDROOT
BRANCH   1  11
HETATM   11  C2  UNL     1      24.028   3.505  52.303  1.00  0.00     0.333 C 
BRANCH  11  12
HETATM   12  N1  UNL     1      22.977   3.735  51.300  1.00  0.00     0.107 N 
HETATM   13  C1  UNL     1      22.081   4.778  51.722  1.00  0.00     0.312 C 
BRANCH  12  14
HETATM   14  C12 UNL     1      23.594   3.967  50.009  1.00  0.00     0.311 A 
HETATM   15  C13 UNL     1      24.806   3.148  49.773  1.00  0.00     0.020 A 
HETATM   16  C14 UNL     1      26.066   3.333  49.507  1.00  0.00    -0.001 A 
HETATM   17  C15 UNL     1      26.600   4.678  49.367  1.00  0.00     0.007 A 
HETATM   18  C16 UNL     1      25.831   5.745  49.503  1.00  0.00     0.047 A 
HETATM   19  S1  UNL     1      24.062   5.715  49.868  1.00  0.00    -0.102 SA
ENDBRANCH  12  14
ENDBRANCH  11  12
ENDBRANCH   1  11
BRANCH   8  20
HETATM   20  C9  UNL     1      28.680   2.312  53.655  1.00  0.00     0.205 C 
BRANCH  20  21
HETATM   21  O2  UNL     1      29.245   2.232  54.927  1.00  0.00    -0.396 OA
HETATM   22  H10 UNL     1      28.684   2.685  55.609  1.00  0.00     0.209 HD
ENDBRANCH  20  21
ENDBRANCH   8  20
BRANCH   7  23
HETATM   23  O1  UNL     1      28.482  -0.434  54.624  1.00  0.00    -0.155 OA
HETATM   24  F1  UNL     1      29.380  -0.980  53.820  1.00  0.00    -0.042 F 
ENDBRANCH   7  23
TORSDOF 6
ENDMDL
MODEL 2
REMARK VINA RESULT:      -7.3      3.230      4.692
REMARK  6 active torsions:
REMARK  status: ('A' for Active; 'I' for Inactive)
REMARK    1  A    between atoms: N1_2  and  C2_3 
REMARK    2  A    between atoms: N1_2  and  C12_18 
REMARK    3  A    between atoms: C2_3  and  C3_4 
REMARK    4  A    between atoms: C7_10  and  O1_11 
REMARK    5  A    between atoms: C8_13  and  C9_14 
REMARK    6  A    between atoms: C9_14  and  O2_15 
ROOT
HETATM    1  C3  UNL     1      23.807   0.444  53.146  1.00  0.00     0.076 A 
HETATM    2  N2  UNL     1      24.404  -0.669  53.672  1.00  0.00    -0.244 NA
HETATM    3  C4  UNL     1      25.712  -0.904  53.428  1.00  0.00     0.234 A 
HETATM    4  N3  UNL     1      26.494  -0.094  52.682  1.00  0.00    -0.241 NA
HETATM    5  C5  UNL     1      25.967   1.023  52.134  1.00  0.00     0.073 A 
HETATM    6  C6  UNL     1      26.743   1.869  51.369  1.00  0.00     0.073 A 
HETATM    7  C7  UNL     1      26.208   3.020  50.806  1.00  0.00     0.122 A 
HETATM    8  C8  UNL     1      24.883   3.272  51.044  1.00  0.00     0.003 A 
HETATM    9  C10 UNL     1      24.128   2.420  51.804  1.00  0.00     0.028 A 
HETATM   10  C11 UNL     1      24.615   1.267  52.383  1.00  0.00     0.020 A 
ENDROOT
BRANCH   1  11
HETATM   11  C2  UNL     1      22.397   0.889  53.276  1.00  0.00     0.333 C 
BRANCH  11  12
HETATM   12  N1  UNL     1      21.559  -0.203  52.760  1.00  0.00     0.107 N 
HETATM   13  C1  UNL     1      20.911  -0.908  53.833  1.00  0.00     0.312 C 
BRANCH  12  14
HETATM   14  C12 UNL     1      20.651   0.326  51.761  1.00  0.00     0.311 A 
HETATM   15  C13 UNL     1      21.233   0.385  50.400  1.00  0.00     0.020 A 
HETATM   16  C14 UNL     1      21.477   1.279  49.487  1.00  0.00    -0.001 A 
HETATM   17  C15 UNL     1      21.136   2.675  49.712  1.00  0.00     0.007 A 
HETATM   18  C16 UNL     1      20.574   3.076  50.838  1.00  0.00     0.047 A 
HETATM   19  S1  UNL     1      20.148   2.006  52.230  1.00  0.00    -0.102 SA
ENDBRANCH  12  14
ENDBRANCH  11  12
ENDBRANCH   1  11
BRANCH   8  20
HETATM   20  C9  UNL     1      24.338   4.512  50.447  1.00  0.00     0.205 C 
BRANCH  20  21
HETATM   21  O2  UNL     1      25.095   5.592  50.898  1.00  0.00    -0.396 OA
HETATM   22  H10 UNL     1      24.602   6.133  51.570  1.00  0.00     0.209 HD
ENDBRANCH  20  21
ENDBRANCH   8  20
BRANCH   7  23
HETATM   23  O1  UNL     1      27.128   3.739  50.075  1.00  0.00    -0.155 OA
HETATM   24  F1  UNL     1      27.092   3.799  48.754  1.00  0.00    -0.042 F 
ENDBRANCH   7  23
TORSDOF 6
ENDMDL
MODEL 3
REMARK VINA RESULT:      -7.3      3.933      5.872
REMARK  6 active torsions:
REMARK  status: ('A' for Active; 'I' for Inactive)
REMARK    1  A    between atoms: N1_2  and  C2_3 
REMARK    2  A    between atoms: N1_2  and  C12_18 
REMARK    3  A    between atoms: C2_3  and  C3_4 
REMARK    4  A    between atoms: C7_10  and  O1_11 
REMARK    5  A    between atoms: C8_13  and  C9_14 
REMARK    6  A    between atoms: C9_14  and  O2_15 
ROOT
HETATM    1  C3  UNL     1      23.553   2.158  51.073  1.00  0.00     0.076 A 
HETATM    2  N2  UNL     1      23.274   2.547  49.792  1.00  0.00    -0.244 NA
HETATM    3  C4  UNL     1      22.127   2.140  49.205  1.00  0.00     0.234 A 
HETATM    4  N3  UNL     1      21.211   1.356  49.811  1.00  0.00    -0.241 NA
HETATM    5  C5  UNL     1      21.424   0.937  51.078  1.00  0.00     0.073 A 
HETATM    6  C6  UNL     1      20.504   0.137  51.723  1.00  0.00     0.073 A 
HETATM    7  C7  UNL     1      20.717  -0.294  53.026  1.00  0.00     0.122 A 
HETATM    8  C8  UNL     1      21.875   0.111  53.635  1.00  0.00     0.003 A 
HETATM    9  C10 UNL     1      22.777   0.903  52.979  1.00  0.00     0.028 A 
HETATM   10  C11 UNL     1      22.609   1.355  51.686  1.00  0.00     0.020 A 
ENDROOT
BRANCH   1  11
HETATM   11  C2  UNL     1      24.744   2.476  51.900  1.00  0.00     0.333 C 
BRANCH  11  12
HETATM   12  N1  UNL     1      25.922   2.069  51.120  1.00  0.00     0.107 N 
HETATM   13  C1  UNL     1      26.565   3.209  50.524  1.00  0.00     0.312 C 
BRANCH  12  14
HETATM   14  C12 UNL     1      26.792   1.265  51.956  1.00  0.00     0.311 A 
HETATM   15  C13 UNL     1      26.409  -0.165  52.010  1.00  0.00     0.020 A 
HETATM   16  C14 UNL     1      26.071  -1.047  52.904  1.00  0.00    -0.001 A 
HETATM   17  C15 UNL     1      26.002  -0.682  54.310  1.00  0.00     0.007 A 
HETATM   18  C16 UNL     1      26.278   0.543  54.720  1.00  0.00     0.047 A 
HETATM   19  S1  UNL     1      26.770   1.915  53.651  1.00  0.00    -0.102 SA
ENDBRANCH  12  14
ENDBRANCH  11  12
ENDBRANCH   1  11
BRANCH   8  20
HETATM   20  C9  UNL     1      22.073  -0.347  55.028  1.00  0.00     0.205 C 
BRANCH  20  21
HETATM   21  O2  UNL     1      21.901  -1.730  55.070  1.00  0.00    -0.396 OA
HETATM   22  H10 UNL     1      21.421  -2.067  54.269  1.00  0.00     0.209 HD
ENDBRANCH  20  21
ENDBRANCH   8  20
BRANCH   7  23
HETATM   23  O1  UNL     1      19.695  -1.084  53.505  1.00  0.00    -0.155 OA
HETATM   24  F1  UNL     1      18.606  -1.338  52.798  1.00  0.00    -0.042 F 
ENDBRANCH   7  23
TORSDOF 6
ENDMDL
MODEL 4
REMARK VINA RESULT:      -7.1      2.171      2.705
REMARK  6 active torsions:
REMARK  status: ('A' for Active; 'I' for Inactive)
REMARK    1  A    between atoms: N1_2  and  C2_3 
REMARK    2  A    between atoms: N1_2  and  C12_18 
REMARK    3  A    between atoms: C2_3  and  C3_4 
REMARK    4  A    between atoms: C7_10  and  O1_11 
REMARK    5  A    between atoms: C8_13  and  C9_14 
REMARK    6  A    between atoms: C9_14  and  O2_15 
ROOT
HETATM    1  C3  UNL     1      21.941   1.165  53.144  1.00  0.00     0.076 A 
HETATM    2  N2  UNL     1      21.271   0.310  53.976  1.00  0.00    -0.244 NA
HETATM    3  C4  UNL     1      21.939  -0.702  54.572  1.00  0.00     0.234 A 
HETATM    4  N3  UNL     1      23.258  -0.935  54.401  1.00  0.00    -0.241 NA
HETATM    5  C5  UNL     1      23.979  -0.126  53.593  1.00  0.00     0.073 A 
HETATM    6  C6  UNL     1      25.328  -0.339  53.402  1.00  0.00     0.073 A 
HETATM    7  C7  UNL     1      26.075   0.490  52.575  1.00  0.00     0.122 A 
HETATM    8  C8  UNL     1      25.412   1.521  51.964  1.00  0.00     0.003 A 
HETATM    9  C10 UNL     1      24.073   1.716  52.165  1.00  0.00     0.028 A 
HETATM   10  C11 UNL     1      23.291   0.919  52.975  1.00  0.00     0.020 A 
ENDROOT
BRANCH   1  11
HETATM   11  C2  UNL     1      21.410   2.326  52.387  1.00  0.00     0.333 C 
BRANCH  11  12
HETATM   12  N1  UNL     1      20.639   1.780  51.261  1.00  0.00     0.107 N 
HETATM   13  C1  UNL     1      19.260   1.591  51.624  1.00  0.00     0.312 C 
BRANCH  12  14
HETATM   14  C12 UNL     1      20.837   2.619  50.095  1.00  0.00     0.311 A 
HETATM   15  C13 UNL     1      21.883   2.118  49.174  1.00  0.00     0.020 A 
HETATM   16  C14 UNL     1      23.007   2.530  48.664  1.00  0.00    -0.001 A 
HETATM   17  C15 UNL     1      23.528   3.847  48.996  1.00  0.00     0.007 A 
HETATM   18  C16 UNL     1      22.883   4.659  49.815  1.00  0.00     0.047 A 
HETATM   19  S1  UNL     1      21.312   4.289  50.627  1.00  0.00    -0.102 SA
ENDBRANCH  12  14
ENDBRANCH  11  12
ENDBRANCH   1  11
BRANCH   8  20
HETATM   20  C9  UNL     1      26.231   2.401  51.101  1.00  0.00     0.205 C 
BRANCH  20  21
HETATM   21  O2  UNL     1      27.328   2.849  51.835  1.00  0.00    -0.396 OA
HETATM   22  H10 UNL     1      27.872   3.504  51.325  1.00  0.00     0.209 HD
ENDBRANCH  20  21
ENDBRANCH   8  20
BRANCH   7  23
HETATM   23  O1  UNL     1      27.401   0.125  52.504  1.00  0.00    -0.155 OA
HETATM   24  F1  UNL     1      27.797  -1.132  52.623  1.00  0.00    -0.042 F 
ENDBRANCH   7  23
TORSDOF 6
ENDMDL
MODEL 5
REMARK VINA RESULT:      -7.1      2.972      4.484
REMARK  6 active torsions:
REMARK  status: ('A' for Active; 'I' for Inactive)
REMARK    1  A    between atoms: N1_2  and  C2_3 
REMARK    2  A    between atoms: N1_2  and  C12_18 
REMARK    3  A    between atoms: C2_3  and  C3_4 
REMARK    4  A    between atoms: C7_10  and  O1_11 
REMARK    5  A    between atoms: C8_13  and  C9_14 
REMARK    6  A    between atoms: C9_14  and  O2_15 
ROOT
HETATM    1  C3  UNL     1      25.834   2.386  51.286  1.00  0.00     0.076 A 
HETATM    2  N2  UNL     1      27.151   2.490  51.640  1.00  0.00    -0.244 NA
HETATM    3  C4  UNL     1      27.620   1.774  52.686  1.00  0.00     0.234 A 
HETATM    4  N3  UNL     1      26.859   0.939  53.425  1.00  0.00    -0.241 NA
HETATM    5  C5  UNL     1      25.549   0.789  53.127  1.00  0.00     0.073 A 
HETATM    6  C6  UNL     1      24.749  -0.059  53.863  1.00  0.00     0.073 A 
HETATM    7  C7  UNL     1      23.403  -0.219  53.560  1.00  0.00     0.122 A 
HETATM    8  C8  UNL     1      22.913   0.500  52.503  1.00  0.00     0.003 A 
HETATM    9  C10 UNL     1      23.722   1.338  51.784  1.00  0.00     0.028 A 
HETATM   10  C11 UNL     1      25.062   1.529  52.048  1.00  0.00     0.020 A 
ENDROOT
BRANCH   1  11
HETATM   11  C2  UNL     1      25.112   3.080  50.190  1.00  0.00     0.333 C 
BRANCH  11  12
HETATM   12  N1  UNL     1      25.374   4.517  50.353  1.00  0.00     0.107 N 
HETATM   13  C1  UNL     1      26.207   5.013  49.291  1.00  0.00     0.312 C 
BRANCH  12  14
HETATM   14  C12 UNL     1      24.114   5.218  50.498  1.00  0.00     0.311 A 
HETATM   15  C13 UNL     1      23.568   5.181  51.874  1.00  0.00     0.020 A 
HETATM   16  C14 UNL     1      22.490   4.777  52.481  1.00  0.00    -0.001 A 
HETATM   17  C15 UNL     1      21.409   4.160  51.730  1.00  0.00     0.007 A 
HETATM   18  C16 UNL     1      21.484   3.993  50.421  1.00  0.00     0.047 A 
HETATM   19  S1  UNL     1      22.882   4.482  49.386  1.00  0.00    -0.102 SA
ENDBRANCH  12  14
ENDBRANCH  11  12
ENDBRANCH   1  11
BRANCH   8  20
HETATM   20  C9  UNL     1      21.481   0.302  52.188  1.00  0.00     0.205 C 
BRANCH  20  21
HETATM   21  O2  UNL     1      20.721   0.776  53.256  1.00  0.00    -0.396 OA
HETATM   22  H10 UNL     1      19.855   0.297  53.335  1.00  0.00     0.209 HD
ENDBRANCH  20  21
ENDBRANCH   8  20
BRANCH   7  23
HETATM   23  O1  UNL     1      22.763  -1.102  54.401  1.00  0.00    -0.155 OA
HETATM   24  F1  UNL     1      23.091  -1.228  55.677  1.00  0.00    -0.042 F 
ENDBRANCH   7  23
TORSDOF 6
ENDMDL
MODEL 6
REMARK VINA RESULT:      -7.0      2.186      3.378
REMARK  6 active torsions:
REMARK  status: ('A' for Active; 'I' for Inactive)
REMARK    1  A    between atoms: N1_2  and  C2_3 
REMARK    2  A    between atoms: N1_2  and  C12_18 
REMARK    3  A    between atoms: C2_3  and  C3_4 
REMARK    4  A    between atoms: C7_10  and  O1_11 
REMARK    5  A    between atoms: C8_13  and  C9_14 
REMARK    6  A    between atoms: C9_14  and  O2_15 
ROOT
HETATM    1  C3  UNL     1      22.936   1.073  52.351  1.00  0.00     0.076 A 
HETATM    2  N2  UNL     1      21.870   0.277  52.669  1.00  0.00    -0.244 NA
HETATM    3  C4  UNL     1      22.035  -0.741  53.543  1.00  0.00     0.234 A 
HETATM    4  N3  UNL     1      23.208  -1.034  54.142  1.00  0.00    -0.241 NA
HETATM    5  C5  UNL     1      24.300  -0.286  53.873  1.00  0.00     0.073 A 
HETATM    6  C6  UNL     1      25.512  -0.561  54.472  1.00  0.00     0.073 A 
HETATM    7  C7  UNL     1      26.637   0.206  54.201  1.00  0.00     0.122 A 
HETATM    8  C8  UNL     1      26.487   1.242  53.317  1.00  0.00     0.003 A 
HETATM    9  C10 UNL     1      25.278   1.499  52.732  1.00  0.00     0.028 A 
HETATM   10  C11 UNL     1      24.134   0.765  52.969  1.00  0.00     0.020 A 
ENDROOT
BRANCH   1  11
HETATM   11  C2  UNL     1      22.985   2.227  51.419  1.00  0.00     0.333 C 
BRANCH  11  12
HETATM   12  N1  UNL     1      22.212   3.310  52.046  1.00  0.00     0.107 N 
HETATM   13  C1  UNL     1      23.023   4.483  52.231  1.00  0.00     0.312 C 
BRANCH  12  14
HETATM   14  C12 UNL     1      21.003   3.537  51.278  1.00  0.00     0.311 A 
HETATM   15  C13 UNL     1      19.782   2.994  51.916  1.00  0.00     0.020 A 
HETATM   16  C14 UNL     1      18.836   2.145  51.638  1.00  0.00    -0.001 A 
HETATM   17  C15 UNL     1      18.831   1.438  50.367  1.00  0.00     0.007 A 
HETATM   18  C16 UNL     1      19.774   1.635  49.463  1.00  0.00     0.047 A 
HETATM   19  S1  UNL     1      21.171   2.766  49.643  1.00  0.00    -0.102 SA
ENDBRANCH  12  14
ENDBRANCH  11  12
ENDBRANCH   1  11
BRANCH   8  20
HETATM   20  C9  UNL     1      27.695   2.056  53.056  1.00  0.00     0.205 C 
BRANCH  20  21
HETATM   21  O2  UNL     1      28.005   2.775  54.210  1.00  0.00    -0.396 OA
HETATM   22  H10 UNL     1      27.381   3.535  54.350  1.00  0.00     0.209 HD
ENDBRANCH  20  21
ENDBRANCH   8  20
BRANCH   7  23
HETATM   23  O1  UNL     1      27.754  -0.216  54.887  1.00  0.00    -0.155 OA
HETATM   24  F1  UNL     1      28.825  -0.690  54.272  1.00  0.00    -0.042 F 
ENDBRANCH   7  23
TORSDOF 6
ENDMDL
MODEL 7
REMARK VINA RESULT:      -7.0      2.865      3.764
REMARK  6 active torsions:
REMARK  status: ('A' for Active; 'I' for Inactive)
REMARK    1  A    between atoms: N1_2  and  C2_3 
REMARK    2  A    between atoms: N1_2  and  C12_18 
REMARK    3  A    between atoms: C2_3  and  C3_4 
REMARK    4  A    between atoms: C7_10  and  O1_11 
REMARK    5  A    between atoms: C8_13  and  C9_14 
REMARK    6  A    between atoms: C9_14  and  O2_15 
ROOT
HETATM    1  C3  UNL     1      22.681   3.875  51.841  1.00  0.00     0.076 A 
HETATM    2  N2  UNL     1      21.474   4.493  51.657  1.00  0.00    -0.244 NA
HETATM    3  C4  UNL     1      20.333   3.823  51.932  1.00  0.00     0.234 A 
HETATM    4  N3  UNL     1      20.299   2.555  52.391  1.00  0.00    -0.241 NA
HETATM    5  C5  UNL     1      21.456   1.887  52.596  1.00  0.00     0.073 A 
HETATM    6  C6  UNL     1      21.451   0.591  53.067  1.00  0.00     0.073 A 
HETATM    7  C7  UNL     1      22.637  -0.098  53.283  1.00  0.00     0.122 A 
HETATM    8  C8  UNL     1      23.803   0.566  53.008  1.00  0.00     0.003 A 
HETATM    9  C10 UNL     1      23.788   1.852  52.540  1.00  0.00     0.028 A 
HETATM   10  C11 UNL     1      22.636   2.576  52.311  1.00  0.00     0.020 A 
ENDROOT
BRANCH   1  11
HETATM   11  C2  UNL     1      24.043   4.412  51.596  1.00  0.00     0.333 C 
BRANCH  11  12
HETATM   12  N1  UNL     1      23.903   5.489  50.606  1.00  0.00     0.107 N 
HETATM   13  C1  UNL     1      24.366   6.742  51.137  1.00  0.00     0.312 C 
BRANCH  12  14
HETATM   14  C12 UNL     1      24.551   5.089  49.372  1.00  0.00     0.311 A 
HETATM   15  C13 UNL     1      25.518   3.981  49.541  1.00  0.00     0.020 A 
HETATM   16  C14 UNL     1      26.783   3.756  49.335  1.00  0.00    -0.001 A 
HETATM   17  C15 UNL     1      27.636   4.795  48.781  1.00  0.00     0.007 A 
HETATM   18  C16 UNL     1      27.159   5.988  48.470  1.00  0.00     0.047 A 
HETATM   19  S1  UNL     1      25.440   6.508  48.671  1.00  0.00    -0.102 SA
ENDBRANCH  12  14
ENDBRANCH  11  12
ENDBRANCH   1  11
BRANCH   8  20
HETATM   20  C9  UNL     1      25.054  -0.182  53.260  1.00  0.00     0.205 C 
BRANCH  20  21
HETATM   21  O2  UNL     1      25.030  -0.661  54.569  1.00  0.00    -0.396 OA
HETATM   22  H10 UNL     1      25.760  -1.313  54.738  1.00  0.00     0.209 HD
ENDBRANCH  20  21
ENDBRANCH   8  20
BRANCH   7  23
HETATM   23  O1  UNL     1      22.438  -1.378  53.751  1.00  0.00    -0.155 OA
HETATM   24  F1  UNL     1      22.020  -1.625  54.982  1.00  0.00    -0.042 F 
ENDBRANCH   7  23
TORSDOF 6
ENDMDL
MODEL 8
REMARK VINA RESULT:      -7.0      4.259      6.391
REMARK  6 active torsions:
REMARK  status: ('A' for Active; 'I' for Inactive)
REMARK    1  A    between atoms: N1_2  and  C2_3 
REMARK    2  A    between atoms: N1_2  and  C12_18 
REMARK    3  A    between atoms: C2_3  and  C3_4 
REMARK    4  A    between atoms: C7_10  and  O1_11 
REMARK    5  A    between atoms: C8_13  and  C9_14 
REMARK    6  A    between atoms: C9_14  and  O2_15 
ROOT
HETATM    1  C3  UNL     1      24.126   2.578  52.693  1.00  0.00     0.076 A 
HETATM    2  N2  UNL     1      24.081   3.732  51.960  1.00  0.00    -0.244 NA
HETATM    3  C4  UNL     1      22.967   4.033  51.256  1.00  0.00     0.234 A 
HETATM    4  N3  UNL     1      21.865   3.254  51.227  1.00  0.00    -0.241 NA
HETATM    5  C5  UNL     1      21.843   2.101  51.930  1.00  0.00     0.073 A 
HETATM    6  C6  UNL     1      20.730   1.286  51.920  1.00  0.00     0.073 A 
HETATM    7  C7  UNL     1      20.701   0.102  52.643  1.00  0.00     0.122 A 
HETATM    8  C8  UNL     1      21.822  -0.217  53.362  1.00  0.00     0.003 A 
HETATM    9  C10 UNL     1      22.918   0.602  53.359  1.00  0.00     0.028 A 
HETATM   10  C11 UNL     1      22.993   1.787  52.657  1.00  0.00     0.020 A 
ENDROOT
BRANCH   1  11
HETATM   11  C2  UNL     1      25.238   2.051  53.524  1.00  0.00     0.333 C 
BRANCH  11  12
HETATM   12  N1  UNL     1      25.886   0.990  52.740  1.00  0.00     0.107 N 
HETATM   13  C1  UNL     1      26.806   1.543  51.784  1.00  0.00     0.312 C 
BRANCH  12  14
HETATM   14  C12 UNL     1      26.478   0.023  53.645  1.00  0.00     0.311 A 
HETATM   15  C13 UNL     1      27.596   0.568  54.448  1.00  0.00     0.020 A 
HETATM   16  C14 UNL     1      28.858   0.323  54.647  1.00  0.00    -0.001 A 
HETATM   17  C15 UNL     1      29.515  -0.773  53.954  1.00  0.00     0.007 A 
HETATM   18  C16 UNL     1      28.858  -1.550  53.110  1.00  0.00     0.047 A 
HETATM   19  S1  UNL     1      27.107  -1.388  52.692  1.00  0.00    -0.102 SA
ENDBRANCH  12  14
ENDBRANCH  11  12
ENDBRANCH   1  11
BRANCH   8  20
HETATM   20  C9  UNL     1      21.763  -1.476  54.137  1.00  0.00     0.205 C 
BRANCH  20  21
HETATM   21  O2  UNL     1      20.604  -1.467  54.912  1.00  0.00    -0.396 OA
HETATM   22  H10 UNL     1      20.195  -0.563  54.954  1.00  0.00     0.209 HD
ENDBRANCH  20  21
ENDBRANCH   8  20
BRANCH   7  23
HETATM   23  O1  UNL     1      19.511  -0.580  52.512  1.00  0.00    -0.155 OA
HETATM   24  F1  UNL     1      18.629  -0.289  51.569  1.00  0.00    -0.042 F 
ENDBRANCH   7  23
TORSDOF 6
ENDMDL
MODEL 9
REMARK VINA RESULT:      -6.9      3.050      4.125
REMARK  6 active torsions:
REMARK  status: ('A' for Active; 'I' for Inactive)
REMARK    1  A    between atoms: N1_2  and  C2_3 
REMARK    2  A    between atoms: N1_2  and  C12_18 
REMARK    3  A    between atoms: C2_3  and  C3_4 
REMARK    4  A    between atoms: C7_10  and  O1_11 
REMARK    5  A    between atoms: C8_13  and  C9_14 
REMARK    6  A    between atoms: C9_14  and  O2_15 
ROOT
HETATM    1  C3  UNL     1      24.588   2.515  51.386  1.00  0.00     0.076 A 
HETATM    2  N2  UNL     1      25.934   2.469  51.143  1.00  0.00    -0.244 NA
HETATM    3  C4  UNL     1      26.680   1.492  51.705  1.00  0.00     0.234 A 
HETATM    4  N3  UNL     1      26.178   0.530  52.508  1.00  0.00    -0.241 NA
HETATM    5  C5  UNL     1      24.855   0.517  52.787  1.00  0.00     0.073 A 
HETATM    6  C6  UNL     1      24.314  -0.455  53.603  1.00  0.00     0.073 A 
HETATM    7  C7  UNL     1      22.956  -0.475  53.890  1.00  0.00     0.122 A 
HETATM    8  C8  UNL     1      22.186   0.509  53.329  1.00  0.00     0.003 A 
HETATM    9  C10 UNL     1      22.740   1.466  52.524  1.00  0.00     0.028 A 
HETATM   10  C11 UNL     1      24.082   1.526  52.210  1.00  0.00     0.020 A 
ENDROOT
BRANCH   1  11
HETATM   11  C2  UNL     1      23.590   3.493  50.888  1.00  0.00     0.333 C 
BRANCH  11  12
HETATM   12  N1  UNL     1      23.748   3.553  49.428  1.00  0.00     0.107 N 
HETATM   13  C1  UNL     1      22.689   2.841  48.764  1.00  0.00     0.312 C 
BRANCH  12  14
HETATM   14  C12 UNL     1      23.880   4.938  49.019  1.00  0.00     0.311 A 
HETATM   15  C13 UNL     1      25.285   5.394  48.912  1.00  0.00     0.020 A 
HETATM   16  C14 UNL     1      26.050   6.312  49.426  1.00  0.00    -0.001 A 
HETATM   17  C15 UNL     1      25.522   7.246  50.408  1.00  0.00     0.007 A 
HETATM   18  C16 UNL     1      24.262   7.193  50.805  1.00  0.00     0.047 A 
HETATM   19  S1  UNL     1      23.034   6.005  50.219  1.00  0.00    -0.102 SA
ENDBRANCH  12  14
ENDBRANCH  11  12
ENDBRANCH   1  11
BRANCH   8  20
HETATM   20  C9  UNL     1      20.739   0.458  53.637  1.00  0.00     0.205 C 
BRANCH  20  21
HETATM   21  O2  UNL     1      20.581   0.367  55.019  1.00  0.00    -0.396 OA
HETATM   22  H10 UNL     1      20.940   1.167  55.486  1.00  0.00     0.209 HD
ENDBRANCH  20  21
ENDBRANCH   8  20
BRANCH   7  23
HETATM   23  O1  UNL     1      22.597  -1.514  54.721  1.00  0.00    -0.155 OA
HETATM   24  F1  UNL     1      23.137  -1.682  55.917  1.00  0.00    -0.042 F 
ENDBRANCH   7  23
TORSDOF 6
ENDMDL
