MODEL 1
REMARK VINA RESULT:      -8.4      0.000      0.000
REMARK  8 active torsions:
REMARK  status: ('A' for Active; 'I' for Inactive)
REMARK    1  A    between atoms: O1_2  and  C1_3 
REMARK    2  A    between atoms: C1_3  and  C2_4 
REMARK    3  A    between atoms: C2_4  and  C3_5 
REMARK    4  A    between atoms: C3_5  and  C4_6 
REMARK    5  A    between atoms: C4_6  and  C5_7 
REMARK    6  A    between atoms: C8_10  and  C9_11 
REMARK    7  A    between atoms: C12_14  and  N1_15 
REMARK    8  A    between atoms: N1_15  and  C13_16 
ROOT
HETATM    1  C9  UNL     1      24.908   2.936  50.960  1.00  0.00     0.022 A 
HETATM    2  C10 UNL     1      25.514   2.307  52.002  1.00  0.00     0.035 A 
HETATM    3  C11 UNL     1      24.916   1.282  52.677  1.00  0.00     0.047 A 
HETATM    4  C12 UNL     1      25.327   0.515  53.736  1.00  0.00     0.142 A 
HETATM    5  N2  UNL     1      24.552  -0.436  54.221  1.00  0.00    -0.223 NA
HETATM    6  C18 UNL     1      23.340  -0.763  53.778  1.00  0.00     0.236 A 
HETATM    7  N3  UNL     1      22.831  -0.079  52.743  1.00  0.00    -0.234 NA
HETATM    8  C19 UNL     1      23.629   0.906  52.238  1.00  0.00     0.113 A 
HETATM    9  S1  UNL     1      23.316   2.097  50.803  1.00  0.00    -0.071 SA
ENDROOT
BRANCH   1  10
HETATM   10  C8  UNL     1      25.309   4.019  50.097  1.00  0.00     0.283 C 
HETATM   11  C7  UNL     1      26.651   3.819  49.466  1.00  0.00     0.014 C 
HETATM   12  C6  UNL     1      27.226   4.865  48.866  1.00  0.00     0.007 C 
HETATM   13  C5  UNL     1      26.501   6.135  48.869  1.00  0.00    -0.030 C 
HETATM   14  C20 UNL     1      25.597   6.421  50.025  1.00  0.00     0.309 C 
HETATM   15  N4  UNL     1      25.375   5.260  50.838  1.00  0.00     0.100 N 
HETATM   16  H15 UNL     1      24.521   5.412  51.422  1.00  0.00     0.317 HD
BRANCH  13  17
HETATM   17  C4  UNL     1      26.634   6.996  47.897  1.00  0.00     0.017 C 
BRANCH  17  18
HETATM   18  C3  UNL     1      27.852   7.741  47.695  1.00  0.00     0.054 C 
BRANCH  18  19
HETATM   19  C2  UNL     1      28.249   8.555  48.641  1.00  0.00    -0.117 C 
BRANCH  19  20
HETATM   20  C1  UNL     1      28.390   9.351  49.691  1.00  0.00     0.279 C 
BRANCH  20  21
HETATM   21  O1  UNL     1      27.243   9.685  50.383  1.00  0.00    -0.178 OA
HETATM   22  F1  UNL     1      26.006   9.682  49.886  1.00  0.00    -0.046 F 
ENDBRANCH  20  21
ENDBRANCH  19  20
ENDBRANCH  18  19
ENDBRANCH  17  18
ENDBRANCH  13  17
ENDBRANCH   1  10
BRANCH   4  23
HETATM   23  N1  UNL     1      26.599   0.738  54.326  1.00  0.00    -0.343 N 
HETATM   24  H8  UNL     1      26.717   1.506  55.031  1.00  0.00     0.167 HD
BRANCH  23  25
HETATM   25  C13 UNL     1      27.725  -0.079  53.964  1.00  0.00     0.014 A 
HETATM   26  C14 UNL     1      28.965   0.136  54.403  1.00  0.00     0.025 A 
HETATM   27  C15 UNL     1      29.810  -0.903  53.812  1.00  0.00    -0.002 A 
HETATM   28  C16 UNL     1      29.077  -1.716  53.038  1.00  0.00    -0.021 A 
HETATM   29  C17 UNL     1      27.659  -1.262  53.062  1.00  0.00     0.084 A 
ENDBRANCH  23  25
ENDBRANCH   4  23
TORSDOF 8
ENDMDL
MODEL 2
REMARK VINA RESULT:      -8.1      1.764      1.953
REMARK  8 active torsions:
REMARK  status: ('A' for Active; 'I' for Inactive)
REMARK    1  A    between atoms: O1_2  and  C1_3 
REMARK    2  A    between atoms: C1_3  and  C2_4 
REMARK    3  A    between atoms: C2_4  and  C3_5 
REMARK    4  A    between atoms: C3_5  and  C4_6 
REMARK    5  A    between atoms: C4_6  and  C5_7 
REMARK    6  A    between atoms: C8_10  and  C9_11 
REMARK    7  A    between atoms: C12_14  and  N1_15 
REMARK    8  A    between atoms: N1_15  and  C13_16 
ROOT
HETATM    1  C9  UNL     1      24.850   2.890  50.883  1.00  0.00     0.022 A 
HETATM    2  C10 UNL     1      25.387   2.259  51.962  1.00  0.00     0.035 A 
HETATM    3  C11 UNL     1      24.732   1.257  52.617  1.00  0.00     0.047 A 
HETATM    4  C12 UNL     1      25.070   0.493  53.704  1.00  0.00     0.142 A 
HETATM    5  N2  UNL     1      24.249  -0.434  54.159  1.00  0.00    -0.223 NA
HETATM    6  C18 UNL     1      23.054  -0.738  53.658  1.00  0.00     0.236 A 
HETATM    7  N3  UNL     1      22.615  -0.054  52.591  1.00  0.00    -0.234 NA
HETATM    8  C19 UNL     1      23.461   0.905  52.117  1.00  0.00     0.113 A 
HETATM    9  S1  UNL     1      23.249   2.086  50.655  1.00  0.00    -0.071 SA
ENDROOT
BRANCH   1  10
HETATM   10  C8  UNL     1      25.320   3.952  50.031  1.00  0.00     0.283 C 
HETATM   11  C7  UNL     1      26.674   3.699  49.446  1.00  0.00     0.014 C 
HETATM   12  C6  UNL     1      27.308   4.720  48.862  1.00  0.00     0.007 C 
HETATM   13  C5  UNL     1      26.632   6.016  48.836  1.00  0.00    -0.030 C 
HETATM   14  C20 UNL     1      25.701   6.341  49.959  1.00  0.00     0.309 C 
HETATM   15  N4  UNL     1      25.409   5.194  50.769  1.00  0.00     0.100 N 
HETATM   16  H15 UNL     1      24.543   5.380  51.324  1.00  0.00     0.317 HD
BRANCH  13  17
HETATM   17  C4  UNL     1      26.829   6.866  47.865  1.00  0.00     0.017 C 
BRANCH  17  18
HETATM   18  C3  UNL     1      27.815   7.915  47.955  1.00  0.00     0.054 C 
BRANCH  18  19
HETATM   19  C2  UNL     1      29.081   7.581  47.968  1.00  0.00    -0.117 C 
BRANCH  19  20
HETATM   20  C1  UNL     1      30.339   7.277  48.255  1.00  0.00     0.279 C 
BRANCH  20  21
HETATM   21  O1  UNL     1      30.624   5.945  48.483  1.00  0.00    -0.178 OA
HETATM   22  F1  UNL     1      30.326   4.935  47.665  1.00  0.00    -0.046 F 
ENDBRANCH  20  21
ENDBRANCH  19  20
ENDBRANCH  18  19
ENDBRANCH  17  18
ENDBRANCH  13  17
ENDBRANCH   1  10
BRANCH   4  23
HETATM   23  N1  UNL     1      26.316   0.693  54.355  1.00  0.00    -0.343 N 
HETATM   24  H8  UNL     1      26.395   1.413  55.115  1.00  0.00     0.167 HD
BRANCH  23  25
HETATM   25  C13 UNL     1      27.468  -0.081  53.982  1.00  0.00     0.014 A 
HETATM   26  C14 UNL     1      27.430  -1.089  53.111  1.00  0.00     0.025 A 
HETATM   27  C15 UNL     1      28.794  -1.610  53.006  1.00  0.00    -0.002 A 
HETATM   28  C16 UNL     1      29.620  -0.918  53.805  1.00  0.00    -0.021 A 
HETATM   29  C17 UNL     1      28.843   0.136  54.511  1.00  0.00     0.084 A 
ENDBRANCH  23  25
ENDBRANCH   4  23
TORSDOF 8
ENDMDL
MODEL 3
REMARK VINA RESULT:      -8.0      2.065      2.387
REMARK  8 active torsions:
REMARK  status: ('A' for Active; 'I' for Inactive)
REMARK    1  A    between atoms: O1_2  and  C1_3 
REMARK    2  A    between atoms: C1_3  and  C2_4 
REMARK    3  A    between atoms: C2_4  and  C3_5 
REMARK    4  A    between atoms: C3_5  and  C4_6 
REMARK    5  A    between atoms: C4_6  and  C5_7 
REMARK    6  A    between atoms: C8_10  and  C9_11 
REMARK    7  A    between atoms: C12_14  and  N1_15 
REMARK    8  A    between atoms: N1_15  and  C13_16 
ROOT
HETATM    1  C9  UNL     1      25.597   4.131  50.149  1.00  0.00     0.022 A 
HETATM    2  C10 UNL     1      25.971   2.912  50.625  1.00  0.00     0.035 A 
HETATM    3  C11 UNL     1      25.169   2.179  51.450  1.00  0.00     0.047 A 
HETATM    4  C12 UNL     1      25.334   0.952  52.041  1.00  0.00     0.142 A 
HETATM    5  N2  UNL     1      24.394   0.444  52.815  1.00  0.00    -0.223 NA
HETATM    6  C18 UNL     1      23.230   1.015  53.112  1.00  0.00     0.236 A 
HETATM    7  N3  UNL     1      22.956   2.221  52.591  1.00  0.00    -0.234 NA
HETATM    8  C19 UNL     1      23.926   2.750  51.790  1.00  0.00     0.113 A 
HETATM    9  S1  UNL     1      23.959   4.398  50.863  1.00  0.00    -0.071 SA
ENDROOT
BRANCH   1  10
HETATM   10  C8  UNL     1      26.238   5.087  49.284  1.00  0.00     0.283 C 
HETATM   11  C7  UNL     1      27.591   4.659  48.812  1.00  0.00     0.014 C 
HETATM   12  C6  UNL     1      28.372   5.573  48.228  1.00  0.00     0.007 C 
HETATM   13  C5  UNL     1      27.846   6.930  48.090  1.00  0.00    -0.030 C 
HETATM   14  C20 UNL     1      26.884   7.415  49.126  1.00  0.00     0.309 C 
HETATM   15  N4  UNL     1      26.413   6.352  49.966  1.00  0.00     0.100 N 
HETATM   16  H15 UNL     1      25.537   6.660  50.447  1.00  0.00     0.317 HD
BRANCH  13  17
HETATM   17  C4  UNL     1      28.202   7.700  47.097  1.00  0.00     0.017 C 
BRANCH  17  18
HETATM   18  C3  UNL     1      29.584   7.997  46.816  1.00  0.00     0.054 C 
BRANCH  18  19
HETATM   19  C2  UNL     1      30.285   8.627  47.726  1.00  0.00    -0.117 C 
BRANCH  19  20
HETATM   20  C1  UNL     1      30.953   9.033  48.795  1.00  0.00     0.279 C 
BRANCH  20  21
HETATM   21  O1  UNL     1      31.464   8.054  49.624  1.00  0.00    -0.178 OA
HETATM   22  F1  UNL     1      31.250   6.744  49.504  1.00  0.00    -0.046 F 
ENDBRANCH  20  21
ENDBRANCH  19  20
ENDBRANCH  18  19
ENDBRANCH  17  18
ENDBRANCH  13  17
ENDBRANCH   1  10
BRANCH   4  23
HETATM   23  N1  UNL     1      26.526   0.212  51.823  1.00  0.00    -0.343 N 
HETATM   24  H8  UNL     1      26.621  -0.378  50.960  1.00  0.00     0.167 HD
BRANCH  23  25
HETATM   25  C13 UNL     1      27.602   0.263  52.774  1.00  0.00     0.014 A 
HETATM   26  C14 UNL     1      28.224  -0.817  53.247  1.00  0.00     0.025 A 
HETATM   27  C15 UNL     1      29.247  -0.344  54.180  1.00  0.00    -0.002 A 
HETATM   28  C16 UNL     1      29.227   0.995  54.254  1.00  0.00    -0.021 A 
HETATM   29  C17 UNL     1      28.162   1.516  53.353  1.00  0.00     0.084 A 
ENDBRANCH  23  25
ENDBRANCH   4  23
TORSDOF 8
ENDMDL
MODEL 4
REMARK VINA RESULT:      -7.8      0.958      1.205
REMARK  8 active torsions:
REMARK  status: ('A' for Active; 'I' for Inactive)
REMARK    1  A    between atoms: O1_2  and  C1_3 
REMARK    2  A    between atoms: C1_3  and  C2_4 
REMARK    3  A    between atoms: C2_4  and  C3_5 
REMARK    4  A    between atoms: C3_5  and  C4_6 
REMARK    5  A    between atoms: C4_6  and  C5_7 
REMARK    6  A    between atoms: C8_10  and  C9_11 
REMARK    7  A    between atoms: C12_14  and  N1_15 
REMARK    8  A    between atoms: N1_15  and  C13_16 
ROOT
HETATM    1  C9  UNL     1      24.940   3.128  50.735  1.00  0.00     0.022 A 
HETATM    2  C10 UNL     1      25.466   2.487  51.813  1.00  0.00     0.035 A 
HETATM    3  C11 UNL     1      24.801   1.483  52.455  1.00  0.00     0.047 A 
HETATM    4  C12 UNL     1      25.127   0.710  53.539  1.00  0.00     0.142 A 
HETATM    5  N2  UNL     1      24.299  -0.217  53.981  1.00  0.00    -0.223 NA
HETATM    6  C18 UNL     1      23.107  -0.512  53.469  1.00  0.00     0.236 A 
HETATM    7  N3  UNL     1      22.679   0.181  52.403  1.00  0.00    -0.234 NA
HETATM    8  C19 UNL     1      23.532   1.141  51.943  1.00  0.00     0.113 A 
HETATM    9  S1  UNL     1      23.337   2.333  50.487  1.00  0.00    -0.071 SA
ENDROOT
BRANCH   1  10
HETATM   10  C8  UNL     1      25.421   4.195  49.894  1.00  0.00     0.283 C 
HETATM   11  C7  UNL     1      26.776   3.939  49.314  1.00  0.00     0.014 C 
HETATM   12  C6  UNL     1      27.420   4.960  48.742  1.00  0.00     0.007 C 
HETATM   13  C5  UNL     1      26.751   6.261  48.723  1.00  0.00    -0.030 C 
HETATM   14  C20 UNL     1      25.816   6.582  49.844  1.00  0.00     0.309 C 
HETATM   15  N4  UNL     1      25.513   5.430  50.643  1.00  0.00     0.100 N 
HETATM   16  H15 UNL     1      24.644   5.617  51.194  1.00  0.00     0.317 HD
BRANCH  13  17
HETATM   17  C4  UNL     1      26.960   7.118  47.761  1.00  0.00     0.017 C 
BRANCH  17  18
HETATM   18  C3  UNL     1      28.286   7.446  47.302  1.00  0.00     0.054 C 
BRANCH  18  19
HETATM   19  C2  UNL     1      28.585   8.707  47.108  1.00  0.00    -0.117 C 
BRANCH  19  20
HETATM   20  C1  UNL     1      28.956   9.977  47.181  1.00  0.00     0.279 C 
BRANCH  20  21
HETATM   21  O1  UNL     1      28.209  10.802  47.998  1.00  0.00    -0.178 OA
HETATM   22  F1  UNL     1      27.859  10.539  49.257  1.00  0.00    -0.046 F 
ENDBRANCH  20  21
ENDBRANCH  19  20
ENDBRANCH  18  19
ENDBRANCH  17  18
ENDBRANCH  13  17
ENDBRANCH   1  10
BRANCH   4  23
HETATM   23  N1  UNL     1      26.368   0.901  54.202  1.00  0.00    -0.343 N 
HETATM   24  H8  UNL     1      26.465   1.665  54.915  1.00  0.00     0.167 HD
BRANCH  23  25
HETATM   25  C13 UNL     1      27.493   0.056  53.904  1.00  0.00     0.014 A 
HETATM   26  C14 UNL     1      27.443  -0.967  53.051  1.00  0.00     0.025 A 
HETATM   27  C15 UNL     1      28.779  -1.565  53.028  1.00  0.00    -0.002 A 
HETATM   28  C16 UNL     1      29.601  -0.902  53.855  1.00  0.00    -0.021 A 
HETATM   29  C17 UNL     1      28.849   0.210  54.500  1.00  0.00     0.084 A 
ENDBRANCH  23  25
ENDBRANCH   4  23
TORSDOF 8
ENDMDL
MODEL 5
REMARK VINA RESULT:      -7.3      1.836      2.366
REMARK  8 active torsions:
REMARK  status: ('A' for Active; 'I' for Inactive)
REMARK    1  A    between atoms: O1_2  and  C1_3 
REMARK    2  A    between atoms: C1_3  and  C2_4 
REMARK    3  A    between atoms: C2_4  and  C3_5 
REMARK    4  A    between atoms: C3_5  and  C4_6 
REMARK    5  A    between atoms: C4_6  and  C5_7 
REMARK    6  A    between atoms: C8_10  and  C9_11 
REMARK    7  A    between atoms: C12_14  and  N1_15 
REMARK    8  A    between atoms: N1_15  and  C13_16 
ROOT
HETATM    1  C9  UNL     1      24.742   2.998  50.920  1.00  0.00     0.022 A 
HETATM    2  C10 UNL     1      25.306   2.368  51.986  1.00  0.00     0.035 A 
HETATM    3  C11 UNL     1      24.696   1.324  52.617  1.00  0.00     0.047 A 
HETATM    4  C12 UNL     1      25.068   0.553  53.689  1.00  0.00     0.142 A 
HETATM    5  N2  UNL     1      24.289  -0.420  54.122  1.00  0.00    -0.223 NA
HETATM    6  C18 UNL     1      23.110  -0.766  53.614  1.00  0.00     0.236 A 
HETATM    7  N3  UNL     1      22.641  -0.080  52.560  1.00  0.00    -0.234 NA
HETATM    8  C19 UNL     1      23.443   0.926  52.109  1.00  0.00     0.113 A 
HETATM    9  S1  UNL     1      23.179   2.128  50.672  1.00  0.00    -0.071 SA
ENDROOT
BRANCH   1  10
HETATM   10  C8  UNL     1      25.164   4.098  50.091  1.00  0.00     0.283 C 
HETATM   11  C7  UNL     1      26.464   3.859  49.391  1.00  0.00     0.014 C 
HETATM   12  C6  UNL     1      27.070   4.901  48.814  1.00  0.00     0.007 C 
HETATM   13  C5  UNL     1      26.417   6.206  48.909  1.00  0.00    -0.030 C 
HETATM   14  C20 UNL     1      25.581   6.482  50.118  1.00  0.00     0.309 C 
HETATM   15  N4  UNL     1      25.331   5.297  50.885  1.00  0.00     0.100 N 
HETATM   16  H15 UNL     1      24.513   5.464  51.515  1.00  0.00     0.317 HD
BRANCH  13  17
HETATM   17  C4  UNL     1      26.554   7.105  47.973  1.00  0.00     0.017 C 
BRANCH  17  18
HETATM   18  C3  UNL     1      25.428   7.819  47.425  1.00  0.00     0.054 C 
BRANCH  18  19
HETATM   19  C2  UNL     1      24.290   7.182  47.296  1.00  0.00    -0.117 C 
BRANCH  19  20
HETATM   20  C1  UNL     1      23.234   6.386  47.376  1.00  0.00     0.279 C 
BRANCH  20  21
HETATM   21  O1  UNL     1      22.042   6.965  47.766  1.00  0.00    -0.178 OA
HETATM   22  F1  UNL     1      21.546   6.965  49.004  1.00  0.00    -0.046 F 
ENDBRANCH  20  21
ENDBRANCH  19  20
ENDBRANCH  18  19
ENDBRANCH  17  18
ENDBRANCH  13  17
ENDBRANCH   1  10
BRANCH   4  23
HETATM   23  N1  UNL     1      26.303   0.795  54.346  1.00  0.00    -0.343 N 
HETATM   24  H8  UNL     1      26.358   1.528  55.095  1.00  0.00     0.167 HD
BRANCH  23  25
HETATM   25  C13 UNL     1      27.478   0.045  53.993  1.00  0.00     0.014 A 
HETATM   26  C14 UNL     1      27.467  -0.999  53.165  1.00  0.00     0.025 A 
HETATM   27  C15 UNL     1      28.846  -1.479  53.068  1.00  0.00    -0.002 A 
HETATM   28  C16 UNL     1      29.656  -0.726  53.829  1.00  0.00    -0.021 A 
HETATM   29  C17 UNL     1      28.849   0.330  54.499  1.00  0.00     0.084 A 
ENDBRANCH  23  25
ENDBRANCH   4  23
TORSDOF 8
ENDMDL
MODEL 6
REMARK VINA RESULT:      -7.3      2.194      2.553
REMARK  8 active torsions:
REMARK  status: ('A' for Active; 'I' for Inactive)
REMARK    1  A    between atoms: O1_2  and  C1_3 
REMARK    2  A    between atoms: C1_3  and  C2_4 
REMARK    3  A    between atoms: C2_4  and  C3_5 
REMARK    4  A    between atoms: C3_5  and  C4_6 
REMARK    5  A    between atoms: C4_6  and  C5_7 
REMARK    6  A    between atoms: C8_10  and  C9_11 
REMARK    7  A    between atoms: C12_14  and  N1_15 
REMARK    8  A    between atoms: N1_15  and  C13_16 
ROOT
HETATM    1  C9  UNL     1      24.358   2.581  51.879  1.00  0.00     0.022 A 
HETATM    2  C10 UNL     1      25.230   2.057  52.783  1.00  0.00     0.035 A 
HETATM    3  C11 UNL     1      24.936   0.941  53.511  1.00  0.00     0.047 A 
HETATM    4  C12 UNL     1      25.644   0.249  54.459  1.00  0.00     0.142 A 
HETATM    5  N2  UNL     1      25.133  -0.824  55.032  1.00  0.00    -0.223 NA
HETATM    6  C18 UNL     1      23.936  -1.351  54.785  1.00  0.00     0.236 A 
HETATM    7  N3  UNL     1      23.151  -0.757  53.874  1.00  0.00    -0.234 NA
HETATM    8  C19 UNL     1      23.675   0.353  53.279  1.00  0.00     0.113 A 
HETATM    9  S1  UNL     1      22.927   1.482  51.959  1.00  0.00    -0.071 SA
ENDROOT
BRANCH   1  10
HETATM   10  C8  UNL     1      24.420   3.722  51.001  1.00  0.00     0.283 C 
HETATM   11  C7  UNL     1      24.051   5.011  51.663  1.00  0.00     0.014 C 
HETATM   12  C6  UNL     1      23.822   6.074  50.887  1.00  0.00     0.007 C 
HETATM   13  C5  UNL     1      23.949   5.902  49.441  1.00  0.00    -0.030 C 
HETATM   14  C20 UNL     1      23.637   4.557  48.868  1.00  0.00     0.309 C 
HETATM   15  N4  UNL     1      23.515   3.551  49.883  1.00  0.00     0.100 N 
HETATM   16  H15 UNL     1      23.613   2.608  49.443  1.00  0.00     0.317 HD
BRANCH  13  17
HETATM   17  C4  UNL     1      24.322   6.886  48.669  1.00  0.00     0.017 C 
BRANCH  17  18
HETATM   18  C3  UNL     1      25.522   6.821  47.872  1.00  0.00     0.054 C 
BRANCH  18  19
HETATM   19  C2  UNL     1      26.585   6.256  48.389  1.00  0.00    -0.117 C 
BRANCH  19  20
HETATM   20  C1  UNL     1      27.684   5.569  48.662  1.00  0.00     0.279 C 
BRANCH  20  21
HETATM   21  O1  UNL     1      27.525   4.369  49.328  1.00  0.00    -0.178 OA
HETATM   22  F1  UNL     1      26.771   3.348  48.920  1.00  0.00    -0.046 F 
ENDBRANCH  20  21
ENDBRANCH  19  20
ENDBRANCH  18  19
ENDBRANCH  17  18
ENDBRANCH  13  17
ENDBRANCH   1  10
BRANCH   4  23
HETATM   23  N1  UNL     1      26.942   0.683  54.836  1.00  0.00    -0.343 N 
HETATM   24  H8  UNL     1      27.048   1.441  55.554  1.00  0.00     0.167 HD
BRANCH  23  25
HETATM   25  C13 UNL     1      28.110   0.092  54.243  1.00  0.00     0.014 A 
HETATM   26  C14 UNL     1      29.322   0.645  54.288  1.00  0.00     0.025 A 
HETATM   27  C15 UNL     1      30.228  -0.258  53.578  1.00  0.00    -0.002 A 
HETATM   28  C16 UNL     1      29.558  -1.327  53.122  1.00  0.00    -0.021 A 
HETATM   29  C17 UNL     1      28.126  -1.203  53.509  1.00  0.00     0.084 A 
ENDBRANCH  23  25
ENDBRANCH   4  23
TORSDOF 8
ENDMDL
MODEL 7
REMARK VINA RESULT:      -7.3      4.532      8.889
REMARK  8 active torsions:
REMARK  status: ('A' for Active; 'I' for Inactive)
REMARK    1  A    between atoms: O1_2  and  C1_3 
REMARK    2  A    between atoms: C1_3  and  C2_4 
REMARK    3  A    between atoms: C2_4  and  C3_5 
REMARK    4  A    between atoms: C3_5  and  C4_6 
REMARK    5  A    between atoms: C4_6  and  C5_7 
REMARK    6  A    between atoms: C8_10  and  C9_11 
REMARK    7  A    between atoms: C12_14  and  N1_15 
REMARK    8  A    between atoms: N1_15  and  C13_16 
ROOT
HETATM    1  C9  UNL     1      25.977   4.330  49.841  1.00  0.00     0.022 A 
HETATM    2  C10 UNL     1      27.196   4.607  49.305  1.00  0.00     0.035 A 
HETATM    3  C11 UNL     1      27.417   5.716  48.542  1.00  0.00     0.047 A 
HETATM    4  C12 UNL     1      28.539   6.190  47.911  1.00  0.00     0.142 A 
HETATM    5  N2  UNL     1      28.500   7.311  47.217  1.00  0.00    -0.223 NA
HETATM    6  C18 UNL     1      27.434   8.089  47.043  1.00  0.00     0.236 A 
HETATM    7  N3  UNL     1      26.276   7.726  47.614  1.00  0.00    -0.234 NA
HETATM    8  C19 UNL     1      26.312   6.567  48.332  1.00  0.00     0.113 A 
HETATM    9  S1  UNL     1      24.932   5.696  49.290  1.00  0.00    -0.071 SA
ENDROOT
BRANCH   1  10
HETATM   10  C8  UNL     1      25.486   3.254  50.665  1.00  0.00     0.283 C 
HETATM   11  C7  UNL     1      24.318   3.635  51.518  1.00  0.00     0.014 C 
HETATM   12  C6  UNL     1      23.957   2.802  52.498  1.00  0.00     0.007 C 
HETATM   13  C5  UNL     1      24.733   1.574  52.669  1.00  0.00    -0.030 C 
HETATM   14  C20 UNL     1      26.179   1.603  52.294  1.00  0.00     0.309 C 
HETATM   15  N4  UNL     1      26.524   2.786  51.559  1.00  0.00     0.100 N 
HETATM   16  H15 UNL     1      27.427   2.626  51.058  1.00  0.00     0.317 HD
BRANCH  13  17
HETATM   17  C4  UNL     1      24.185   0.483  53.132  1.00  0.00     0.017 C 
BRANCH  17  18
HETATM   18  C3  UNL     1      22.828   0.114  52.817  1.00  0.00     0.054 C 
BRANCH  18  19
HETATM   19  C2  UNL     1      22.230  -0.773  53.574  1.00  0.00    -0.117 C 
BRANCH  19  20
HETATM   20  C1  UNL     1      21.733  -1.521  54.547  1.00  0.00     0.279 C 
BRANCH  20  21
HETATM   21  O1  UNL     1      22.559  -1.776  55.625  1.00  0.00    -0.178 OA
HETATM   22  F1  UNL     1      23.861  -1.499  55.689  1.00  0.00    -0.046 F 
ENDBRANCH  20  21
ENDBRANCH  19  20
ENDBRANCH  18  19
ENDBRANCH  17  18
ENDBRANCH  13  17
ENDBRANCH   1  10
BRANCH   4  23
HETATM   23  N1  UNL     1      29.762   5.474  48.000  1.00  0.00    -0.343 N 
HETATM   24  H8  UNL     1      29.750   4.425  48.008  1.00  0.00     0.167 HD
BRANCH  23  25
HETATM   25  C13 UNL     1      31.014   6.174  48.079  1.00  0.00     0.014 A 
HETATM   26  C14 UNL     1      31.913   6.195  47.095  1.00  0.00     0.025 A 
HETATM   27  C15 UNL     1      33.036   7.008  47.563  1.00  0.00    -0.002 A 
HETATM   28  C16 UNL     1      32.801   7.458  48.805  1.00  0.00    -0.021 A 
HETATM   29  C17 UNL     1      31.472   6.963  49.257  1.00  0.00     0.084 A 
ENDBRANCH  23  25
ENDBRANCH   4  23
TORSDOF 8
ENDMDL
MODEL 8
REMARK VINA RESULT:      -7.2      1.916      2.666
REMARK  8 active torsions:
REMARK  status: ('A' for Active; 'I' for Inactive)
REMARK    1  A    between atoms: O1_2  and  C1_3 
REMARK    2  A    between atoms: C1_3  and  C2_4 
REMARK    3  A    between atoms: C2_4  and  C3_5 
REMARK    4  A    between atoms: C3_5  and  C4_6 
REMARK    5  A    between atoms: C4_6  and  C5_7 
REMARK    6  A    between atoms: C8_10  and  C9_11 
REMARK    7  A    between atoms: C12_14  and  N1_15 
REMARK    8  A    between atoms: N1_15  and  C13_16 
ROOT
HETATM    1  C9  UNL     1      25.732   4.681  49.913  1.00  0.00     0.022 A 
HETATM    2  C10 UNL     1      26.109   3.480  50.431  1.00  0.00     0.035 A 
HETATM    3  C11 UNL     1      25.268   2.722  51.191  1.00  0.00     0.047 A 
HETATM    4  C12 UNL     1      25.426   1.506  51.805  1.00  0.00     0.142 A 
HETATM    5  N2  UNL     1      24.443   0.968  52.500  1.00  0.00    -0.223 NA
HETATM    6  C18 UNL     1      23.237   1.496  52.691  1.00  0.00     0.236 A 
HETATM    7  N3  UNL     1      22.964   2.687  52.137  1.00  0.00    -0.234 NA
HETATM    8  C19 UNL     1      23.979   3.248  51.418  1.00  0.00     0.113 A 
HETATM    9  S1  UNL     1      24.031   4.890  50.481  1.00  0.00    -0.071 SA
ENDROOT
BRANCH   1  10
HETATM   10  C8  UNL     1      26.410   5.656  49.097  1.00  0.00     0.283 C 
HETATM   11  C7  UNL     1      27.722   5.182  48.559  1.00  0.00     0.014 C 
HETATM   12  C6  UNL     1      28.543   6.086  48.016  1.00  0.00     0.007 C 
HETATM   13  C5  UNL     1      28.099   7.479  47.987  1.00  0.00    -0.030 C 
HETATM   14  C20 UNL     1      27.193   7.946  49.081  1.00  0.00     0.309 C 
HETATM   15  N4  UNL     1      26.678   6.857  49.859  1.00  0.00     0.100 N 
HETATM   16  H15 UNL     1      25.835   7.182  50.385  1.00  0.00     0.317 HD
BRANCH  13  17
HETATM   17  C4  UNL     1      28.476   8.294  47.039  1.00  0.00     0.017 C 
BRANCH  17  18
HETATM   18  C3  UNL     1      27.859   8.291  45.736  1.00  0.00     0.054 C 
BRANCH  18  19
HETATM   19  C2  UNL     1      26.573   8.530  45.655  1.00  0.00    -0.117 C 
BRANCH  19  20
HETATM   20  C1  UNL     1      25.249   8.528  45.701  1.00  0.00     0.279 C 
BRANCH  20  21
HETATM   21  O1  UNL     1      24.661   9.015  46.852  1.00  0.00    -0.178 OA
HETATM   22  F1  UNL     1      25.093  10.056  47.564  1.00  0.00    -0.046 F 
ENDBRANCH  20  21
ENDBRANCH  19  20
ENDBRANCH  18  19
ENDBRANCH  17  18
ENDBRANCH  13  17
ENDBRANCH   1  10
BRANCH   4  23
HETATM   23  N1  UNL     1      26.659   0.810  51.697  1.00  0.00    -0.343 N 
HETATM   24  H8  UNL     1      26.883   0.284  50.817  1.00  0.00     0.167 HD
BRANCH  23  25
HETATM   25  C13 UNL     1      27.601   0.820  52.782  1.00  0.00     0.014 A 
HETATM   26  C14 UNL     1      28.000  -0.277  53.426  1.00  0.00     0.025 A 
HETATM   27  C15 UNL     1      28.951   0.153  54.450  1.00  0.00    -0.002 A 
HETATM   28  C16 UNL     1      29.110   1.485  54.409  1.00  0.00    -0.021 A 
HETATM   29  C17 UNL     1      28.253   2.043  53.327  1.00  0.00     0.084 A 
ENDBRANCH  23  25
ENDBRANCH   4  23
TORSDOF 8
ENDMDL
MODEL 9
REMARK VINA RESULT:      -7.2      3.939      8.311
REMARK  8 active torsions:
REMARK  status: ('A' for Active; 'I' for Inactive)
REMARK    1  A    between atoms: O1_2  and  C1_3 
REMARK    2  A    between atoms: C1_3  and  C2_4 
REMARK    3  A    between atoms: C2_4  and  C3_5 
REMARK    4  A    between atoms: C3_5  and  C4_6 
REMARK    5  A    between atoms: C4_6  and  C5_7 
REMARK    6  A    between atoms: C8_10  and  C9_11 
REMARK    7  A    between atoms: C12_14  and  N1_15 
REMARK    8  A    between atoms: N1_15  and  C13_16 
ROOT
HETATM    1  C9  UNL     1      24.882   4.161  50.122  1.00  0.00     0.022 A 
HETATM    2  C10 UNL     1      25.826   5.110  49.880  1.00  0.00     0.035 A 
HETATM    3  C11 UNL     1      25.645   6.091  48.949  1.00  0.00     0.047 A 
HETATM    4  C12 UNL     1      26.440   7.132  48.542  1.00  0.00     0.142 A 
HETATM    5  N2  UNL     1      26.034   7.964  47.603  1.00  0.00    -0.223 NA
HETATM    6  C18 UNL     1      24.871   7.913  46.959  1.00  0.00     0.236 A 
HETATM    7  N3  UNL     1      24.008   6.935  47.272  1.00  0.00    -0.234 NA
HETATM    8  C19 UNL     1      24.424   6.071  48.243  1.00  0.00     0.113 A 
HETATM    9  S1  UNL     1      23.541   4.572  48.985  1.00  0.00    -0.071 SA
ENDROOT
BRANCH   1  10
HETATM   10  C8  UNL     1      24.823   3.042  51.029  1.00  0.00     0.283 C 
HETATM   11  C7  UNL     1      23.599   2.199  50.864  1.00  0.00     0.014 C 
HETATM   12  C6  UNL     1      23.318   1.303  51.815  1.00  0.00     0.007 C 
HETATM   13  C5  UNL     1      24.231   1.212  52.954  1.00  0.00    -0.030 C 
HETATM   14  C20 UNL     1      24.952   2.452  53.373  1.00  0.00     0.309 C 
HETATM   15  N4  UNL     1      24.833   3.501  52.402  1.00  0.00     0.100 N 
HETATM   16  H15 UNL     1      25.584   4.209  52.571  1.00  0.00     0.317 HD
BRANCH  13  17
HETATM   17  C4  UNL     1      24.415   0.086  53.589  1.00  0.00     0.017 C 
BRANCH  17  18
HETATM   18  C3  UNL     1      25.357  -0.906  53.132  1.00  0.00     0.054 C 
BRANCH  18  19
HETATM   19  C2  UNL     1      26.634  -0.617  53.172  1.00  0.00    -0.117 C 
BRANCH  19  20
HETATM   20  C1  UNL     1      27.918  -0.455  53.457  1.00  0.00     0.279 C 
BRANCH  20  21
HETATM   21  O1  UNL     1      28.674  -1.600  53.616  1.00  0.00    -0.178 OA
HETATM   22  F1  UNL     1      29.998  -1.644  53.757  1.00  0.00    -0.046 F 
ENDBRANCH  20  21
ENDBRANCH  19  20
ENDBRANCH  18  19
ENDBRANCH  17  18
ENDBRANCH  13  17
ENDBRANCH   1  10
BRANCH   4  23
HETATM   23  N1  UNL     1      27.716   7.325  49.133  1.00  0.00    -0.343 N 
HETATM   24  H8  UNL     1      27.790   7.799  50.066  1.00  0.00     0.167 HD
BRANCH  23  25
HETATM   25  C13 UNL     1      28.907   6.877  48.464  1.00  0.00     0.014 A 
HETATM   26  C14 UNL     1      29.213   5.592  48.282  1.00  0.00     0.025 A 
HETATM   27  C15 UNL     1      30.490   5.558  47.567  1.00  0.00    -0.002 A 
HETATM   28  C16 UNL     1      30.926   6.804  47.332  1.00  0.00    -0.021 A 
HETATM   29  C17 UNL     1      29.945   7.775  47.888  1.00  0.00     0.084 A 
ENDBRANCH  23  25
ENDBRANCH   4  23
TORSDOF 8
ENDMDL
