MODEL 1
REMARK VINA RESULT:      -9.1      0.000      0.000
REMARK  6 active torsions:
REMARK  status: ('A' for Active; 'I' for Inactive)
REMARK    1  A    between atoms: N1_4  and  C3_5 
REMARK    2  A    between atoms: C3_5  and  C4_6 
REMARK    3  A    between atoms: C4_6  and  C5_7 
REMARK    4  A    between atoms: C5_7  and  N2_8 
REMARK    5  A    between atoms: C13_17  and  N3_18 
REMARK    6  A    between atoms: N3_18  and  C14_19 
ROOT
HETATM    1  O1  UNL     1      22.720  -1.745  55.663  1.00  0.00    -0.290 OA
HETATM    2  C1  UNL     1      22.648  -1.108  54.597  1.00  0.00     0.179 A 
HETATM    3  C2  UNL     1      21.447  -0.984  53.736  1.00  0.00     0.207 A 
HETATM    4  N1  UNL     1      21.919  -0.087  52.668  1.00  0.00    -0.373 N 
HETATM    5  C10 UNL     1      23.273   0.211  52.888  1.00  0.00     0.045 A 
HETATM    6  C11 UNL     1      24.086   0.985  52.111  1.00  0.00     0.048 A 
HETATM    7  C12 UNL     1      25.410   1.227  52.403  1.00  0.00     0.041 A 
HETATM    8  C13 UNL     1      26.286   2.006  51.645  1.00  0.00     0.142 A 
HETATM    9  N4  UNL     1      27.520   2.100  52.118  1.00  0.00    -0.224 NA
HETATM   10  C20 UNL     1      27.970   1.520  53.231  1.00  0.00     0.236 A 
HETATM   11  N5  UNL     1      27.132   0.762  53.973  1.00  0.00    -0.241 NA
HETATM   12  C21 UNL     1      25.872   0.622  53.559  1.00  0.00     0.073 A 
HETATM   13  C22 UNL     1      25.093  -0.165  54.376  1.00  0.00     0.050 A 
HETATM   14  C23 UNL     1      23.774  -0.373  54.033  1.00  0.00     0.040 A 
ENDROOT
BRANCH   4  15
HETATM   15  C3  UNL     1      20.885   0.212  51.749  1.00  0.00     0.125 C 
BRANCH  15  16
HETATM   16  C4  UNL     1      19.823   1.164  52.159  1.00  0.00     0.050 C 
BRANCH  16  17
HETATM   17  C5  UNL     1      20.439   2.500  52.625  1.00  0.00     0.274 C 
BRANCH  17  18
HETATM   18  N2  UNL     1      20.915   3.303  51.539  1.00  0.00     0.092 N 
HETATM   19  C6  UNL     1      19.830   4.186  51.156  1.00  0.00     0.298 C 
HETATM   20  C7  UNL     1      20.247   5.138  50.055  1.00  0.00     0.198 C 
HETATM   21  O2  UNL     1      21.557   5.583  50.241  1.00  0.00    -0.388 OA
HETATM   22  C8  UNL     1      21.924   5.474  51.582  1.00  0.00     0.198 C 
HETATM   23  C9  UNL     1      22.081   4.036  51.991  1.00  0.00     0.298 C 
ENDBRANCH  17  18
ENDBRANCH  16  17
ENDBRANCH  15  16
ENDBRANCH   4  15
BRANCH   8  24
HETATM   24  N3  UNL     1      25.787   2.607  50.467  1.00  0.00    -0.340 N 
HETATM   25  H18 UNL     1      25.131   2.130  49.839  1.00  0.00     0.167 HD
BRANCH  24  26
HETATM   26  C14 UNL     1      26.084   3.898  49.966  1.00  0.00     0.035 A 
HETATM   27  C15 UNL     1      27.126   4.164  49.111  1.00  0.00     0.029 A 
HETATM   28  C16 UNL     1      27.465   5.385  48.583  1.00  0.00     0.004 A 
HETATM   29  C17 UNL     1      26.678   6.477  48.944  1.00  0.00     0.024 A 
HETATM   30  C18 UNL     1      25.612   6.295  49.799  1.00  0.00     0.036 A 
HETATM   31 CL1  UNL     1      24.584   7.621  50.292  1.00  0.00    -0.084 Cl
HETATM   32  C19 UNL     1      25.362   5.028  50.270  1.00  0.00     0.053 A 
ENDBRANCH  24  26
ENDBRANCH   8  24
TORSDOF 6
ENDMDL
MODEL 2
REMARK VINA RESULT:      -9.0      3.158      4.741
REMARK  6 active torsions:
REMARK  status: ('A' for Active; 'I' for Inactive)
REMARK    1  A    between atoms: N1_4  and  C3_5 
REMARK    2  A    between atoms: C3_5  and  C4_6 
REMARK    3  A    between atoms: C4_6  and  C5_7 
REMARK    4  A    between atoms: C5_7  and  N2_8 
REMARK    5  A    between atoms: C13_17  and  N3_18 
REMARK    6  A    between atoms: N3_18  and  C14_19 
ROOT
HETATM    1  O1  UNL     1      17.896  -0.904  53.128  1.00  0.00    -0.290 OA
HETATM    2  C1  UNL     1      18.911  -0.427  52.590  1.00  0.00     0.179 A 
HETATM    3  C2  UNL     1      18.946   0.338  51.319  1.00  0.00     0.207 A 
HETATM    4  N1  UNL     1      20.369   0.694  51.207  1.00  0.00    -0.373 N 
HETATM    5  C10 UNL     1      21.068   0.130  52.286  1.00  0.00     0.045 A 
HETATM    6  C11 UNL     1      22.409   0.202  52.532  1.00  0.00     0.048 A 
HETATM    7  C12 UNL     1      23.014  -0.383  53.621  1.00  0.00     0.041 A 
HETATM    8  C13 UNL     1      24.376  -0.344  53.921  1.00  0.00     0.142 A 
HETATM    9  N4  UNL     1      24.737  -0.981  55.026  1.00  0.00    -0.224 NA
HETATM   10  C20 UNL     1      23.915  -1.637  55.845  1.00  0.00     0.236 A 
HETATM   11  N5  UNL     1      22.594  -1.685  55.566  1.00  0.00    -0.241 NA
HETATM   12  C21 UNL     1      22.156  -1.065  54.469  1.00  0.00     0.073 A 
HETATM   13  C22 UNL     1      20.799  -1.165  54.265  1.00  0.00     0.050 A 
HETATM   14  C23 UNL     1      20.248  -0.559  53.156  1.00  0.00     0.040 A 
ENDROOT
BRANCH   4  15
HETATM   15  C3  UNL     1      20.615   1.492  50.064  1.00  0.00     0.125 C 
BRANCH  15  16
HETATM   16  C4  UNL     1      21.855   1.254  49.285  1.00  0.00     0.050 C 
BRANCH  16  17
HETATM   17  C5  UNL     1      22.781   2.487  49.344  1.00  0.00     0.274 C 
BRANCH  17  18
HETATM   18  N2  UNL     1      22.601   3.262  50.534  1.00  0.00     0.092 N 
HETATM   19  C6  UNL     1      23.834   3.170  51.291  1.00  0.00     0.298 C 
HETATM   20  C7  UNL     1      23.784   4.017  52.545  1.00  0.00     0.198 C 
HETATM   21  O2  UNL     1      23.126   5.226  52.313  1.00  0.00    -0.388 OA
HETATM   22  C8  UNL     1      23.167   5.550  50.957  1.00  0.00     0.198 C 
HETATM   23  C9  UNL     1      22.300   4.627  50.148  1.00  0.00     0.298 C 
ENDBRANCH  17  18
ENDBRANCH  16  17
ENDBRANCH  15  16
ENDBRANCH   4  15
BRANCH   8  24
HETATM   24  N3  UNL     1      25.228   0.354  53.036  1.00  0.00    -0.340 N 
HETATM   25  H18 UNL     1      24.916   0.689  52.117  1.00  0.00     0.167 HD
BRANCH  24  26
HETATM   26  C14 UNL     1      26.586   0.700  53.239  1.00  0.00     0.035 A 
HETATM   27  C15 UNL     1      27.038   1.994  53.342  1.00  0.00     0.029 A 
HETATM   28  C16 UNL     1      28.333   2.400  53.546  1.00  0.00     0.004 A 
HETATM   29  C17 UNL     1      29.302   1.404  53.661  1.00  0.00     0.024 A 
HETATM   30  C18 UNL     1      28.933   0.080  53.568  1.00  0.00     0.036 A 
HETATM   31 CL1  UNL     1      30.097  -1.218  53.704  1.00  0.00    -0.084 Cl
HETATM   32  C19 UNL     1      27.606  -0.215  53.363  1.00  0.00     0.053 A 
ENDBRANCH  24  26
ENDBRANCH   8  24
TORSDOF 6
ENDMDL
MODEL 3
REMARK VINA RESULT:      -8.7      2.133      5.708
REMARK  6 active torsions:
REMARK  status: ('A' for Active; 'I' for Inactive)
REMARK    1  A    between atoms: N1_4  and  C3_5 
REMARK    2  A    between atoms: C3_5  and  C4_6 
REMARK    3  A    between atoms: C4_6  and  C5_7 
REMARK    4  A    between atoms: C5_7  and  N2_8 
REMARK    5  A    between atoms: C13_17  and  N3_18 
REMARK    6  A    between atoms: N3_18  and  C14_19 
ROOT
HETATM    1  O1  UNL     1      19.635  -1.465  53.810  1.00  0.00    -0.290 OA
HETATM    2  C1  UNL     1      20.749  -0.914  53.789  1.00  0.00     0.179 A 
HETATM    3  C2  UNL     1      22.010  -1.475  54.333  1.00  0.00     0.207 A 
HETATM    4  N1  UNL     1      22.992  -0.437  53.983  1.00  0.00    -0.373 N 
HETATM    5  C10 UNL     1      22.327   0.628  53.353  1.00  0.00     0.045 A 
HETATM    6  C11 UNL     1      22.874   1.794  52.901  1.00  0.00     0.048 A 
HETATM    7  C12 UNL     1      22.144   2.789  52.292  1.00  0.00     0.041 A 
HETATM    8  C13 UNL     1      22.649   3.999  51.813  1.00  0.00     0.142 A 
HETATM    9  N4  UNL     1      21.759   4.811  51.262  1.00  0.00    -0.224 NA
HETATM   10  C20 UNL     1      20.456   4.561  51.136  1.00  0.00     0.236 A 
HETATM   11  N5  UNL     1      19.953   3.394  51.596  1.00  0.00    -0.241 NA
HETATM   12  C21 UNL     1      20.791   2.526  52.165  1.00  0.00     0.073 A 
HETATM   13  C22 UNL     1      20.192   1.366  52.602  1.00  0.00     0.050 A 
HETATM   14  C23 UNL     1      20.973   0.404  53.206  1.00  0.00     0.040 A 
ENDROOT
BRANCH   4  15
HETATM   15  C3  UNL     1      24.301  -0.809  54.372  1.00  0.00     0.125 C 
BRANCH  15  16
HETATM   16  C4  UNL     1      25.452  -0.234  53.633  1.00  0.00     0.050 C 
BRANCH  16  17
HETATM   17  C5  UNL     1      26.449   0.428  54.607  1.00  0.00     0.274 C 
BRANCH  17  18
HETATM   18  N2  UNL     1      27.742  -0.187  54.585  1.00  0.00     0.092 N 
HETATM   19  C6  UNL     1      27.838  -0.928  53.342  1.00  0.00     0.298 C 
HETATM   20  C7  UNL     1      29.200  -1.566  53.175  1.00  0.00     0.198 C 
HETATM   21  O2  UNL     1      30.213  -0.721  53.634  1.00  0.00    -0.388 OA
HETATM   22  C8  UNL     1      29.785   0.606  53.619  1.00  0.00     0.198 C 
HETATM   23  C9  UNL     1      28.744   0.856  54.674  1.00  0.00     0.298 C 
ENDBRANCH  17  18
ENDBRANCH  16  17
ENDBRANCH  15  16
ENDBRANCH   4  15
BRANCH   8  24
HETATM   24  N3  UNL     1      24.033   4.243  51.962  1.00  0.00    -0.340 N 
HETATM   25  H18 UNL     1      24.473   4.391  52.877  1.00  0.00     0.167 HD
BRANCH  24  26
HETATM   26  C14 UNL     1      25.009   4.325  50.939  1.00  0.00     0.035 A 
HETATM   27  C15 UNL     1      25.830   3.282  50.582  1.00  0.00     0.029 A 
HETATM   28  C16 UNL     1      26.788   3.288  49.600  1.00  0.00     0.004 A 
HETATM   29  C17 UNL     1      26.957   4.471  48.881  1.00  0.00     0.024 A 
HETATM   30  C18 UNL     1      26.172   5.565  49.177  1.00  0.00     0.036 A 
HETATM   31 CL1  UNL     1      26.331   7.078  48.314  1.00  0.00    -0.084 Cl
HETATM   32  C19 UNL     1      25.242   5.449  50.182  1.00  0.00     0.053 A 
ENDBRANCH  24  26
ENDBRANCH   8  24
TORSDOF 6
ENDMDL
MODEL 4
REMARK VINA RESULT:      -8.7      1.717      2.071
REMARK  6 active torsions:
REMARK  status: ('A' for Active; 'I' for Inactive)
REMARK    1  A    between atoms: N1_4  and  C3_5 
REMARK    2  A    between atoms: C3_5  and  C4_6 
REMARK    3  A    between atoms: C4_6  and  C5_7 
REMARK    4  A    between atoms: C5_7  and  N2_8 
REMARK    5  A    between atoms: C13_17  and  N3_18 
REMARK    6  A    between atoms: N3_18  and  C14_19 
ROOT
HETATM    1  O1  UNL     1      22.436  -2.121  55.526  1.00  0.00    -0.290 OA
HETATM    2  C1  UNL     1      22.207  -1.288  54.631  1.00  0.00     0.179 A 
HETATM    3  C2  UNL     1      20.869  -0.914  54.109  1.00  0.00     0.207 A 
HETATM    4  N1  UNL     1      21.197   0.134  53.130  1.00  0.00    -0.373 N 
HETATM    5  C10 UNL     1      22.592   0.287  53.073  1.00  0.00     0.045 A 
HETATM    6  C11 UNL     1      23.299   1.135  52.270  1.00  0.00     0.048 A 
HETATM    7  C12 UNL     1      24.673   1.220  52.280  1.00  0.00     0.041 A 
HETATM    8  C13 UNL     1      25.447   2.065  51.483  1.00  0.00     0.142 A 
HETATM    9  N4  UNL     1      26.757   1.977  51.661  1.00  0.00    -0.224 NA
HETATM   10  C20 UNL     1      27.368   1.164  52.522  1.00  0.00     0.236 A 
HETATM   11  N5  UNL     1      26.631   0.340  53.300  1.00  0.00    -0.241 NA
HETATM   12  C21 UNL     1      25.304   0.373  53.175  1.00  0.00     0.073 A 
HETATM   13  C22 UNL     1      24.636  -0.498  54.006  1.00  0.00     0.050 A 
HETATM   14  C23 UNL     1      23.260  -0.541  53.952  1.00  0.00     0.040 A 
ENDROOT
BRANCH   4  15
HETATM   15  C3  UNL     1      20.029   0.678  52.543  1.00  0.00     0.125 C 
BRANCH  15  16
HETATM   16  C4  UNL     1      19.809   0.483  51.089  1.00  0.00     0.050 C 
BRANCH  16  17
HETATM   17  C5  UNL     1      19.772   1.841  50.356  1.00  0.00     0.274 C 
BRANCH  17  18
HETATM   18  N2  UNL     1      21.049   2.229  49.837  1.00  0.00     0.092 N 
HETATM   19  C6  UNL     1      21.153   1.669  48.504  1.00  0.00     0.298 C 
HETATM   20  C7  UNL     1      22.443   2.078  47.825  1.00  0.00     0.198 C 
HETATM   21  O2  UNL     1      22.770   3.403  48.118  1.00  0.00    -0.388 OA
HETATM   22  C8  UNL     1      21.629   4.117  48.483  1.00  0.00     0.198 C 
HETATM   23  C9  UNL     1      21.115   3.677  49.826  1.00  0.00     0.298 C 
ENDBRANCH  17  18
ENDBRANCH  16  17
ENDBRANCH  15  16
ENDBRANCH   4  15
BRANCH   8  24
HETATM   24  N3  UNL     1      24.776   2.915  50.574  1.00  0.00    -0.340 N 
HETATM   25  H18 UNL     1      23.997   2.593  49.989  1.00  0.00     0.167 HD
BRANCH  24  26
HETATM   26  C14 UNL     1      25.038   4.283  50.319  1.00  0.00     0.035 A 
HETATM   27  C15 UNL     1      24.329   5.315  50.885  1.00  0.00     0.029 A 
HETATM   28  C16 UNL     1      24.533   6.658  50.689  1.00  0.00     0.004 A 
HETATM   29  C17 UNL     1      25.564   7.027  49.827  1.00  0.00     0.024 A 
HETATM   30  C18 UNL     1      26.324   6.052  49.217  1.00  0.00     0.036 A 
HETATM   31 CL1  UNL     1      27.632   6.446  48.126  1.00  0.00    -0.084 Cl
HETATM   32  C19 UNL     1      26.033   4.736  49.485  1.00  0.00     0.053 A 
ENDBRANCH  24  26
ENDBRANCH   8  24
TORSDOF 6
ENDMDL
MODEL 5
REMARK VINA RESULT:      -8.3      2.801      5.896
REMARK  6 active torsions:
REMARK  status: ('A' for Active; 'I' for Inactive)
REMARK    1  A    between atoms: N1_4  and  C3_5 
REMARK    2  A    between atoms: C3_5  and  C4_6 
REMARK    3  A    between atoms: C4_6  and  C5_7 
REMARK    4  A    between atoms: C5_7  and  N2_8 
REMARK    5  A    between atoms: C13_17  and  N3_18 
REMARK    6  A    between atoms: N3_18  and  C14_19 
ROOT
HETATM    1  O1  UNL     1      27.889  -0.255  55.029  1.00  0.00    -0.290 OA
HETATM    2  C1  UNL     1      27.171   0.219  54.131  1.00  0.00     0.179 A 
HETATM    3  C2  UNL     1      27.620   1.114  53.036  1.00  0.00     0.207 A 
HETATM    4  N1  UNL     1      26.385   1.302  52.259  1.00  0.00    -0.373 N 
HETATM    5  C10 UNL     1      25.335   0.621  52.897  1.00  0.00     0.045 A 
HETATM    6  C11 UNL     1      24.027   0.571  52.512  1.00  0.00     0.048 A 
HETATM    7  C12 UNL     1      23.058  -0.126  53.199  1.00  0.00     0.041 A 
HETATM    8  C13 UNL     1      21.709  -0.210  52.854  1.00  0.00     0.142 A 
HETATM    9  N4  UNL     1      20.956  -0.939  53.665  1.00  0.00    -0.224 NA
HETATM   10  C20 UNL     1      21.384  -1.577  54.754  1.00  0.00     0.236 A 
HETATM   11  N5  UNL     1      22.688  -1.502  55.101  1.00  0.00    -0.241 NA
HETATM   12  C21 UNL     1      23.507  -0.786  54.331  1.00  0.00     0.073 A 
HETATM   13  C22 UNL     1      24.815  -0.767  54.760  1.00  0.00     0.050 A 
HETATM   14  C23 UNL     1      25.741  -0.052  54.031  1.00  0.00     0.040 A 
ENDROOT
BRANCH   4  15
HETATM   15  C3  UNL     1      26.611   2.099  51.111  1.00  0.00     0.125 C 
BRANCH  15  16
HETATM   16  C4  UNL     1      25.829   3.349  50.949  1.00  0.00     0.050 C 
BRANCH  16  17
HETATM   17  C5  UNL     1      24.654   3.134  49.972  1.00  0.00     0.274 C 
BRANCH  17  18
HETATM   18  N2  UNL     1      23.400   3.574  50.503  1.00  0.00     0.092 N 
HETATM   19  C6  UNL     1      23.675   4.192  51.786  1.00  0.00     0.298 C 
HETATM   20  C7  UNL     1      22.420   4.763  52.412  1.00  0.00     0.198 C 
HETATM   21  O2  UNL     1      21.597   5.349  51.449  1.00  0.00    -0.388 OA
HETATM   22  C8  UNL     1      22.342   5.715  50.328  1.00  0.00     0.198 C 
HETATM   23  C9  UNL     1      22.809   4.508  49.565  1.00  0.00     0.298 C 
ENDBRANCH  17  18
ENDBRANCH  16  17
ENDBRANCH  15  16
ENDBRANCH   4  15
BRANCH   8  24
HETATM   24  N3  UNL     1      21.278   0.478  51.697  1.00  0.00    -0.340 N 
HETATM   25  H18 UNL     1      21.891   0.641  50.890  1.00  0.00     0.167 HD
BRANCH  24  26
HETATM   26  C14 UNL     1      20.000   1.036  51.452  1.00  0.00     0.035 A 
HETATM   27  C15 UNL     1      19.641   2.312  51.816  1.00  0.00     0.029 A 
HETATM   28  C16 UNL     1      18.428   2.918  51.604  1.00  0.00     0.004 A 
HETATM   29  C17 UNL     1      17.447   2.170  50.953  1.00  0.00     0.024 A 
HETATM   30  C18 UNL     1      17.726   0.881  50.555  1.00  0.00     0.036 A 
HETATM   31 CL1  UNL     1      16.543  -0.111  49.734  1.00  0.00    -0.084 Cl
HETATM   32  C19 UNL     1      18.976   0.372  50.818  1.00  0.00     0.053 A 
ENDBRANCH  24  26
ENDBRANCH   8  24
TORSDOF 6
ENDMDL
MODEL 6
REMARK VINA RESULT:      -8.2      2.388      3.326
REMARK  6 active torsions:
REMARK  status: ('A' for Active; 'I' for Inactive)
REMARK    1  A    between atoms: N1_4  and  C3_5 
REMARK    2  A    between atoms: C3_5  and  C4_6 
REMARK    3  A    between atoms: C4_6  and  C5_7 
REMARK    4  A    between atoms: C5_7  and  N2_8 
REMARK    5  A    between atoms: C13_17  and  N3_18 
REMARK    6  A    between atoms: N3_18  and  C14_19 
ROOT
HETATM    1  O1  UNL     1      22.537  -1.500  55.305  1.00  0.00    -0.290 OA
HETATM    2  C1  UNL     1      22.522  -0.867  54.235  1.00  0.00     0.179 A 
HETATM    3  C2  UNL     1      21.370  -0.748  53.307  1.00  0.00     0.207 A 
HETATM    4  N1  UNL     1      21.898   0.146  52.265  1.00  0.00    -0.373 N 
HETATM    5  C10 UNL     1      23.237   0.449  52.557  1.00  0.00     0.045 A 
HETATM    6  C11 UNL     1      24.090   1.222  51.824  1.00  0.00     0.048 A 
HETATM    7  C12 UNL     1      25.394   1.469  52.187  1.00  0.00     0.041 A 
HETATM    8  C13 UNL     1      26.309   2.248  51.477  1.00  0.00     0.142 A 
HETATM    9  N4  UNL     1      27.515   2.347  52.017  1.00  0.00    -0.224 NA
HETATM   10  C20 UNL     1      27.904   1.773  53.155  1.00  0.00     0.236 A 
HETATM   11  N5  UNL     1      27.029   1.015  53.852  1.00  0.00    -0.241 NA
HETATM   12  C21 UNL     1      25.794   0.870  53.370  1.00  0.00     0.073 A 
HETATM   13  C22 UNL     1      24.973   0.083  54.145  1.00  0.00     0.050 A 
HETATM   14  C23 UNL     1      23.675  -0.130  53.731  1.00  0.00     0.040 A 
ENDROOT
BRANCH   4  15
HETATM   15  C3  UNL     1      20.916   0.439  51.288  1.00  0.00     0.125 C 
BRANCH  15  16
HETATM   16  C4  UNL     1      19.599   0.954  51.738  1.00  0.00     0.050 C 
BRANCH  16  17
HETATM   17  C5  UNL     1      18.468  -0.017  51.336  1.00  0.00     0.274 C 
BRANCH  17  18
HETATM   18  N2  UNL     1      17.349   0.032  52.227  1.00  0.00     0.092 N 
HETATM   19  C6  UNL     1      16.397   0.970  51.663  1.00  0.00     0.298 C 
HETATM   20  C7  UNL     1      15.132   1.049  52.491  1.00  0.00     0.198 C 
HETATM   21  O2  UNL     1      14.763  -0.210  52.971  1.00  0.00    -0.388 OA
HETATM   22  C8  UNL     1      15.305  -1.215  52.170  1.00  0.00     0.198 C 
HETATM   23  C9  UNL     1      16.796  -1.303  52.339  1.00  0.00     0.298 C 
ENDBRANCH  17  18
ENDBRANCH  16  17
ENDBRANCH  15  16
ENDBRANCH   4  15
BRANCH   8  24
HETATM   24  N3  UNL     1      25.875   2.843  50.271  1.00  0.00    -0.340 N 
HETATM   25  H18 UNL     1      25.275   2.354  49.598  1.00  0.00     0.167 HD
BRANCH  24  26
HETATM   26  C14 UNL     1      26.169   4.145  49.797  1.00  0.00     0.035 A 
HETATM   27  C15 UNL     1      27.221   4.434  48.961  1.00  0.00     0.029 A 
HETATM   28  C16 UNL     1      27.559   5.666  48.460  1.00  0.00     0.004 A 
HETATM   29  C17 UNL     1      26.760   6.746  48.830  1.00  0.00     0.024 A 
HETATM   30  C18 UNL     1      25.684   6.542  49.667  1.00  0.00     0.036 A 
HETATM   31 CL1  UNL     1      24.640   7.852  50.169  1.00  0.00    -0.084 Cl
HETATM   32  C19 UNL     1      25.436   5.265  50.111  1.00  0.00     0.053 A 
ENDBRANCH  24  26
ENDBRANCH   8  24
TORSDOF 6
ENDMDL
MODEL 7
REMARK VINA RESULT:      -8.2      2.386      5.480
REMARK  6 active torsions:
REMARK  status: ('A' for Active; 'I' for Inactive)
REMARK    1  A    between atoms: N1_4  and  C3_5 
REMARK    2  A    between atoms: C3_5  and  C4_6 
REMARK    3  A    between atoms: C4_6  and  C5_7 
REMARK    4  A    between atoms: C5_7  and  N2_8 
REMARK    5  A    between atoms: C13_17  and  N3_18 
REMARK    6  A    between atoms: N3_18  and  C14_19 
ROOT
HETATM    1  O1  UNL     1      28.005  -0.200  55.220  1.00  0.00    -0.290 OA
HETATM    2  C1  UNL     1      27.284   0.230  54.303  1.00  0.00     0.179 A 
HETATM    3  C2  UNL     1      27.720   1.108  53.189  1.00  0.00     0.207 A 
HETATM    4  N1  UNL     1      26.488   1.241  52.395  1.00  0.00    -0.373 N 
HETATM    5  C10 UNL     1      25.451   0.547  53.039  1.00  0.00     0.045 A 
HETATM    6  C11 UNL     1      24.149   0.449  52.642  1.00  0.00     0.048 A 
HETATM    7  C12 UNL     1      23.194  -0.256  53.337  1.00  0.00     0.041 A 
HETATM    8  C13 UNL     1      21.851  -0.388  52.980  1.00  0.00     0.142 A 
HETATM    9  N4  UNL     1      21.110  -1.117  53.803  1.00  0.00    -0.224 NA
HETATM   10  C20 UNL     1      21.544  -1.713  54.913  1.00  0.00     0.236 A 
HETATM   11  N5  UNL     1      22.841  -1.593  55.271  1.00  0.00    -0.241 NA
HETATM   12  C21 UNL     1      23.648  -0.874  54.491  1.00  0.00     0.073 A 
HETATM   13  C22 UNL     1      24.950  -0.806  54.932  1.00  0.00     0.050 A 
HETATM   14  C23 UNL     1      25.864  -0.084  54.195  1.00  0.00     0.040 A 
ENDROOT
BRANCH   4  15
HETATM   15  C3  UNL     1      26.705   2.013  51.229  1.00  0.00     0.125 C 
BRANCH  15  16
HETATM   16  C4  UNL     1      25.696   3.036  50.857  1.00  0.00     0.050 C 
BRANCH  16  17
HETATM   17  C5  UNL     1      26.206   3.904  49.687  1.00  0.00     0.274 C 
BRANCH  17  18
HETATM   18  N2  UNL     1      25.245   4.873  49.253  1.00  0.00     0.092 N 
HETATM   19  C6  UNL     1      23.989   4.172  49.069  1.00  0.00     0.298 C 
HETATM   20  C7  UNL     1      22.874   5.119  48.677  1.00  0.00     0.198 C 
HETATM   21  O2  UNL     1      22.974   6.330  49.364  1.00  0.00    -0.388 OA
HETATM   22  C8  UNL     1      23.696   6.162  50.545  1.00  0.00     0.198 C 
HETATM   23  C9  UNL     1      25.150   5.906  50.265  1.00  0.00     0.298 C 
ENDBRANCH  17  18
ENDBRANCH  16  17
ENDBRANCH  15  16
ENDBRANCH   4  15
BRANCH   8  24
HETATM   24  N3  UNL     1      21.414   0.257  51.801  1.00  0.00    -0.340 N 
HETATM   25  H18 UNL     1      21.553  -0.144  50.867  1.00  0.00     0.167 HD
BRANCH  24  26
HETATM   26  C14 UNL     1      20.745   1.501  51.697  1.00  0.00     0.035 A 
HETATM   27  C15 UNL     1      21.389   2.715  51.672  1.00  0.00     0.029 A 
HETATM   28  C16 UNL     1      20.807   3.953  51.566  1.00  0.00     0.004 A 
HETATM   29  C17 UNL     1      19.417   3.998  51.473  1.00  0.00     0.024 A 
HETATM   30  C18 UNL     1      18.695   2.824  51.491  1.00  0.00     0.036 A 
HETATM   31 CL1  UNL     1      16.949   2.810  51.378  1.00  0.00    -0.084 Cl
HETATM   32  C19 UNL     1      19.380   1.638  51.601  1.00  0.00     0.053 A 
ENDBRANCH  24  26
ENDBRANCH   8  24
TORSDOF 6
ENDMDL
MODEL 8
REMARK VINA RESULT:      -8.2      4.493      8.322
REMARK  6 active torsions:
REMARK  status: ('A' for Active; 'I' for Inactive)
REMARK    1  A    between atoms: N1_4  and  C3_5 
REMARK    2  A    between atoms: C3_5  and  C4_6 
REMARK    3  A    between atoms: C4_6  and  C5_7 
REMARK    4  A    between atoms: C5_7  and  N2_8 
REMARK    5  A    between atoms: C13_17  and  N3_18 
REMARK    6  A    between atoms: N3_18  and  C14_19 
ROOT
HETATM    1  O1  UNL     1      23.941   7.692  49.065  1.00  0.00    -0.290 OA
HETATM    2  C1  UNL     1      24.759   6.758  49.137  1.00  0.00     0.179 A 
HETATM    3  C2  UNL     1      24.509   5.424  49.737  1.00  0.00     0.207 A 
HETATM    4  N1  UNL     1      25.781   4.727  49.492  1.00  0.00    -0.373 N 
HETATM    5  C10 UNL     1      26.673   5.611  48.865  1.00  0.00     0.045 A 
HETATM    6  C11 UNL     1      27.963   5.361  48.496  1.00  0.00     0.048 A 
HETATM    7  C12 UNL     1      28.772   6.291  47.882  1.00  0.00     0.041 A 
HETATM    8  C13 UNL     1      30.095   6.092  47.486  1.00  0.00     0.142 A 
HETATM    9  N4  UNL     1      30.682   7.132  46.912  1.00  0.00    -0.224 NA
HETATM   10  C20 UNL     1      30.115   8.319  46.694  1.00  0.00     0.236 A 
HETATM   11  N5  UNL     1      28.835   8.526  47.074  1.00  0.00    -0.241 NA
HETATM   12  C21 UNL     1      28.179   7.523  47.659  1.00  0.00     0.073 A 
HETATM   13  C22 UNL     1      26.883   7.823  48.011  1.00  0.00     0.050 A 
HETATM   14  C23 UNL     1      26.120   6.852  48.624  1.00  0.00     0.040 A 
ENDROOT
BRANCH   4  15
HETATM   15  C3  UNL     1      25.733   3.387  49.947  1.00  0.00     0.125 C 
BRANCH  15  16
HETATM   16  C4  UNL     1      26.810   2.906  50.849  1.00  0.00     0.050 C 
BRANCH  16  17
HETATM   17  C5  UNL     1      26.374   1.618  51.578  1.00  0.00     0.274 C 
BRANCH  17  18
HETATM   18  N2  UNL     1      26.760   1.600  52.957  1.00  0.00     0.092 N 
HETATM   19  C6  UNL     1      26.805   0.210  53.367  1.00  0.00     0.298 C 
HETATM   20  C7  UNL     1      27.275   0.065  54.799  1.00  0.00     0.198 C 
HETATM   21  O2  UNL     1      28.292   0.976  55.091  1.00  0.00    -0.388 OA
HETATM   22  C8  UNL     1      28.939   1.376  53.922  1.00  0.00     0.198 C 
HETATM   23  C9  UNL     1      28.052   2.245  53.077  1.00  0.00     0.298 C 
ENDBRANCH  17  18
ENDBRANCH  16  17
ENDBRANCH  15  16
ENDBRANCH   4  15
BRANCH   8  24
HETATM   24  N3  UNL     1      30.676   4.827  47.731  1.00  0.00    -0.340 N 
HETATM   25  H18 UNL     1      30.124   4.014  48.026  1.00  0.00     0.167 HD
BRANCH  24  26
HETATM   26  C14 UNL     1      32.042   4.470  47.623  1.00  0.00     0.035 A 
HETATM   27  C15 UNL     1      32.503   3.444  46.833  1.00  0.00     0.029 A 
HETATM   28  C16 UNL     1      33.807   3.049  46.675  1.00  0.00     0.004 A 
HETATM   29  C17 UNL     1      34.777   3.754  47.386  1.00  0.00     0.024 A 
HETATM   30  C18 UNL     1      34.399   4.798  48.203  1.00  0.00     0.036 A 
HETATM   31 CL1  UNL     1      35.563   5.724  49.121  1.00  0.00    -0.084 Cl
HETATM   32  C19 UNL     1      33.063   5.109  48.287  1.00  0.00     0.053 A 
ENDBRANCH  24  26
ENDBRANCH   8  24
TORSDOF 6
ENDMDL
MODEL 9
REMARK VINA RESULT:      -8.2      2.371      5.391
REMARK  6 active torsions:
REMARK  status: ('A' for Active; 'I' for Inactive)
REMARK    1  A    between atoms: N1_4  and  C3_5 
REMARK    2  A    between atoms: C3_5  and  C4_6 
REMARK    3  A    between atoms: C4_6  and  C5_7 
REMARK    4  A    between atoms: C5_7  and  N2_8 
REMARK    5  A    between atoms: C13_17  and  N3_18 
REMARK    6  A    between atoms: N3_18  and  C14_19 
ROOT
HETATM    1  O1  UNL     1      18.512  -0.984  53.218  1.00  0.00    -0.290 OA
HETATM    2  C1  UNL     1      19.687  -0.598  53.093  1.00  0.00     0.179 A 
HETATM    3  C2  UNL     1      20.808  -0.900  54.018  1.00  0.00     0.207 A 
HETATM    4  N1  UNL     1      21.947  -0.249  53.353  1.00  0.00    -0.373 N 
HETATM    5  C10 UNL     1      21.490   0.403  52.196  1.00  0.00     0.045 A 
HETATM    6  C11 UNL     1      22.227   1.145  51.319  1.00  0.00     0.048 A 
HETATM    7  C12 UNL     1      21.695   1.752  50.203  1.00  0.00     0.041 A 
HETATM    8  C13 UNL     1      22.398   2.521  49.275  1.00  0.00     0.142 A 
HETATM    9  N4  UNL     1      21.678   3.010  48.276  1.00  0.00    -0.224 NA
HETATM   10  C20 UNL     1      20.370   2.824  48.101  1.00  0.00     0.236 A 
HETATM   11  N5  UNL     1      19.676   2.082  48.992  1.00  0.00    -0.241 NA
HETATM   12  C21 UNL     1      20.335   1.557  50.026  1.00  0.00     0.073 A 
HETATM   13  C22 UNL     1      19.550   0.817  50.881  1.00  0.00     0.050 A 
HETATM   14  C23 UNL     1      20.137   0.233  51.982  1.00  0.00     0.040 A 
ENDROOT
BRANCH   4  15
HETATM   15  C3  UNL     1      23.154  -0.469  54.059  1.00  0.00     0.125 C 
BRANCH  15  16
HETATM   16  C4  UNL     1      24.418   0.057  53.486  1.00  0.00     0.050 C 
BRANCH  16  17
HETATM   17  C5  UNL     1      25.636  -0.489  54.261  1.00  0.00     0.274 C 
BRANCH  17  18
HETATM   18  N2  UNL     1      26.584   0.529  54.597  1.00  0.00     0.092 N 
HETATM   19  C6  UNL     1      27.902  -0.011  54.322  1.00  0.00     0.298 C 
HETATM   20  C7  UNL     1      28.989   1.013  54.575  1.00  0.00     0.198 C 
HETATM   21  O2  UNL     1      28.589   2.286  54.164  1.00  0.00    -0.388 OA
HETATM   22  C8  UNL     1      27.586   2.195  53.199  1.00  0.00     0.198 C 
HETATM   23  C9  UNL     1      26.298   1.702  53.796  1.00  0.00     0.298 C 
ENDBRANCH  17  18
ENDBRANCH  16  17
ENDBRANCH  15  16
ENDBRANCH   4  15
BRANCH   8  24
HETATM   24  N3  UNL     1      23.783   2.708  49.485  1.00  0.00    -0.340 N 
HETATM   25  H18 UNL     1      24.435   1.924  49.599  1.00  0.00     0.167 HD
BRANCH  24  26
HETATM   26  C14 UNL     1      24.484   3.935  49.572  1.00  0.00     0.035 A 
HETATM   27  C15 UNL     1      25.774   4.110  49.134  1.00  0.00     0.029 A 
HETATM   28  C16 UNL     1      26.509   5.268  49.180  1.00  0.00     0.004 A 
HETATM   29  C17 UNL     1      25.894   6.393  49.728  1.00  0.00     0.024 A 
HETATM   30  C18 UNL     1      24.599   6.302  50.193  1.00  0.00     0.036 A 
HETATM   31 CL1  UNL     1      23.768   7.673  50.890  1.00  0.00    -0.084 Cl
HETATM   32  C19 UNL     1      23.955   5.091  50.097  1.00  0.00     0.053 A 
ENDBRANCH  24  26
ENDBRANCH   8  24
TORSDOF 6
ENDMDL
