MODEL 1
REMARK VINA RESULT:      -7.7      0.000      0.000
REMARK  8 active torsions:
REMARK  status: ('A' for Active; 'I' for Inactive)
REMARK    1  A    between atoms: O1_2  and  C2_3 
REMARK    2  A    between atoms: C6_7  and  N1_8 
REMARK    3  A    between atoms: C7_9  and  C8_10 
REMARK    4  A    between atoms: C13_18  and  O2_19 
REMARK    5  A    between atoms: O2_19  and  C14_20 
REMARK    6  A    between atoms: C14_20  and  C15_21 
REMARK    7  A    between atoms: C15_21  and  C16_22 
REMARK    8  A    between atoms: C16_22  and  N4_23 
ROOT
HETATM    1  C2  UNL     1      24.729   4.308  51.259  1.00  0.00     0.124 C 
HETATM    2  C3  UNL     1      24.649   5.445  50.520  1.00  0.00     0.051 C 
HETATM    3  C4  UNL     1      24.544   5.185  48.959  1.00  0.00     0.102 C 
HETATM    4  C5  UNL     1      26.095   4.988  49.055  1.00  0.00    -0.002 C 
HETATM    5  C6  UNL     1      26.945   6.012  48.860  1.00  0.00     0.157 C 
HETATM    6  N2  UNL     1      26.451   7.404  49.137  1.00  0.00    -0.224 NA
HETATM    7  C11 UNL     1      25.804   7.670  50.318  1.00  0.00     0.209 C 
HETATM    8  N3  UNL     1      24.845   6.779  51.078  1.00  0.00    -0.351 N 
HETATM    9  C12 UNL     1      26.415   3.624  49.582  1.00  0.00     0.051 C 
HETATM   10  C13 UNL     1      25.714   3.285  50.721  1.00  0.00     0.104 C 
HETATM   11  H12 UNL     1      24.234   6.710  51.914  1.00  0.00     0.166 HD
ENDROOT
BRANCH  10  12
HETATM   12  O2  UNL     1      25.885   2.110  51.338  1.00  0.00    -0.348 OA
BRANCH  12  13
HETATM   13  C14 UNL     1      24.794   1.291  51.738  1.00  0.00     0.177 C 
BRANCH  13  14
HETATM   14  C15 UNL     1      25.123   0.593  53.025  1.00  0.00     0.046 C 
BRANCH  14  15
HETATM   15  C16 UNL     1      26.117  -0.507  52.941  1.00  0.00     0.119 C 
BRANCH  15  16
HETATM   16  N4  UNL     1      27.405  -0.304  53.411  1.00  0.00    -0.412 N 
HETATM   17  C17 UNL     1      28.447  -1.205  53.144  1.00  0.00     0.117 C 
HETATM   18  C18 UNL     1      29.686  -0.452  53.646  1.00  0.00     0.021 C 
HETATM   19  C19 UNL     1      29.169   0.836  54.269  1.00  0.00     0.021 C 
HETATM   20  C20 UNL     1      27.704   0.444  54.552  1.00  0.00     0.117 C 
ENDBRANCH  15  16
ENDBRANCH  14  15
ENDBRANCH  13  14
ENDBRANCH  12  13
ENDBRANCH  10  12
BRANCH   1  21
HETATM   21  O1  UNL     1      23.881   4.474  52.286  1.00  0.00    -0.351 OA
HETATM   22  C1  UNL     1      22.501   4.238  52.163  1.00  0.00     0.210 C 
ENDBRANCH   1  21
BRANCH   5  23
HETATM   23  N1  UNL     1      28.096   5.271  48.470  1.00  0.00    -0.241 NA
HETATM   24  C7  UNL     1      29.220   5.817  48.186  1.00  0.00     0.122 C 
BRANCH  24  25
HETATM   25  C8  UNL     1      30.410   5.084  47.784  1.00  0.00     0.056 C 
HETATM   26  C9  UNL     1      31.590   5.238  48.309  1.00  0.00     0.091 C 
HETATM   27  C10 UNL     1      32.184   6.067  49.361  1.00  0.00     0.082 C 
HETATM   28  F1  UNL     1      32.663   4.508  47.868  1.00  0.00    -0.211 F 
ENDBRANCH  24  25
ENDBRANCH   5  23
TORSDOF 8
ENDMDL
MODEL 2
REMARK VINA RESULT:      -7.7      3.843      8.541
REMARK  8 active torsions:
REMARK  status: ('A' for Active; 'I' for Inactive)
REMARK    1  A    between atoms: O1_2  and  C2_3 
REMARK    2  A    between atoms: C6_7  and  N1_8 
REMARK    3  A    between atoms: C7_9  and  C8_10 
REMARK    4  A    between atoms: C13_18  and  O2_19 
REMARK    5  A    between atoms: O2_19  and  C14_20 
REMARK    6  A    between atoms: C14_20  and  C15_21 
REMARK    7  A    between atoms: C15_21  and  C16_22 
REMARK    8  A    between atoms: C16_22  and  N4_23 
ROOT
HETATM    1  C2  UNL     1      26.418   1.863  53.533  1.00  0.00     0.124 C 
HETATM    2  C3  UNL     1      26.514   0.632  54.098  1.00  0.00     0.051 C 
HETATM    3  C4  UNL     1      26.343  -0.559  53.064  1.00  0.00     0.102 C 
HETATM    4  C5  UNL     1      24.814  -0.261  53.229  1.00  0.00    -0.002 C 
HETATM    5  C6  UNL     1      24.068  -0.906  54.144  1.00  0.00     0.157 C 
HETATM    6  N2  UNL     1      24.758  -1.443  55.366  1.00  0.00    -0.224 NA
HETATM    7  C11 UNL     1      25.608  -0.631  56.075  1.00  0.00     0.209 C 
HETATM    8  N3  UNL     1      26.564   0.413  55.540  1.00  0.00    -0.351 N 
HETATM    9  C12 UNL     1      24.423   0.927  52.408  1.00  0.00     0.051 C 
HETATM   10  C13 UNL     1      25.250   2.020  52.576  1.00  0.00     0.104 C 
HETATM   11  H12 UNL     1      27.286   1.113  55.797  1.00  0.00     0.166 HD
ENDROOT
BRANCH  10  12
HETATM   12  O2  UNL     1      25.042   3.175  51.933  1.00  0.00    -0.348 OA
BRANCH  12  13
HETATM   13  C14 UNL     1      23.893   3.404  51.128  1.00  0.00     0.177 C 
BRANCH  13  14
HETATM   14  C15 UNL     1      24.292   3.501  49.684  1.00  0.00     0.046 C 
BRANCH  14  15
HETATM   15  C16 UNL     1      24.584   4.863  49.172  1.00  0.00     0.119 C 
BRANCH  15  16
HETATM   16  N4  UNL     1      25.898   5.251  48.962  1.00  0.00    -0.412 N 
HETATM   17  C17 UNL     1      26.966   4.345  49.055  1.00  0.00     0.117 C 
HETATM   18  C18 UNL     1      28.150   5.160  48.517  1.00  0.00     0.021 C 
HETATM   19  C19 UNL     1      27.611   6.556  48.250  1.00  0.00     0.021 C 
HETATM   20  C20 UNL     1      26.361   6.554  49.155  1.00  0.00     0.117 C 
ENDBRANCH  15  16
ENDBRANCH  14  15
ENDBRANCH  13  14
ENDBRANCH  12  13
ENDBRANCH  10  12
BRANCH   1  21
HETATM   21  O1  UNL     1      27.430   2.583  54.042  1.00  0.00    -0.351 OA
HETATM   22  C1  UNL     1      28.749   2.460  53.571  1.00  0.00     0.210 C 
ENDBRANCH   1  21
BRANCH   5  23
HETATM   23  N1  UNL     1      22.792  -0.762  53.530  1.00  0.00    -0.241 NA
HETATM   24  C7  UNL     1      21.687  -0.924  54.159  1.00  0.00     0.122 C 
BRANCH  24  25
HETATM   25  C8  UNL     1      20.371  -0.784  53.556  1.00  0.00     0.056 C 
HETATM   26  C9  UNL     1      19.920   0.302  53.002  1.00  0.00     0.091 C 
HETATM   27  C10 UNL     1      20.421   1.658  52.760  1.00  0.00     0.082 C 
HETATM   28  F1  UNL     1      18.662   0.351  52.460  1.00  0.00    -0.211 F 
ENDBRANCH  24  25
ENDBRANCH   5  23
TORSDOF 8
ENDMDL
MODEL 3
REMARK VINA RESULT:      -7.6      3.873      8.167
REMARK  8 active torsions:
REMARK  status: ('A' for Active; 'I' for Inactive)
REMARK    1  A    between atoms: O1_2  and  C2_3 
REMARK    2  A    between atoms: C6_7  and  N1_8 
REMARK    3  A    between atoms: C7_9  and  C8_10 
REMARK    4  A    between atoms: C13_18  and  O2_19 
REMARK    5  A    between atoms: O2_19  and  C14_20 
REMARK    6  A    between atoms: C14_20  and  C15_21 
REMARK    7  A    between atoms: C15_21  and  C16_22 
REMARK    8  A    between atoms: C16_22  and  N4_23 
ROOT
HETATM    1  C2  UNL     1      27.560   1.199  52.724  1.00  0.00     0.124 C 
HETATM    2  C3  UNL     1      27.190   0.068  53.378  1.00  0.00     0.051 C 
HETATM    3  C4  UNL     1      26.417  -0.974  52.464  1.00  0.00     0.102 C 
HETATM    4  C5  UNL     1      25.186  -0.044  52.735  1.00  0.00    -0.002 C 
HETATM    5  C6  UNL     1      24.346  -0.273  53.761  1.00  0.00     0.157 C 
HETATM    6  N2  UNL     1      24.879  -1.007  54.959  1.00  0.00    -0.224 NA
HETATM    7  C11 UNL     1      26.066  -0.611  55.523  1.00  0.00     0.209 C 
HETATM    8  N3  UNL     1      27.306  -0.097  54.823  1.00  0.00    -0.351 N 
HETATM    9  C12 UNL     1      25.243   1.165  51.855  1.00  0.00     0.051 C 
HETATM   10  C13 UNL     1      26.466   1.805  51.862  1.00  0.00     0.104 C 
HETATM   11  H12 UNL     1      28.280   0.236  54.959  1.00  0.00     0.166 HD
ENDROOT
BRANCH  10  12
HETATM   12  O2  UNL     1      26.694   2.912  51.147  1.00  0.00    -0.348 OA
BRANCH  12  13
HETATM   13  C14 UNL     1      26.396   3.000  49.759  1.00  0.00     0.177 C 
BRANCH  13  14
HETATM   14  C15 UNL     1      25.806   4.344  49.447  1.00  0.00     0.046 C 
BRANCH  14  15
HETATM   15  C16 UNL     1      25.109   5.032  50.563  1.00  0.00     0.119 C 
BRANCH  15  16
HETATM   16  N4  UNL     1      23.825   4.644  50.913  1.00  0.00    -0.412 N 
HETATM   17  C17 UNL     1      23.482   4.299  52.229  1.00  0.00     0.117 C 
HETATM   18  C18 UNL     1      21.953   4.186  52.165  1.00  0.00     0.021 C 
HETATM   19  C19 UNL     1      21.579   4.402  50.706  1.00  0.00     0.021 C 
HETATM   20  C20 UNL     1      22.920   4.069  50.019  1.00  0.00     0.117 C 
ENDBRANCH  15  16
ENDBRANCH  14  15
ENDBRANCH  13  14
ENDBRANCH  12  13
ENDBRANCH  10  12
BRANCH   1  21
HETATM   21  O1  UNL     1      28.831   1.435  53.083  1.00  0.00    -0.351 OA
HETATM   22  C1  UNL     1      29.199   2.564  53.837  1.00  0.00     0.210 C 
ENDBRANCH   1  21
BRANCH   5  23
HETATM   23  N1  UNL     1      23.190   0.380  53.249  1.00  0.00    -0.241 NA
HETATM   24  C7  UNL     1      22.056  -0.201  53.116  1.00  0.00     0.122 C 
BRANCH  24  25
HETATM   25  C8  UNL     1      20.860   0.442  52.596  1.00  0.00     0.056 C 
HETATM   26  C9  UNL     1      20.674   0.772  51.352  1.00  0.00     0.091 C 
HETATM   27  C10 UNL     1      21.436   0.678  50.104  1.00  0.00     0.082 C 
HETATM   28  F1  UNL     1      19.516   1.381  50.945  1.00  0.00    -0.211 F 
ENDBRANCH  24  25
ENDBRANCH   5  23
TORSDOF 8
ENDMDL
MODEL 4
REMARK VINA RESULT:      -7.5      1.458      2.397
REMARK  8 active torsions:
REMARK  status: ('A' for Active; 'I' for Inactive)
REMARK    1  A    between atoms: O1_2  and  C2_3 
REMARK    2  A    between atoms: C6_7  and  N1_8 
REMARK    3  A    between atoms: C7_9  and  C8_10 
REMARK    4  A    between atoms: C13_18  and  O2_19 
REMARK    5  A    between atoms: O2_19  and  C14_20 
REMARK    6  A    between atoms: C14_20  and  C15_21 
REMARK    7  A    between atoms: C15_21  and  C16_22 
REMARK    8  A    between atoms: C16_22  and  N4_23 
ROOT
HETATM    1  C2  UNL     1      24.824   3.463  51.427  1.00  0.00     0.124 C 
HETATM    2  C3  UNL     1      24.501   4.584  50.733  1.00  0.00     0.051 C 
HETATM    3  C4  UNL     1      24.373   4.352  49.169  1.00  0.00     0.102 C 
HETATM    4  C5  UNL     1      25.937   4.444  49.195  1.00  0.00    -0.002 C 
HETATM    5  C6  UNL     1      26.573   5.613  49.001  1.00  0.00     0.157 C 
HETATM    6  N2  UNL     1      25.844   6.881  49.347  1.00  0.00    -0.224 NA
HETATM    7  C11 UNL     1      25.215   6.990  50.562  1.00  0.00     0.209 C 
HETATM    8  N3  UNL     1      24.473   5.916  51.328  1.00  0.00    -0.351 N 
HETATM    9  C12 UNL     1      26.527   3.150  49.659  1.00  0.00     0.051 C 
HETATM   10  C13 UNL     1      25.955   2.655  50.814  1.00  0.00     0.104 C 
HETATM   11  H12 UNL     1      23.925   5.711  52.186  1.00  0.00     0.166 HD
ENDROOT
BRANCH  10  12
HETATM   12  O2  UNL     1      26.368   1.517  51.381  1.00  0.00    -0.348 OA
BRANCH  12  13
HETATM   13  C14 UNL     1      27.150   1.495  52.569  1.00  0.00     0.177 C 
BRANCH  13  14
HETATM   14  C15 UNL     1      27.105   0.127  53.185  1.00  0.00     0.046 C 
BRANCH  14  15
HETATM   15  C16 UNL     1      26.373   0.009  54.471  1.00  0.00     0.119 C 
BRANCH  15  16
HETATM   16  N4  UNL     1      25.057  -0.429  54.474  1.00  0.00    -0.412 N 
HETATM   17  C17 UNL     1      24.539  -1.228  55.504  1.00  0.00     0.117 C 
HETATM   18  C18 UNL     1      23.036  -1.245  55.198  1.00  0.00     0.021 C 
HETATM   19  C19 UNL     1      22.865  -0.484  53.892  1.00  0.00     0.021 C 
HETATM   20  C20 UNL     1      24.293  -0.590  53.316  1.00  0.00     0.117 C 
ENDBRANCH  15  16
ENDBRANCH  14  15
ENDBRANCH  13  14
ENDBRANCH  12  13
ENDBRANCH  10  12
BRANCH   1  21
HETATM   21  O1  UNL     1      24.009   3.440  52.493  1.00  0.00    -0.351 OA
HETATM   22  C1  UNL     1      22.705   2.917  52.428  1.00  0.00     0.210 C 
ENDBRANCH   1  21
BRANCH   5  23
HETATM   23  N1  UNL     1      27.821   5.110  48.539  1.00  0.00    -0.241 NA
HETATM   24  C7  UNL     1      28.840   5.855  48.313  1.00  0.00     0.122 C 
BRANCH  24  25
HETATM   25  C8  UNL     1      30.125   5.368  47.840  1.00  0.00     0.056 C 
HETATM   26  C9  UNL     1      31.276   5.682  48.358  1.00  0.00     0.091 C 
HETATM   27  C10 UNL     1      31.749   6.522  49.462  1.00  0.00     0.082 C 
HETATM   28  F1  UNL     1      32.444   5.181  47.847  1.00  0.00    -0.211 F 
ENDBRANCH  24  25
ENDBRANCH   5  23
TORSDOF 8
ENDMDL
MODEL 5
REMARK VINA RESULT:      -7.3      3.037      4.577
REMARK  8 active torsions:
REMARK  status: ('A' for Active; 'I' for Inactive)
REMARK    1  A    between atoms: O1_2  and  C2_3 
REMARK    2  A    between atoms: C6_7  and  N1_8 
REMARK    3  A    between atoms: C7_9  and  C8_10 
REMARK    4  A    between atoms: C13_18  and  O2_19 
REMARK    5  A    between atoms: O2_19  and  C14_20 
REMARK    6  A    between atoms: C14_20  and  C15_21 
REMARK    7  A    between atoms: C15_21  and  C16_22 
REMARK    8  A    between atoms: C16_22  and  N4_23 
ROOT
HETATM    1  C2  UNL     1      21.612   1.265  52.533  1.00  0.00     0.124 C 
HETATM    2  C3  UNL     1      20.834   1.659  51.492  1.00  0.00     0.051 C 
HETATM    3  C4  UNL     1      21.237   0.996  50.108  1.00  0.00     0.102 C 
HETATM    4  C5  UNL     1      22.352   2.097  50.095  1.00  0.00    -0.002 C 
HETATM    5  C6  UNL     1      22.155   3.288  49.504  1.00  0.00     0.157 C 
HETATM    6  N2  UNL     1      20.745   3.794  49.387  1.00  0.00    -0.224 NA
HETATM    7  C11 UNL     1      19.927   3.780  50.489  1.00  0.00     0.209 C 
HETATM    8  N3  UNL     1      19.856   2.738  51.585  1.00  0.00    -0.351 N 
HETATM    9  C12 UNL     1      23.490   1.695  50.981  1.00  0.00     0.051 C 
HETATM   10  C13 UNL     1      23.101   1.276  52.237  1.00  0.00     0.104 C 
HETATM   11  H12 UNL     1      19.374   2.460  52.461  1.00  0.00     0.166 HD
ENDROOT
BRANCH  10  12
HETATM   12  O2  UNL     1      23.986   0.895  53.165  1.00  0.00    -0.348 OA
BRANCH  12  13
HETATM   13  C14 UNL     1      23.907  -0.362  53.825  1.00  0.00     0.177 C 
BRANCH  13  14
HETATM   14  C15 UNL     1      25.262  -0.755  54.338  1.00  0.00     0.046 C 
BRANCH  14  15
HETATM   15  C16 UNL     1      26.307   0.299  54.311  1.00  0.00     0.119 C 
BRANCH  15  16
HETATM   16  N4  UNL     1      27.594  -0.021  53.909  1.00  0.00    -0.412 N 
HETATM   17  C17 UNL     1      28.624   0.931  53.875  1.00  0.00     0.117 C 
HETATM   18  C18 UNL     1      29.871   0.075  53.611  1.00  0.00     0.021 C 
HETATM   19  C19 UNL     1      29.369  -1.347  53.419  1.00  0.00     0.021 C 
HETATM   20  C20 UNL     1      27.895  -1.079  53.048  1.00  0.00     0.117 C 
ENDBRANCH  15  16
ENDBRANCH  14  15
ENDBRANCH  13  14
ENDBRANCH  12  13
ENDBRANCH  10  12
BRANCH   1  21
HETATM   21  O1  UNL     1      20.769   0.995  53.542  1.00  0.00    -0.351 OA
HETATM   22  C1  UNL     1      20.120  -0.247  53.665  1.00  0.00     0.210 C 
ENDBRANCH   1  21
BRANCH   5  23
HETATM   23  N1  UNL     1      23.510   3.632  49.242  1.00  0.00    -0.241 NA
HETATM   24  C7  UNL     1      23.958   4.830  49.310  1.00  0.00     0.122 C 
BRANCH  24  25
HETATM   25  C8  UNL     1      25.338   5.209  49.047  1.00  0.00     0.056 C 
HETATM   26  C9  UNL     1      26.370   4.444  49.251  1.00  0.00     0.091 C 
HETATM   27  C10 UNL     1      26.603   3.086  49.751  1.00  0.00     0.082 C 
HETATM   28  F1  UNL     1      27.640   4.881  48.980  1.00  0.00    -0.211 F 
ENDBRANCH  24  25
ENDBRANCH   5  23
TORSDOF 8
ENDMDL
MODEL 6
REMARK VINA RESULT:      -7.2      2.980      7.111
REMARK  8 active torsions:
REMARK  status: ('A' for Active; 'I' for Inactive)
REMARK    1  A    between atoms: O1_2  and  C2_3 
REMARK    2  A    between atoms: C6_7  and  N1_8 
REMARK    3  A    between atoms: C7_9  and  C8_10 
REMARK    4  A    between atoms: C13_18  and  O2_19 
REMARK    5  A    between atoms: O2_19  and  C14_20 
REMARK    6  A    between atoms: C14_20  and  C15_21 
REMARK    7  A    between atoms: C15_21  and  C16_22 
REMARK    8  A    between atoms: C16_22  and  N4_23 
ROOT
HETATM    1  C2  UNL     1      23.550   2.453  50.560  1.00  0.00     0.124 C 
HETATM    2  C3  UNL     1      23.117   1.938  51.740  1.00  0.00     0.051 C 
HETATM    3  C4  UNL     1      23.726   2.662  53.014  1.00  0.00     0.102 C 
HETATM    4  C5  UNL     1      24.974   1.761  52.723  1.00  0.00    -0.002 C 
HETATM    5  C6  UNL     1      25.117   0.554  53.300  1.00  0.00     0.157 C 
HETATM    6  N2  UNL     1      23.876  -0.177  53.727  1.00  0.00    -0.224 NA
HETATM    7  C11 UNL     1      22.828  -0.301  52.849  1.00  0.00     0.209 C 
HETATM    8  N3  UNL     1      22.331   0.713  51.841  1.00  0.00    -0.351 N 
HETATM    9  C12 UNL     1      25.788   2.342  51.610  1.00  0.00     0.051 C 
HETATM   10  C13 UNL     1      25.049   2.688  50.497  1.00  0.00     0.104 C 
HETATM   11  H12 UNL     1      21.617   0.905  51.113  1.00  0.00     0.166 HD
ENDROOT
BRANCH  10  12
HETATM   12  O2  UNL     1      25.614   3.207  49.401  1.00  0.00    -0.348 OA
BRANCH  12  13
HETATM   13  C14 UNL     1      26.597   4.232  49.461  1.00  0.00     0.177 C 
BRANCH  13  14
HETATM   14  C15 UNL     1      25.937   5.578  49.383  1.00  0.00     0.046 C 
BRANCH  14  15
HETATM   15  C16 UNL     1      24.570   5.608  48.805  1.00  0.00     0.119 C 
BRANCH  15  16
HETATM   16  N4  UNL     1      23.489   5.918  49.615  1.00  0.00    -0.412 N 
HETATM   17  C17 UNL     1      22.366   6.604  49.131  1.00  0.00     0.117 C 
HETATM   18  C18 UNL     1      21.372   6.496  50.295  1.00  0.00     0.021 C 
HETATM   19  C19 UNL     1      22.119   5.797  51.420  1.00  0.00     0.021 C 
HETATM   20  C20 UNL     1      23.579   6.070  51.001  1.00  0.00     0.117 C 
ENDBRANCH  15  16
ENDBRANCH  14  15
ENDBRANCH  13  14
ENDBRANCH  12  13
ENDBRANCH  10  12
BRANCH   1  21
HETATM   21  O1  UNL     1      22.459   2.577  49.789  1.00  0.00    -0.351 OA
HETATM   22  C1  UNL     1      22.466   2.244  48.423  1.00  0.00     0.210 C 
ENDBRANCH   1  21
BRANCH   5  23
HETATM   23  N1  UNL     1      26.534   0.440  53.223  1.00  0.00    -0.241 NA
HETATM   24  C7  UNL     1      27.277   0.202  54.239  1.00  0.00     0.122 C 
BRANCH  24  25
HETATM   25  C8  UNL     1      28.725   0.081  54.188  1.00  0.00     0.056 C 
HETATM   26  C9  UNL     1      29.369  -0.962  53.755  1.00  0.00     0.091 C 
HETATM   27  C10 UNL     1      29.017  -2.276  53.210  1.00  0.00     0.082 C 
HETATM   28  F1  UNL     1      30.739  -0.996  53.744  1.00  0.00    -0.211 F 
ENDBRANCH  24  25
ENDBRANCH   5  23
TORSDOF 8
ENDMDL
MODEL 7
REMARK VINA RESULT:      -7.1      2.647      6.964
REMARK  8 active torsions:
REMARK  status: ('A' for Active; 'I' for Inactive)
REMARK    1  A    between atoms: O1_2  and  C2_3 
REMARK    2  A    between atoms: C6_7  and  N1_8 
REMARK    3  A    between atoms: C7_9  and  C8_10 
REMARK    4  A    between atoms: C13_18  and  O2_19 
REMARK    5  A    between atoms: O2_19  and  C14_20 
REMARK    6  A    between atoms: C14_20  and  C15_21 
REMARK    7  A    between atoms: C15_21  and  C16_22 
REMARK    8  A    between atoms: C16_22  and  N4_23 
ROOT
HETATM    1  C2  UNL     1      23.841   3.523  50.436  1.00  0.00     0.124 C 
HETATM    2  C3  UNL     1      23.259   2.961  51.526  1.00  0.00     0.051 C 
HETATM    3  C4  UNL     1      24.090   3.154  52.864  1.00  0.00     0.102 C 
HETATM    4  C5  UNL     1      24.936   1.956  52.314  1.00  0.00    -0.002 C 
HETATM    5  C6  UNL     1      24.646   0.684  52.641  1.00  0.00     0.157 C 
HETATM    6  N2  UNL     1      23.228   0.357  53.014  1.00  0.00    -0.224 NA
HETATM    7  C11 UNL     1      22.200   0.784  52.211  1.00  0.00     0.209 C 
HETATM    8  N3  UNL     1      22.091   2.090  51.453  1.00  0.00    -0.351 N 
HETATM    9  C12 UNL     1      25.899   2.434  51.273  1.00  0.00     0.051 C 
HETATM   10  C13 UNL     1      25.326   3.233  50.304  1.00  0.00     0.104 C 
HETATM   11  H12 UNL     1      21.487   2.661  50.831  1.00  0.00     0.166 HD
ENDROOT
BRANCH  10  12
HETATM   12  O2  UNL     1      26.033   3.736  49.287  1.00  0.00    -0.348 OA
BRANCH  12  13
HETATM   13  C14 UNL     1      26.514   5.074  49.278  1.00  0.00     0.177 C 
BRANCH  13  14
HETATM   14  C15 UNL     1      27.832   5.139  48.564  1.00  0.00     0.046 C 
BRANCH  14  15
HETATM   15  C16 UNL     1      28.180   6.442  47.942  1.00  0.00     0.119 C 
BRANCH  15  16
HETATM   16  N4  UNL     1      29.312   7.122  48.362  1.00  0.00    -0.412 N 
HETATM   17  C17 UNL     1      29.280   8.481  48.709  1.00  0.00     0.117 C 
HETATM   18  C18 UNL     1      30.668   8.709  49.322  1.00  0.00     0.021 C 
HETATM   19  C19 UNL     1      31.418   7.396  49.161  1.00  0.00     0.021 C 
HETATM   20  C20 UNL     1      30.613   6.751  48.013  1.00  0.00     0.117 C 
ENDBRANCH  15  16
ENDBRANCH  14  15
ENDBRANCH  13  14
ENDBRANCH  12  13
ENDBRANCH  10  12
BRANCH   1  21
HETATM   21  O1  UNL     1      22.861   4.171  49.787  1.00  0.00    -0.351 OA
HETATM   22  C1  UNL     1      22.786   5.574  49.753  1.00  0.00     0.210 C 
ENDBRANCH   1  21
BRANCH   5  23
HETATM   23  N1  UNL     1      25.930   0.105  52.436  1.00  0.00    -0.241 NA
HETATM   24  C7  UNL     1      26.477  -0.704  53.265  1.00  0.00     0.122 C 
BRANCH  24  25
HETATM   25  C8  UNL     1      27.787  -1.309  53.080  1.00  0.00     0.056 C 
HETATM   26  C9  UNL     1      28.915  -0.752  53.410  1.00  0.00     0.091 C 
HETATM   27  C10 UNL     1      29.338   0.515  54.012  1.00  0.00     0.082 C 
HETATM   28  F1  UNL     1      30.109  -1.391  53.197  1.00  0.00    -0.211 F 
ENDBRANCH  24  25
ENDBRANCH   5  23
TORSDOF 8
ENDMDL
MODEL 8
REMARK VINA RESULT:      -7.1      3.158      6.328
REMARK  8 active torsions:
REMARK  status: ('A' for Active; 'I' for Inactive)
REMARK    1  A    between atoms: O1_2  and  C2_3 
REMARK    2  A    between atoms: C6_7  and  N1_8 
REMARK    3  A    between atoms: C7_9  and  C8_10 
REMARK    4  A    between atoms: C13_18  and  O2_19 
REMARK    5  A    between atoms: O2_19  and  C14_20 
REMARK    6  A    between atoms: C14_20  and  C15_21 
REMARK    7  A    between atoms: C15_21  and  C16_22 
REMARK    8  A    between atoms: C16_22  and  N4_23 
ROOT
HETATM    1  C2  UNL     1      23.431   0.122  53.247  1.00  0.00     0.124 C 
HETATM    2  C3  UNL     1      24.771   0.122  53.464  1.00  0.00     0.051 C 
HETATM    3  C4  UNL     1      25.298   1.426  54.199  1.00  0.00     0.102 C 
HETATM    4  C5  UNL     1      25.217   2.062  52.769  1.00  0.00    -0.002 C 
HETATM    5  C6  UNL     1      26.277   2.061  51.940  1.00  0.00     0.157 C 
HETATM    6  N2  UNL     1      27.306   0.980  52.111  1.00  0.00    -0.224 NA
HETATM    7  C11 UNL     1      26.904  -0.329  52.209  1.00  0.00     0.209 C 
HETATM    8  N3  UNL     1      25.675  -0.876  52.903  1.00  0.00    -0.351 N 
HETATM    9  C12 UNL     1      23.805   2.432  52.443  1.00  0.00     0.051 C 
HETATM   10  C13 UNL     1      22.892   1.426  52.684  1.00  0.00     0.104 C 
HETATM   11  H12 UNL     1      25.152  -1.740  53.145  1.00  0.00     0.166 HD
ENDROOT
BRANCH  10  12
HETATM   12  O2  UNL     1      21.586   1.575  52.436  1.00  0.00    -0.348 OA
BRANCH  12  13
HETATM   13  C14 UNL     1      20.812   0.575  51.786  1.00  0.00     0.177 C 
BRANCH  13  14
HETATM   14  C15 UNL     1      19.615   1.200  51.131  1.00  0.00     0.046 C 
BRANCH  14  15
HETATM   15  C16 UNL     1      19.784   1.623  49.718  1.00  0.00     0.119 C 
BRANCH  15  16
HETATM   16  N4  UNL     1      20.928   2.307  49.339  1.00  0.00    -0.412 N 
HETATM   17  C17 UNL     1      21.087   3.682  49.570  1.00  0.00     0.117 C 
HETATM   18  C18 UNL     1      22.560   3.920  49.212  1.00  0.00     0.021 C 
HETATM   19  C19 UNL     1      23.085   2.590  48.693  1.00  0.00     0.021 C 
HETATM   20  C20 UNL     1      21.762   1.902  48.295  1.00  0.00     0.117 C 
ENDBRANCH  15  16
ENDBRANCH  14  15
ENDBRANCH  13  14
ENDBRANCH  12  13
ENDBRANCH  10  12
BRANCH   1  21
HETATM   21  O1  UNL     1      22.998  -1.098  53.603  1.00  0.00    -0.351 OA
HETATM   22  C1  UNL     1      22.256  -1.316  54.777  1.00  0.00     0.210 C 
ENDBRANCH   1  21
BRANCH   5  23
HETATM   23  N1  UNL     1      25.926   3.179  51.134  1.00  0.00    -0.241 NA
HETATM   24  C7  UNL     1      26.577   3.522  50.084  1.00  0.00     0.122 C 
BRANCH  24  25
HETATM   25  C8  UNL     1      26.241   4.659  49.243  1.00  0.00     0.056 C 
HETATM   26  C9  UNL     1      27.104   5.384  48.594  1.00  0.00     0.091 C 
HETATM   27  C10 UNL     1      28.560   5.406  48.426  1.00  0.00     0.082 C 
HETATM   28  F1  UNL     1      26.702   6.444  47.824  1.00  0.00    -0.211 F 
ENDBRANCH  24  25
ENDBRANCH   5  23
TORSDOF 8
ENDMDL
MODEL 9
REMARK VINA RESULT:      -7.1      4.512      6.979
REMARK  8 active torsions:
REMARK  status: ('A' for Active; 'I' for Inactive)
REMARK    1  A    between atoms: O1_2  and  C2_3 
REMARK    2  A    between atoms: C6_7  and  N1_8 
REMARK    3  A    between atoms: C7_9  and  C8_10 
REMARK    4  A    between atoms: C13_18  and  O2_19 
REMARK    5  A    between atoms: O2_19  and  C14_20 
REMARK    6  A    between atoms: C14_20  and  C15_21 
REMARK    7  A    between atoms: C15_21  and  C16_22 
REMARK    8  A    between atoms: C16_22  and  N4_23 
ROOT
HETATM    1  C2  UNL     1      22.623   3.845  50.046  1.00  0.00     0.124 C 
HETATM    2  C3  UNL     1      21.273   3.700  50.028  1.00  0.00     0.051 C 
HETATM    3  C4  UNL     1      20.547   4.323  51.294  1.00  0.00     0.102 C 
HETATM    4  C5  UNL     1      20.991   2.994  51.994  1.00  0.00    -0.002 C 
HETATM    5  C6  UNL     1      20.188   1.915  52.025  1.00  0.00     0.157 C 
HETATM    6  N2  UNL     1      19.169   1.762  50.931  1.00  0.00    -0.224 NA
HETATM    7  C11 UNL     1      19.555   1.908  49.622  1.00  0.00     0.209 C 
HETATM    8  N3  UNL     1      20.567   2.878  49.050  1.00  0.00    -0.351 N 
HETATM    9  C12 UNL     1      22.433   3.069  52.388  1.00  0.00     0.051 C 
HETATM   10  C13 UNL     1      23.268   3.500  51.377  1.00  0.00     0.104 C 
HETATM   11  H12 UNL     1      21.023   3.214  48.180  1.00  0.00     0.166 HD
ENDROOT
BRANCH  10  12
HETATM   12  O2  UNL     1      24.590   3.612  51.546  1.00  0.00    -0.348 OA
BRANCH  12  13
HETATM   13  C14 UNL     1      25.523   2.838  50.803  1.00  0.00     0.177 C 
BRANCH  13  14
HETATM   14  C15 UNL     1      26.051   1.720  51.653  1.00  0.00     0.046 C 
BRANCH  14  15
HETATM   15  C16 UNL     1      27.278   2.012  52.436  1.00  0.00     0.119 C 
BRANCH  15  16
HETATM   16  N4  UNL     1      28.038   0.965  52.936  1.00  0.00    -0.412 N 
HETATM   17  C17 UNL     1      27.573  -0.358  52.941  1.00  0.00     0.117 C 
HETATM   18  C18 UNL     1      28.819  -1.156  53.349  1.00  0.00     0.021 C 
HETATM   19  C19 UNL     1      29.899  -0.125  53.641  1.00  0.00     0.021 C 
HETATM   20  C20 UNL     1      29.032   1.124  53.905  1.00  0.00     0.117 C 
ENDBRANCH  15  16
ENDBRANCH  14  15
ENDBRANCH  13  14
ENDBRANCH  12  13
ENDBRANCH  10  12
BRANCH   1  21
HETATM   21  O1  UNL     1      22.968   4.251  48.814  1.00  0.00    -0.351 OA
HETATM   22  C1  UNL     1      23.706   5.426  48.592  1.00  0.00     0.210 C 
ENDBRANCH   1  21
BRANCH   5  23
HETATM   23  N1  UNL     1      20.719   1.277  53.181  1.00  0.00    -0.241 NA
HETATM   24  C7  UNL     1      20.779   0.005  53.317  1.00  0.00     0.122 C 
BRANCH  24  25
HETATM   25  C8  UNL     1      21.316  -0.673  54.486  1.00  0.00     0.056 C 
HETATM   26  C9  UNL     1      22.578  -0.902  54.698  1.00  0.00     0.091 C 
HETATM   27  C10 UNL     1      23.837  -0.642  53.994  1.00  0.00     0.082 C 
HETATM   28  F1  UNL     1      23.001  -1.553  55.828  1.00  0.00    -0.211 F 
ENDBRANCH  24  25
ENDBRANCH   5  23
TORSDOF 8
ENDMDL
