MODEL 1
REMARK VINA RESULT:      -8.9      0.000      0.000
REMARK  4 active torsions:
REMARK  status: ('A' for Active; 'I' for Inactive)
REMARK    1  A    between atoms: C2_2  and  C3_3 
REMARK       I    between atoms: C3_3  and  N1_5 
REMARK    2  A    between atoms: N1_5  and  C4_6 
REMARK    3  A    between atoms: C11_15  and  N4_16 
REMARK    4  A    between atoms: N4_16  and  C12_17 
ROOT
HETATM    1  C4  UNL     1      24.348   1.924  51.616  1.00  0.00     0.035 A 
HETATM    2  C5  UNL     1      23.130   1.323  51.675  1.00  0.00     0.030 A 
HETATM    3  C6  UNL     1      22.732   0.394  52.603  1.00  0.00     0.016 A 
HETATM    4  C7  UNL     1      23.660   0.026  53.585  1.00  0.00     0.000 A 
HETATM    5  C8  UNL     1      23.278  -0.913  54.535  1.00  0.00     0.073 A 
HETATM    6  C9  UNL     1      21.968  -1.498  54.523  1.00  0.00     0.102 C 
HETATM    7  N2  UNL     1      20.893  -1.961  54.510  1.00  0.00    -0.191 NA
HETATM    8  C10 UNL     1      24.235  -1.219  55.456  1.00  0.00     0.142 A 
HETATM    9  N3  UNL     1      25.443  -0.635  55.411  1.00  0.00    -0.241 NA
HETATM   10  C11 UNL     1      25.835   0.273  54.506  1.00  0.00     0.138 A 
HETATM   11  C17 UNL     1      24.916   0.627  53.548  1.00  0.00     0.024 A 
HETATM   12  C18 UNL     1      25.236   1.546  52.588  1.00  0.00     0.045 A 
ENDROOT
BRANCH  10  13
HETATM   13  N4  UNL     1      27.147   0.810  54.580  1.00  0.00    -0.342 N 
HETATM   14  H10 UNL     1      27.403   1.747  54.950  1.00  0.00     0.167 HD
BRANCH  13  15
HETATM   15  C12 UNL     1      28.221   0.000  54.107  1.00  0.00     0.029 A 
HETATM   16  C13 UNL     1      29.478   0.445  53.924  1.00  0.00     0.026 A 
HETATM   17  C14 UNL     1      30.371  -0.591  53.433  1.00  0.00    -0.001 A 
HETATM   18  C15 UNL     1      29.610  -1.665  53.329  1.00  0.00    -0.005 A 
HETATM   19  C16 UNL     1      28.196  -1.444  53.729  1.00  0.00     0.130 A 
HETATM   20 BR1  UNL     1      26.968  -1.834  52.306  1.00  0.00    -0.080 Br
ENDBRANCH  13  15
ENDBRANCH  10  13
BRANCH   1  21
HETATM   21  N1  UNL     1      24.759   2.881  50.661  1.00  0.00    -0.327 N 
HETATM   22  C3  UNL     1      24.573   4.268  50.607  1.00  0.00     0.221 C 
HETATM   23  O1  UNL     1      23.943   4.801  51.541  1.00  0.00    -0.273 OA
HETATM   24  H6  UNL     1      25.307   2.570  49.809  1.00  0.00     0.169 HD
BRANCH  22  25
HETATM   25  C2  UNL     1      25.037   5.188  49.570  1.00  0.00     0.098 C 
HETATM   26  C1  UNL     1      26.440   4.733  49.163  1.00  0.00     0.014 C 
ENDBRANCH  22  25
ENDBRANCH   1  21
TORSDOF 4
ENDMDL
MODEL 2
REMARK VINA RESULT:      -8.7      2.435      5.943
REMARK  4 active torsions:
REMARK  status: ('A' for Active; 'I' for Inactive)
REMARK    1  A    between atoms: C2_2  and  C3_3 
REMARK       I    between atoms: C3_3  and  N1_5 
REMARK    2  A    between atoms: N1_5  and  C4_6 
REMARK    3  A    between atoms: C11_15  and  N4_16 
REMARK    4  A    between atoms: N4_16  and  C12_17 
ROOT
HETATM    1  C4  UNL     1      25.478   0.637  53.018  1.00  0.00     0.035 A 
HETATM    2  C5  UNL     1      24.504  -0.295  53.200  1.00  0.00     0.030 A 
HETATM    3  C6  UNL     1      23.153  -0.076  53.118  1.00  0.00     0.016 A 
HETATM    4  C7  UNL     1      22.726   1.224  52.819  1.00  0.00     0.000 A 
HETATM    5  C8  UNL     1      21.362   1.467  52.731  1.00  0.00     0.073 A 
HETATM    6  C9  UNL     1      20.401   0.421  52.939  1.00  0.00     0.102 C 
HETATM    7  N2  UNL     1      19.627  -0.441  53.099  1.00  0.00    -0.191 NA
HETATM    8  C10 UNL     1      21.027   2.755  52.436  1.00  0.00     0.142 A 
HETATM    9  N3  UNL     1      21.976   3.687  52.254  1.00  0.00    -0.241 NA
HETATM   10  C11 UNL     1      23.297   3.477  52.333  1.00  0.00     0.138 A 
HETATM   11  C17 UNL     1      23.703   2.198  52.627  1.00  0.00     0.024 A 
HETATM   12  C18 UNL     1      25.033   1.900  52.726  1.00  0.00     0.045 A 
ENDROOT
BRANCH  10  13
HETATM   13  N4  UNL     1      24.190   4.560  52.115  1.00  0.00    -0.342 N 
HETATM   14  H10 UNL     1      24.758   5.038  52.843  1.00  0.00     0.167 HD
BRANCH  13  15
HETATM   15  C12 UNL     1      24.329   5.044  50.782  1.00  0.00     0.029 A 
HETATM   16  C13 UNL     1      23.309   5.505  50.035  1.00  0.00     0.026 A 
HETATM   17  C14 UNL     1      23.734   5.934  48.714  1.00  0.00    -0.001 A 
HETATM   18  C15 UNL     1      25.036   5.715  48.695  1.00  0.00    -0.005 A 
HETATM   19  C16 UNL     1      25.570   5.143  49.958  1.00  0.00     0.130 A 
HETATM   20 BR1  UNL     1      26.434   3.452  49.682  1.00  0.00    -0.080 Br
ENDBRANCH  13  15
ENDBRANCH  10  13
BRANCH   1  21
HETATM   21  N1  UNL     1      26.870   0.413  53.102  1.00  0.00    -0.327 N 
HETATM   22  C3  UNL     1      27.675   0.003  54.172  1.00  0.00     0.221 C 
HETATM   23  O1  UNL     1      27.114  -0.217  55.263  1.00  0.00    -0.273 OA
HETATM   24  H6  UNL     1      27.479   0.562  52.246  1.00  0.00     0.169 HD
BRANCH  22  25
HETATM   25  C2  UNL     1      29.123  -0.203  54.168  1.00  0.00     0.098 C 
HETATM   26  C1  UNL     1      29.389  -1.495  53.391  1.00  0.00     0.014 C 
ENDBRANCH  22  25
ENDBRANCH   1  21
TORSDOF 4
ENDMDL
MODEL 3
REMARK VINA RESULT:      -8.4      2.788      5.630
REMARK  4 active torsions:
REMARK  status: ('A' for Active; 'I' for Inactive)
REMARK    1  A    between atoms: C2_2  and  C3_3 
REMARK       I    between atoms: C3_3  and  N1_5 
REMARK    2  A    between atoms: N1_5  and  C4_6 
REMARK    3  A    between atoms: C11_15  and  N4_16 
REMARK    4  A    between atoms: N4_16  and  C12_17 
ROOT
HETATM    1  C4  UNL     1      25.724   3.227  51.047  1.00  0.00     0.035 A 
HETATM    2  C5  UNL     1      26.752   2.355  51.227  1.00  0.00     0.030 A 
HETATM    3  C6  UNL     1      26.678   1.138  51.854  1.00  0.00     0.016 A 
HETATM    4  C7  UNL     1      25.432   0.748  52.360  1.00  0.00     0.000 A 
HETATM    5  C8  UNL     1      25.335  -0.481  53.000  1.00  0.00     0.073 A 
HETATM    6  C9  UNL     1      26.474  -1.341  53.145  1.00  0.00     0.102 C 
HETATM    7  N2  UNL     1      27.407  -2.039  53.248  1.00  0.00    -0.191 NA
HETATM    8  C10 UNL     1      24.089  -0.788  53.464  1.00  0.00     0.142 A 
HETATM    9  N3  UNL     1      23.065   0.062  53.295  1.00  0.00    -0.241 NA
HETATM   10  C11 UNL     1      23.134   1.252  52.682  1.00  0.00     0.138 A 
HETATM   11  C17 UNL     1      24.361   1.623  52.190  1.00  0.00     0.024 A 
HETATM   12  C18 UNL     1      24.517   2.821  51.551  1.00  0.00     0.045 A 
ENDROOT
BRANCH  10  13
HETATM   13  N4  UNL     1      21.964   2.050  52.575  1.00  0.00    -0.342 N 
HETATM   14  H10 UNL     1      21.867   3.035  52.892  1.00  0.00     0.167 HD
BRANCH  13  15
HETATM   15  C12 UNL     1      20.812   1.458  51.981  1.00  0.00     0.029 A 
HETATM   16  C13 UNL     1      19.986   0.606  52.617  1.00  0.00     0.026 A 
HETATM   17  C14 UNL     1      18.892   0.155  51.774  1.00  0.00    -0.001 A 
HETATM   18  C15 UNL     1      19.090   0.762  50.618  1.00  0.00    -0.005 A 
HETATM   19  C16 UNL     1      20.289   1.639  50.593  1.00  0.00     0.130 A 
HETATM   20 BR1  UNL     1      21.543   1.119  49.237  1.00  0.00    -0.080 Br
ENDBRANCH  13  15
ENDBRANCH  10  13
BRANCH   1  21
HETATM   21  N1  UNL     1      25.799   4.481  50.401  1.00  0.00    -0.327 N 
HETATM   22  C3  UNL     1      26.616   4.932  49.356  1.00  0.00     0.221 C 
HETATM   23  O1  UNL     1      27.436   4.125  48.877  1.00  0.00    -0.273 OA
HETATM   24  H6  UNL     1      25.157   5.268  50.704  1.00  0.00     0.169 HD
BRANCH  22  25
HETATM   25  C2  UNL     1      26.626   6.260  48.744  1.00  0.00     0.098 C 
HETATM   26  C1  UNL     1      28.027   6.478  48.170  1.00  0.00     0.014 C 
ENDBRANCH  22  25
ENDBRANCH   1  21
TORSDOF 4
ENDMDL
MODEL 4
REMARK VINA RESULT:      -8.4      3.024      6.843
REMARK  4 active torsions:
REMARK  status: ('A' for Active; 'I' for Inactive)
REMARK    1  A    between atoms: C2_2  and  C3_3 
REMARK       I    between atoms: C3_3  and  N1_5 
REMARK    2  A    between atoms: N1_5  and  C4_6 
REMARK    3  A    between atoms: C11_15  and  N4_16 
REMARK    4  A    between atoms: N4_16  and  C12_17 
ROOT
HETATM    1  C4  UNL     1      21.498  -0.624  54.002  1.00  0.00     0.035 A 
HETATM    2  C5  UNL     1      22.563  -1.217  54.607  1.00  0.00     0.030 A 
HETATM    3  C6  UNL     1      23.869  -0.807  54.523  1.00  0.00     0.016 A 
HETATM    4  C7  UNL     1      24.142   0.326  53.747  1.00  0.00     0.000 A 
HETATM    5  C8  UNL     1      25.458   0.757  53.649  1.00  0.00     0.073 A 
HETATM    6  C9  UNL     1      26.523   0.070  54.322  1.00  0.00     0.102 C 
HETATM    7  N2  UNL     1      27.381  -0.492  54.884  1.00  0.00    -0.191 NA
HETATM    8  C10 UNL     1      25.642   1.866  52.876  1.00  0.00     0.142 A 
HETATM    9  N3  UNL     1      24.601   2.462  52.273  1.00  0.00    -0.241 NA
HETATM   10  C11 UNL     1      23.324   2.065  52.352  1.00  0.00     0.138 A 
HETATM   11  C17 UNL     1      23.069   0.953  53.117  1.00  0.00     0.024 A 
HETATM   12  C18 UNL     1      21.793   0.482  53.249  1.00  0.00     0.045 A 
ENDROOT
BRANCH  10  13
HETATM   13  N4  UNL     1      22.322   2.795  51.659  1.00  0.00    -0.342 N 
HETATM   14  H10 UNL     1      21.634   3.445  52.088  1.00  0.00     0.167 HD
BRANCH  13  15
HETATM   15  C12 UNL     1      22.242   2.630  50.245  1.00  0.00     0.029 A 
HETATM   16  C13 UNL     1      21.967   1.463  49.635  1.00  0.00     0.026 A 
HETATM   17  C14 UNL     1      21.949   1.580  48.187  1.00  0.00    -0.001 A 
HETATM   18  C15 UNL     1      22.222   2.851  47.952  1.00  0.00    -0.005 A 
HETATM   19  C16 UNL     1      22.436   3.659  49.180  1.00  0.00     0.130 A 
HETATM   20 BR1  UNL     1      24.174   4.474  49.222  1.00  0.00    -0.080 Br
ENDBRANCH  13  15
ENDBRANCH  10  13
BRANCH   1  21
HETATM   21  N1  UNL     1      20.152  -1.045  54.088  1.00  0.00    -0.327 N 
HETATM   22  C3  UNL     1      19.070  -0.855  53.218  1.00  0.00     0.221 C 
HETATM   23  O1  UNL     1      19.279  -0.210  52.172  1.00  0.00    -0.273 OA
HETATM   24  H6  UNL     1      19.829  -1.605  54.927  1.00  0.00     0.169 HD
BRANCH  22  25
HETATM   25  C2  UNL     1      17.698  -1.330  53.390  1.00  0.00     0.098 C 
HETATM   26  C1  UNL     1      17.778  -2.823  53.716  1.00  0.00     0.014 C 
ENDBRANCH  22  25
ENDBRANCH   1  21
TORSDOF 4
ENDMDL
MODEL 5
REMARK VINA RESULT:      -8.2      2.855      6.510
REMARK  4 active torsions:
REMARK  status: ('A' for Active; 'I' for Inactive)
REMARK    1  A    between atoms: C2_2  and  C3_3 
REMARK       I    between atoms: C3_3  and  N1_5 
REMARK    2  A    between atoms: N1_5  and  C4_6 
REMARK    3  A    between atoms: C11_15  and  N4_16 
REMARK    4  A    between atoms: N4_16  and  C12_17 
ROOT
HETATM    1  C4  UNL     1      22.742  -0.000  52.708  1.00  0.00     0.035 A 
HETATM    2  C5  UNL     1      23.571  -0.576  53.619  1.00  0.00     0.030 A 
HETATM    3  C6  UNL     1      24.893  -0.268  53.814  1.00  0.00     0.016 A 
HETATM    4  C7  UNL     1      25.449   0.730  53.006  1.00  0.00     0.000 A 
HETATM    5  C8  UNL     1      26.787   1.057  53.187  1.00  0.00     0.073 A 
HETATM    6  C9  UNL     1      27.591   0.397  54.175  1.00  0.00     0.102 C 
HETATM    7  N2  UNL     1      28.234  -0.140  54.991  1.00  0.00    -0.191 NA
HETATM    8  C10 UNL     1      27.254   2.037  52.362  1.00  0.00     0.142 A 
HETATM    9  N3  UNL     1      26.448   2.615  51.457  1.00  0.00    -0.241 NA
HETATM   10  C11 UNL     1      25.156   2.317  51.264  1.00  0.00     0.138 A 
HETATM   11  C17 UNL     1      24.621   1.337  52.063  1.00  0.00     0.024 A 
HETATM   12  C18 UNL     1      23.311   0.973  51.930  1.00  0.00     0.045 A 
ENDROOT
BRANCH  10  13
HETATM   13  N4  UNL     1      24.422   3.012  50.267  1.00  0.00    -0.342 N 
HETATM   14  H10 UNL     1      24.172   2.646  49.326  1.00  0.00     0.167 HD
BRANCH  13  15
HETATM   15  C12 UNL     1      23.981   4.333  50.570  1.00  0.00     0.029 A 
HETATM   16  C13 UNL     1      22.711   4.654  50.879  1.00  0.00     0.026 A 
HETATM   17  C14 UNL     1      22.541   6.073  51.141  1.00  0.00    -0.001 A 
HETATM   18  C15 UNL     1      23.746   6.588  50.980  1.00  0.00    -0.005 A 
HETATM   19  C16 UNL     1      24.785   5.592  50.611  1.00  0.00     0.130 A 
HETATM   20 BR1  UNL     1      25.629   6.006  48.938  1.00  0.00    -0.080 Br
ENDBRANCH  13  15
ENDBRANCH  10  13
BRANCH   1  21
HETATM   21  N1  UNL     1      21.379  -0.316  52.506  1.00  0.00    -0.327 N 
HETATM   22  C3  UNL     1      20.263  -0.157  53.337  1.00  0.00     0.221 C 
HETATM   23  O1  UNL     1      20.450   0.347  54.462  1.00  0.00    -0.273 OA
HETATM   24  H6  UNL     1      21.071  -0.753  51.590  1.00  0.00     0.169 HD
BRANCH  22  25
HETATM   25  C2  UNL     1      18.877  -0.516  53.043  1.00  0.00     0.098 C 
HETATM   26  C1  UNL     1      18.606  -0.107  51.594  1.00  0.00     0.014 C 
ENDBRANCH  22  25
ENDBRANCH   1  21
TORSDOF 4
ENDMDL
MODEL 6
REMARK VINA RESULT:      -8.2      2.557      5.941
REMARK  4 active torsions:
REMARK  status: ('A' for Active; 'I' for Inactive)
REMARK    1  A    between atoms: C2_2  and  C3_3 
REMARK       I    between atoms: C3_3  and  N1_5 
REMARK    2  A    between atoms: N1_5  and  C4_6 
REMARK    3  A    between atoms: C11_15  and  N4_16 
REMARK    4  A    between atoms: N4_16  and  C12_17 
ROOT
HETATM    1  C4  UNL     1      24.947  -0.253  53.642  1.00  0.00     0.035 A 
HETATM    2  C5  UNL     1      23.855  -0.876  54.161  1.00  0.00     0.030 A 
HETATM    3  C6  UNL     1      22.553  -0.672  53.781  1.00  0.00     0.016 A 
HETATM    4  C7  UNL     1      22.317   0.263  52.765  1.00  0.00     0.000 A 
HETATM    5  C8  UNL     1      21.005   0.485  52.365  1.00  0.00     0.073 A 
HETATM    6  C9  UNL     1      19.910  -0.218  52.968  1.00  0.00     0.102 C 
HETATM    7  N2  UNL     1      19.025  -0.806  53.459  1.00  0.00    -0.191 NA
HETATM    8  C10 UNL     1      20.858   1.409  51.372  1.00  0.00     0.142 A 
HETATM    9  N3  UNL     1      21.926   2.032  50.851  1.00  0.00    -0.241 NA
HETATM   10  C11 UNL     1      23.199   1.835  51.219  1.00  0.00     0.138 A 
HETATM   11  C17 UNL     1      23.418   0.916  52.216  1.00  0.00     0.024 A 
HETATM   12  C18 UNL     1      24.688   0.655  52.651  1.00  0.00     0.045 A 
ENDROOT
BRANCH  10  13
HETATM   13  N4  UNL     1      24.232   2.567  50.578  1.00  0.00    -0.342 N 
HETATM   14  H10 UNL     1      25.078   2.163  50.127  1.00  0.00     0.167 HD
BRANCH  13  15
HETATM   15  C12 UNL     1      24.113   3.987  50.541  1.00  0.00     0.029 A 
HETATM   16  C13 UNL     1      23.970   4.762  51.633  1.00  0.00     0.026 A 
HETATM   17  C14 UNL     1      23.869   6.174  51.306  1.00  0.00    -0.001 A 
HETATM   18  C15 UNL     1      23.956   6.218  49.989  1.00  0.00    -0.005 A 
HETATM   19  C16 UNL     1      24.118   4.887  49.349  1.00  0.00     0.130 A 
HETATM   20 BR1  UNL     1      22.709   4.502  48.103  1.00  0.00    -0.080 Br
ENDBRANCH  13  15
ENDBRANCH  10  13
BRANCH   1  21
HETATM   21  N1  UNL     1      26.288  -0.463  54.032  1.00  0.00    -0.327 N 
HETATM   22  C3  UNL     1      27.252   0.421  54.533  1.00  0.00     0.221 C 
HETATM   23  O1  UNL     1      26.918   1.613  54.680  1.00  0.00    -0.273 OA
HETATM   24  H6  UNL     1      26.711  -1.433  53.962  1.00  0.00     0.169 HD
BRANCH  22  25
HETATM   25  C2  UNL     1      28.630   0.113  54.913  1.00  0.00     0.098 C 
HETATM   26  C1  UNL     1      29.222  -0.745  53.794  1.00  0.00     0.014 C 
ENDBRANCH  22  25
ENDBRANCH   1  21
TORSDOF 4
ENDMDL
MODEL 7
REMARK VINA RESULT:      -7.7      3.015      6.062
REMARK  4 active torsions:
REMARK  status: ('A' for Active; 'I' for Inactive)
REMARK    1  A    between atoms: C2_2  and  C3_3 
REMARK       I    between atoms: C3_3  and  N1_5 
REMARK    2  A    between atoms: N1_5  and  C4_6 
REMARK    3  A    between atoms: C11_15  and  N4_16 
REMARK    4  A    between atoms: N4_16  and  C12_17 
ROOT
HETATM    1  C4  UNL     1      22.277   1.763  51.697  1.00  0.00     0.035 A 
HETATM    2  C5  UNL     1      22.682   1.179  52.856  1.00  0.00     0.030 A 
HETATM    3  C6  UNL     1      23.974   1.100  53.311  1.00  0.00     0.016 A 
HETATM    4  C7  UNL     1      24.975   1.671  52.515  1.00  0.00     0.000 A 
HETATM    5  C8  UNL     1      26.289   1.602  52.957  1.00  0.00     0.073 A 
HETATM    6  C9  UNL     1      26.629   0.965  54.197  1.00  0.00     0.102 C 
HETATM    7  N2  UNL     1      26.893   0.452  55.215  1.00  0.00    -0.191 NA
HETATM    8  C10 UNL     1      27.204   2.181  52.128  1.00  0.00     0.142 A 
HETATM    9  N3  UNL     1      26.820   2.761  50.980  1.00  0.00    -0.241 NA
HETATM   10  C11 UNL     1      25.559   2.841  50.532  1.00  0.00     0.138 A 
HETATM   11  C17 UNL     1      24.586   2.277  51.322  1.00  0.00     0.024 A 
HETATM   12  C18 UNL     1      23.275   2.314  50.938  1.00  0.00     0.045 A 
ENDROOT
BRANCH  10  13
HETATM   13  N4  UNL     1      25.297   3.487  49.296  1.00  0.00    -0.342 N 
HETATM   14  H10 UNL     1      24.742   3.096  48.508  1.00  0.00     0.167 HD
BRANCH  13  15
HETATM   15  C12 UNL     1      25.840   4.791  49.103  1.00  0.00     0.029 A 
HETATM   16  C13 UNL     1      27.118   5.035  48.758  1.00  0.00     0.026 A 
HETATM   17  C14 UNL     1      27.401   6.454  48.631  1.00  0.00    -0.001 A 
HETATM   18  C15 UNL     1      26.255   7.048  48.909  1.00  0.00    -0.005 A 
HETATM   19  C16 UNL     1      25.151   6.110  49.234  1.00  0.00     0.130 A 
HETATM   20 BR1  UNL     1      24.426   6.415  50.984  1.00  0.00    -0.080 Br
ENDBRANCH  13  15
ENDBRANCH  10  13
BRANCH   1  21
HETATM   21  N1  UNL     1      20.947   1.846  51.227  1.00  0.00    -0.327 N 
HETATM   22  C3  UNL     1      19.833   2.530  51.730  1.00  0.00     0.221 C 
HETATM   23  O1  UNL     1      19.989   3.198  52.771  1.00  0.00    -0.273 OA
HETATM   24  H6  UNL     1      20.667   1.326  50.346  1.00  0.00     0.169 HD
BRANCH  22  25
HETATM   25  C2  UNL     1      18.481   2.558  51.173  1.00  0.00     0.098 C 
HETATM   26  C1  UNL     1      18.421   3.740  50.203  1.00  0.00     0.014 C 
ENDBRANCH  22  25
ENDBRANCH   1  21
TORSDOF 4
ENDMDL
MODEL 8
REMARK VINA RESULT:      -7.5      3.288      6.696
REMARK  4 active torsions:
REMARK  status: ('A' for Active; 'I' for Inactive)
REMARK    1  A    between atoms: C2_2  and  C3_3 
REMARK       I    between atoms: C3_3  and  N1_5 
REMARK    2  A    between atoms: N1_5  and  C4_6 
REMARK    3  A    between atoms: C11_15  and  N4_16 
REMARK    4  A    between atoms: N4_16  and  C12_17 
ROOT
HETATM    1  C4  UNL     1      21.039   0.328  52.063  1.00  0.00     0.035 A 
HETATM    2  C5  UNL     1      21.832  -0.634  52.606  1.00  0.00     0.030 A 
HETATM    3  C6  UNL     1      23.102  -0.453  53.091  1.00  0.00     0.016 A 
HETATM    4  C7  UNL     1      23.640   0.838  53.026  1.00  0.00     0.000 A 
HETATM    5  C8  UNL     1      24.925   1.044  53.512  1.00  0.00     0.073 A 
HETATM    6  C9  UNL     1      25.694  -0.031  54.070  1.00  0.00     0.102 C 
HETATM    7  N2  UNL     1      26.308  -0.913  54.533  1.00  0.00    -0.191 NA
HETATM    8  C10 UNL     1      25.376   2.327  53.413  1.00  0.00     0.142 A 
HETATM    9  N3  UNL     1      24.605   3.287  52.879  1.00  0.00    -0.241 NA
HETATM   10  C11 UNL     1      23.364   3.114  52.404  1.00  0.00     0.138 A 
HETATM   11  C17 UNL     1      22.848   1.843  52.474  1.00  0.00     0.024 A 
HETATM   12  C18 UNL     1      21.588   1.581  52.011  1.00  0.00     0.045 A 
ENDROOT
BRANCH  10  13
HETATM   13  N4  UNL     1      22.662   4.224  51.866  1.00  0.00    -0.342 N 
HETATM   14  H10 UNL     1      21.772   4.618  52.231  1.00  0.00     0.167 HD
BRANCH  13  15
HETATM   15  C12 UNL     1      23.218   4.867  50.722  1.00  0.00     0.029 A 
HETATM   16  C13 UNL     1      23.229   6.201  50.535  1.00  0.00     0.026 A 
HETATM   17  C14 UNL     1      23.857   6.583  49.282  1.00  0.00    -0.001 A 
HETATM   18  C15 UNL     1      24.218   5.441  48.728  1.00  0.00    -0.005 A 
HETATM   19  C16 UNL     1      23.876   4.242  49.536  1.00  0.00     0.130 A 
HETATM   20 BR1  UNL     1      22.732   3.027  48.588  1.00  0.00    -0.080 Br
ENDBRANCH  13  15
ENDBRANCH  10  13
BRANCH   1  21
HETATM   21  N1  UNL     1      19.730   0.143  51.563  1.00  0.00    -0.327 N 
HETATM   22  C3  UNL     1      18.572  -0.355  52.173  1.00  0.00     0.221 C 
HETATM   23  O1  UNL     1      18.657  -0.711  53.365  1.00  0.00    -0.273 OA
HETATM   24  H6  UNL     1      19.509   0.403  50.559  1.00  0.00     0.169 HD
BRANCH  22  25
HETATM   25  C2  UNL     1      17.248  -0.514  51.573  1.00  0.00     0.098 C 
HETATM   26  C1  UNL     1      16.449  -1.441  52.491  1.00  0.00     0.014 C 
ENDBRANCH  22  25
ENDBRANCH   1  21
TORSDOF 4
ENDMDL
MODEL 9
REMARK VINA RESULT:      -7.3      3.794      6.130
REMARK  4 active torsions:
REMARK  status: ('A' for Active; 'I' for Inactive)
REMARK    1  A    between atoms: C2_2  and  C3_3 
REMARK       I    between atoms: C3_3  and  N1_5 
REMARK    2  A    between atoms: N1_5  and  C4_6 
REMARK    3  A    between atoms: C11_15  and  N4_16 
REMARK    4  A    between atoms: N4_16  and  C12_17 
ROOT
HETATM    1  C4  UNL     1      19.344   0.607  51.267  1.00  0.00     0.035 A 
HETATM    2  C5  UNL     1      19.385  -0.141  52.402  1.00  0.00     0.030 A 
HETATM    3  C6  UNL     1      20.505  -0.421  53.143  1.00  0.00     0.016 A 
HETATM    4  C7  UNL     1      21.722   0.109  52.698  1.00  0.00     0.000 A 
HETATM    5  C8  UNL     1      22.868  -0.162  53.434  1.00  0.00     0.073 A 
HETATM    6  C9  UNL     1      22.821  -0.964  54.623  1.00  0.00     0.102 C 
HETATM    7  N2  UNL     1      22.770  -1.609  55.597  1.00  0.00    -0.191 NA
HETATM    8  C10 UNL     1      24.012   0.389  52.937  1.00  0.00     0.142 A 
HETATM    9  N3  UNL     1      23.988   1.130  51.818  1.00  0.00    -0.241 NA
HETATM   10  C11 UNL     1      22.896   1.405  51.091  1.00  0.00     0.138 A 
HETATM   11  C17 UNL     1      21.708   0.880  51.538  1.00  0.00     0.024 A 
HETATM   12  C18 UNL     1      20.547   1.114  50.854  1.00  0.00     0.045 A 
ENDROOT
BRANCH  10  13
HETATM   13  N4  UNL     1      23.018   2.206  49.925  1.00  0.00    -0.342 N 
HETATM   14  H10 UNL     1      22.532   2.045  49.021  1.00  0.00     0.167 HD
BRANCH  13  15
HETATM   15  C12 UNL     1      23.883   3.338  49.987  1.00  0.00     0.029 A 
HETATM   16  C13 UNL     1      25.149   3.347  49.531  1.00  0.00     0.026 A 
HETATM   17  C14 UNL     1      25.802   4.631  49.723  1.00  0.00    -0.001 A 
HETATM   18  C15 UNL     1      24.889   5.385  50.305  1.00  0.00    -0.005 A 
HETATM   19  C16 UNL     1      23.595   4.694  50.543  1.00  0.00     0.130 A 
HETATM   20 BR1  UNL     1      23.115   4.666  52.401  1.00  0.00    -0.080 Br
ENDBRANCH  13  15
ENDBRANCH  10  13
BRANCH   1  21
HETATM   21  N1  UNL     1      18.191   0.897  50.503  1.00  0.00    -0.327 N 
HETATM   22  C3  UNL     1      17.218   1.894  50.644  1.00  0.00     0.221 C 
HETATM   23  O1  UNL     1      17.345   2.692  51.593  1.00  0.00    -0.273 OA
HETATM   24  H6  UNL     1      17.955   0.298  49.660  1.00  0.00     0.169 HD
BRANCH  22  25
HETATM   25  C2  UNL     1      16.047   2.120  49.798  1.00  0.00     0.098 C 
HETATM   26  C1  UNL     1      16.563   2.430  48.391  1.00  0.00     0.014 C 
ENDBRANCH  22  25
ENDBRANCH   1  21
TORSDOF 4
ENDMDL
