MODEL 1
REMARK VINA RESULT:      -7.3      0.000      0.000
REMARK  2 active torsions:
REMARK  status: ('A' for Active; 'I' for Inactive)
REMARK    1  A    between atoms: C2_2  and  C3_3 
REMARK    2  A    between atoms: C18_23  and  O2_24 
ROOT
HETATM    1  C3  UNL     1      23.630   3.376  51.425  1.00  0.00     0.062 C 
HETATM    2  C4  UNL     1      23.975   4.681  51.548  1.00  0.00     0.310 A 
HETATM    3  N1  UNL     1      23.683   5.113  52.914  1.00  0.00     0.136 N 
HETATM    4  C5  UNL     1      22.474   5.179  51.992  1.00  0.00     0.320 A 
HETATM    5  C6  UNL     1      21.324   4.800  51.368  1.00  0.00    -0.035 C 
HETATM    6  C7  UNL     1      20.652   5.653  50.350  1.00  0.00     0.019 C 
HETATM    7  C8  UNL     1      20.319   4.911  49.332  1.00  0.00    -0.008 C 
HETATM    8  C9  UNL     1      21.315   4.578  48.605  1.00  0.00     0.034 A 
HETATM    9 BR1  UNL     1      21.812   4.401  46.793  1.00  0.00    -0.087 Br
HETATM   10  C10 UNL     1      22.680   4.166  48.811  1.00  0.00     0.133 A 
HETATM   11  C11 UNL     1      23.893   4.757  48.963  1.00  0.00     0.022 C 
HETATM   12  C12 UNL     1      25.340   4.823  49.160  1.00  0.00     0.019 C 
HETATM   13  C13 UNL     1      26.114   5.873  49.296  1.00  0.00     0.118 C 
HETATM   14  N2  UNL     1      25.031   6.845  49.207  1.00  0.00    -0.249 NA
HETATM   15  C14 UNL     1      24.242   6.812  50.303  1.00  0.00     0.254 C 
HETATM   16  O1  UNL     1      24.418   5.984  51.362  1.00  0.00    -0.301 OA
HETATM   17  N3  UNL     1      23.477   2.966  48.987  1.00  0.00    -0.388 N 
HETATM   18  C15 UNL     1      23.382   2.448  50.336  1.00  0.00     0.124 C 
HETATM   19  C16 UNL     1      21.857   2.080  50.417  1.00  0.00    -0.031 C 
HETATM   20  C17 UNL     1      21.561   0.875  49.559  1.00  0.00     0.048 C 
HETATM   21  C18 UNL     1      20.645   2.456  50.899  1.00  0.00     0.051 C 
HETATM   22  C19 UNL     1      20.380   3.663  51.682  1.00  0.00     0.101 C 
HETATM   23  H6  UNL     1      23.298   5.449  53.817  1.00  0.00     0.321 HD
HETATM   24  H13 UNL     1      24.043   2.442  48.314  1.00  0.00     0.156 HD
ENDROOT
BRANCH   1  25
HETATM   25  C2  UNL     1      23.116   2.654  52.620  1.00  0.00     0.013 C 
HETATM   26  C1  UNL     1      24.159   1.568  53.019  1.00  0.00     0.006 C 
ENDBRANCH   1  25
BRANCH  21  27
HETATM   27  O2  UNL     1      19.398   1.795  50.752  1.00  0.00    -0.364 OA
HETATM   28  H18 UNL     1      19.216   1.082  51.453  1.00  0.00     0.217 HD
ENDBRANCH  21  27
TORSDOF 2
ENDMDL
MODEL 2
REMARK VINA RESULT:      -7.2      2.386      5.099
REMARK  2 active torsions:
REMARK  status: ('A' for Active; 'I' for Inactive)
REMARK    1  A    between atoms: C2_2  and  C3_3 
REMARK    2  A    between atoms: C18_23  and  O2_24 
ROOT
HETATM    1  C3  UNL     1      22.002   3.511  49.404  1.00  0.00     0.062 C 
HETATM    2  C4  UNL     1      20.885   3.435  50.166  1.00  0.00     0.310 A 
HETATM    3  N1  UNL     1      20.098   4.651  49.964  1.00  0.00     0.136 N 
HETATM    4  C5  UNL     1      21.195   4.811  51.006  1.00  0.00     0.320 A 
HETATM    5  C6  UNL     1      22.407   5.125  51.544  1.00  0.00    -0.035 C 
HETATM    6  C7  UNL     1      22.725   4.890  52.979  1.00  0.00     0.019 C 
HETATM    7  C8  UNL     1      23.903   4.338  53.065  1.00  0.00    -0.008 C 
HETATM    8  C9  UNL     1      23.909   3.110  52.714  1.00  0.00     0.034 A 
HETATM    9 BR1  UNL     1      24.627   1.443  53.230  1.00  0.00    -0.087 Br
HETATM   10  C10 UNL     1      23.300   2.304  51.687  1.00  0.00     0.133 A 
HETATM   11  C11 UNL     1      22.144   1.616  51.507  1.00  0.00     0.022 C 
HETATM   12  C12 UNL     1      21.178   0.771  50.805  1.00  0.00     0.019 C 
HETATM   13  C13 UNL     1      19.977   0.396  51.176  1.00  0.00     0.118 C 
HETATM   14  N2  UNL     1      19.998   1.126  52.438  1.00  0.00    -0.249 NA
HETATM   15  C14 UNL     1      19.934   2.461  52.243  1.00  0.00     0.254 C 
HETATM   16  O1  UNL     1      19.862   3.066  51.031  1.00  0.00    -0.301 OA
HETATM   17  N3  UNL     1      23.552   1.821  50.341  1.00  0.00    -0.388 N 
HETATM   18  C15 UNL     1      23.288   2.839  49.346  1.00  0.00     0.124 C 
HETATM   19  C16 UNL     1      24.361   3.923  49.722  1.00  0.00    -0.031 C 
HETATM   20  C17 UNL     1      25.745   3.437  49.366  1.00  0.00     0.048 C 
HETATM   21  C18 UNL     1      24.570   5.122  50.321  1.00  0.00     0.051 C 
HETATM   22  C19 UNL     1      23.542   5.938  50.968  1.00  0.00     0.101 C 
HETATM   23  H6  UNL     1      19.654   5.588  49.954  1.00  0.00     0.321 HD
HETATM   24  H13 UNL     1      23.903   0.917  50.017  1.00  0.00     0.156 HD
ENDROOT
BRANCH   1  25
HETATM   25  C2  UNL     1      22.187   4.693  48.519  1.00  0.00     0.013 C 
HETATM   26  C1  UNL     1      22.058   4.220  47.041  1.00  0.00     0.006 C 
ENDBRANCH   1  25
BRANCH  21  27
HETATM   27  O2  UNL     1      25.790   5.834  50.462  1.00  0.00    -0.364 OA
HETATM   28  H18 UNL     1      26.374   5.516  51.230  1.00  0.00     0.217 HD
ENDBRANCH  21  27
TORSDOF 2
ENDMDL
MODEL 3
REMARK VINA RESULT:      -7.0      2.867      5.131
REMARK  2 active torsions:
REMARK  status: ('A' for Active; 'I' for Inactive)
REMARK    1  A    between atoms: C2_2  and  C3_3 
REMARK    2  A    between atoms: C18_23  and  O2_24 
ROOT
HETATM    1  C3  UNL     1      22.414   3.061  52.345  1.00  0.00     0.062 C 
HETATM    2  C4  UNL     1      22.880   1.808  52.566  1.00  0.00     0.310 A 
HETATM    3  N1  UNL     1      24.291   1.761  52.184  1.00  0.00     0.136 N 
HETATM    4  C5  UNL     1      23.345   1.556  51.011  1.00  0.00     0.320 A 
HETATM    5  C6  UNL     1      22.577   1.852  49.924  1.00  0.00    -0.035 C 
HETATM    6  C7  UNL     1      21.768   0.822  49.218  1.00  0.00     0.019 C 
HETATM    7  C8  UNL     1      20.578   1.304  48.992  1.00  0.00    -0.008 C 
HETATM    8  C9  UNL     1      19.852   1.362  50.041  1.00  0.00     0.034 A 
HETATM    9 BR1  UNL     1      18.087   1.032  50.621  1.00  0.00    -0.087 Br
HETATM   10  C10 UNL     1      20.030   1.706  51.429  1.00  0.00     0.133 A 
HETATM   11  C11 UNL     1      20.397   1.081  52.577  1.00  0.00     0.022 C 
HETATM   12  C12 UNL     1      20.690   0.956  54.004  1.00  0.00     0.019 C 
HETATM   13  C13 UNL     1      21.131  -0.081  54.675  1.00  0.00     0.118 C 
HETATM   14  N2  UNL     1      21.224  -0.956  53.513  1.00  0.00    -0.249 NA
HETATM   15  C14 UNL     1      22.228  -0.585  52.688  1.00  0.00     0.254 C 
HETATM   16  O1  UNL     1      23.054   0.470  52.898  1.00  0.00    -0.301 OA
HETATM   17  N3  UNL     1      19.946   2.846  52.323  1.00  0.00    -0.388 N 
HETATM   18  C15 UNL     1      21.114   3.696  52.224  1.00  0.00     0.124 C 
HETATM   19  C16 UNL     1      21.010   4.189  50.736  1.00  0.00    -0.031 C 
HETATM   20  C17 UNL     1      19.860   5.156  50.583  1.00  0.00     0.048 C 
HETATM   21  C18 UNL     1      21.497   4.044  49.478  1.00  0.00     0.051 C 
HETATM   22  C19 UNL     1      22.540   3.100  49.075  1.00  0.00     0.101 C 
HETATM   23  H6  UNL     1      25.225   1.698  51.737  1.00  0.00     0.321 HD
HETATM   24  H13 UNL     1      19.198   3.136  52.959  1.00  0.00     0.156 HD
ENDROOT
BRANCH   1  25
HETATM   25  C2  UNL     1      23.357   4.101  51.853  1.00  0.00     0.013 C 
HETATM   26  C1  UNL     1      23.642   5.092  53.020  1.00  0.00     0.006 C 
ENDBRANCH   1  25
BRANCH  21  27
HETATM   27  O2  UNL     1      21.114   4.740  48.302  1.00  0.00    -0.364 OA
HETATM   28  H18 UNL     1      20.483   4.224  47.696  1.00  0.00     0.217 HD
ENDBRANCH  21  27
TORSDOF 2
ENDMDL
MODEL 4
REMARK VINA RESULT:      -6.9      7.869     10.148
REMARK  2 active torsions:
REMARK  status: ('A' for Active; 'I' for Inactive)
REMARK    1  A    between atoms: C2_2  and  C3_3 
REMARK    2  A    between atoms: C18_23  and  O2_24 
ROOT
HETATM    1  C3  UNL     1      30.894  10.425  48.388  1.00  0.00     0.062 C 
HETATM    2  C4  UNL     1      31.838  10.085  47.478  1.00  0.00     0.310 A 
HETATM    3  N1  UNL     1      31.977  11.181  46.519  1.00  0.00     0.136 N 
HETATM    4  C5  UNL     1      30.840  10.229  46.182  1.00  0.00     0.320 A 
HETATM    5  C6  UNL     1      29.577   9.719  46.126  1.00  0.00    -0.035 C 
HETATM    6  C7  UNL     1      29.271   8.423  45.461  1.00  0.00     0.019 C 
HETATM    7  C8  UNL     1      28.488   7.726  46.236  1.00  0.00    -0.008 C 
HETATM    8  C9  UNL     1      29.093   7.230  47.245  1.00  0.00     0.034 A 
HETATM    9 BR1  UNL     1      29.195   5.639  48.255  1.00  0.00    -0.087 Br
HETATM   10  C10 UNL     1      30.103   7.652  48.182  1.00  0.00     0.133 A 
HETATM   11  C11 UNL     1      31.458   7.649  48.262  1.00  0.00     0.022 C 
HETATM   12  C12 UNL     1      32.769   7.893  48.862  1.00  0.00     0.019 C 
HETATM   13  C13 UNL     1      33.964   7.684  48.364  1.00  0.00     0.118 C 
HETATM   14  N2  UNL     1      33.484   7.185  47.081  1.00  0.00    -0.249 NA
HETATM   15  C14 UNL     1      32.931   8.169  46.338  1.00  0.00     0.254 C 
HETATM   16  O1  UNL     1      32.826   9.465  46.723  1.00  0.00    -0.301 OA
HETATM   17  N3  UNL     1      30.237   8.298  49.475  1.00  0.00    -0.388 N 
HETATM   18  C15 UNL     1      30.086   9.735  49.378  1.00  0.00     0.124 C 
HETATM   19  C16 UNL     1      28.599   9.854  48.884  1.00  0.00    -0.031 C 
HETATM   20  C17 UNL     1      27.646   9.477  49.992  1.00  0.00     0.048 C 
HETATM   21  C18 UNL     1      27.796  10.095  47.817  1.00  0.00     0.051 C 
HETATM   22  C19 UNL     1      28.254  10.369  46.455  1.00  0.00     0.101 C 
HETATM   23  H6  UNL     1      31.928  11.876  45.751  1.00  0.00     0.321 HD
HETATM   24  H13 UNL     1      30.384   7.896  50.404  1.00  0.00     0.156 HD
ENDROOT
BRANCH   1  25
HETATM   25  C2  UNL     1      30.261  11.768  48.298  1.00  0.00     0.013 C 
HETATM   26  C1  UNL     1      30.775  12.630  49.489  1.00  0.00     0.006 C 
ENDBRANCH   1  25
BRANCH  21  27
HETATM   27  O2  UNL     1      26.378  10.125  47.774  1.00  0.00    -0.364 OA
HETATM   28  H18 UNL     1      25.988  10.181  46.838  1.00  0.00     0.217 HD
ENDBRANCH  21  27
TORSDOF 2
ENDMDL
MODEL 5
REMARK VINA RESULT:      -6.8      2.247      4.759
REMARK  2 active torsions:
REMARK  status: ('A' for Active; 'I' for Inactive)
REMARK    1  A    between atoms: C2_2  and  C3_3 
REMARK    2  A    between atoms: C18_23  and  O2_24 
ROOT
HETATM    1  C3  UNL     1      21.283   2.373  50.623  1.00  0.00     0.062 C 
HETATM    2  C4  UNL     1      20.518   2.440  49.507  1.00  0.00     0.310 A 
HETATM    3  N1  UNL     1      20.910   1.356  48.607  1.00  0.00     0.136 N 
HETATM    4  C5  UNL     1      21.788   2.590  48.477  1.00  0.00     0.320 A 
HETATM    5  C6  UNL     1      22.841   3.434  48.674  1.00  0.00    -0.035 C 
HETATM    6  C7  UNL     1      22.925   4.768  48.020  1.00  0.00     0.019 C 
HETATM    7  C8  UNL     1      23.286   5.651  48.907  1.00  0.00    -0.008 C 
HETATM    8  C9  UNL     1      22.353   5.951  49.726  1.00  0.00     0.034 A 
HETATM    9 BR1  UNL     1      21.589   7.444  50.592  1.00  0.00    -0.087 Br
HETATM   10  C10 UNL     1      21.309   5.258  50.436  1.00  0.00     0.133 A 
HETATM   11  C11 UNL     1      20.025   4.880  50.212  1.00  0.00     0.022 C 
HETATM   12  C12 UNL     1      18.729   4.275  50.518  1.00  0.00     0.019 C 
HETATM   13  C13 UNL     1      17.671   4.145  49.754  1.00  0.00     0.118 C 
HETATM   14  N2  UNL     1      18.279   4.767  48.584  1.00  0.00    -0.249 NA
HETATM   15  C14 UNL     1      19.235   3.981  48.042  1.00  0.00     0.254 C 
HETATM   16  O1  UNL     1      19.600   2.764  48.516  1.00  0.00    -0.301 OA
HETATM   17  N3  UNL     1      21.064   4.592  51.702  1.00  0.00    -0.388 N 
HETATM   18  C15 UNL     1      21.621   3.255  51.726  1.00  0.00     0.124 C 
HETATM   19  C16 UNL     1      23.155   3.560  51.584  1.00  0.00    -0.031 C 
HETATM   20  C17 UNL     1      23.686   4.182  52.853  1.00  0.00     0.048 C 
HETATM   21  C18 UNL     1      24.217   3.561  50.739  1.00  0.00     0.051 C 
HETATM   22  C19 UNL     1      24.178   3.178  49.327  1.00  0.00     0.101 C 
HETATM   23  H6  UNL     1      21.323   0.707  47.911  1.00  0.00     0.321 HD
HETATM   24  H13 UNL     1      20.602   4.931  52.551  1.00  0.00     0.156 HD
ENDROOT
BRANCH   1  25
HETATM   25  C2  UNL     1      22.263   1.261  50.756  1.00  0.00     0.013 C 
HETATM   26  C1  UNL     1      21.725   0.262  51.822  1.00  0.00     0.006 C 
ENDBRANCH   1  25
BRANCH  21  27
HETATM   27  O2  UNL     1      25.559   3.929  51.016  1.00  0.00    -0.364 OA
HETATM   28  H18 UNL     1      25.811   4.861  50.700  1.00  0.00     0.217 HD
ENDBRANCH  21  27
TORSDOF 2
ENDMDL
MODEL 6
REMARK VINA RESULT:      -6.8      9.013     11.151
REMARK  2 active torsions:
REMARK  status: ('A' for Active; 'I' for Inactive)
REMARK    1  A    between atoms: C2_2  and  C3_3 
REMARK    2  A    between atoms: C18_23  and  O2_24 
ROOT
HETATM    1  C3  UNL     1      33.502   7.341  47.655  1.00  0.00     0.062 C 
HETATM    2  C4  UNL     1      33.613   6.419  46.668  1.00  0.00     0.310 A 
HETATM    3  N1  UNL     1      34.451   6.971  45.605  1.00  0.00     0.136 N 
HETATM    4  C5  UNL     1      32.993   7.392  45.499  1.00  0.00     0.320 A 
HETATM    5  C6  UNL     1      31.870   8.149  45.647  1.00  0.00    -0.035 C 
HETATM    6  C7  UNL     1      30.540   7.707  45.144  1.00  0.00     0.019 C 
HETATM    7  C8  UNL     1      29.648   7.920  46.070  1.00  0.00    -0.008 C 
HETATM    8  C9  UNL     1      29.719   7.089  47.037  1.00  0.00     0.034 A 
HETATM    9 BR1  UNL     1      28.613   6.056  48.164  1.00  0.00    -0.087 Br
HETATM   10  C10 UNL     1      30.758   6.443  47.798  1.00  0.00     0.133 A 
HETATM   11  C11 UNL     1      31.515   5.320  47.709  1.00  0.00     0.022 C 
HETATM   12  C12 UNL     1      32.524   4.344  48.116  1.00  0.00     0.019 C 
HETATM   13  C13 UNL     1      32.939   3.266  47.494  1.00  0.00     0.118 C 
HETATM   14  N2  UNL     1      32.079   3.450  46.331  1.00  0.00    -0.249 NA
HETATM   15  C14 UNL     1      32.476   4.499  45.578  1.00  0.00     0.254 C 
HETATM   16  O1  UNL     1      33.539   5.295  45.855  1.00  0.00    -0.301 OA
HETATM   17  N3  UNL     1      31.549   6.628  49.001  1.00  0.00    -0.388 N 
HETATM   18  C15 UNL     1      32.632   7.566  48.795  1.00  0.00     0.124 C 
HETATM   19  C16 UNL     1      31.840   8.886  48.482  1.00  0.00    -0.031 C 
HETATM   20  C17 UNL     1      31.164   9.401  49.730  1.00  0.00     0.048 C 
HETATM   21  C18 UNL     1      31.441   9.740  47.507  1.00  0.00     0.051 C 
HETATM   22  C19 UNL     1      31.722   9.589  46.078  1.00  0.00     0.101 C 
HETATM   23  H6  UNL     1      34.885   7.444  44.790  1.00  0.00     0.321 HD
HETATM   24  H13 UNL     1      31.433   6.231  49.938  1.00  0.00     0.156 HD
ENDROOT
BRANCH   1  25
HETATM   25  C2  UNL     1      34.244   8.623  47.524  1.00  0.00     0.013 C 
HETATM   26  C1  UNL     1      35.576   8.499  48.322  1.00  0.00     0.006 C 
ENDBRANCH   1  25
BRANCH  21  27
HETATM   27  O2  UNL     1      30.678  10.930  47.638  1.00  0.00    -0.364 OA
HETATM   28  H18 UNL     1      29.841  10.957  47.062  1.00  0.00     0.217 HD
ENDBRANCH  21  27
TORSDOF 2
ENDMDL
MODEL 7
REMARK VINA RESULT:      -6.7      8.229     11.226
REMARK  2 active torsions:
REMARK  status: ('A' for Active; 'I' for Inactive)
REMARK    1  A    between atoms: C2_2  and  C3_3 
REMARK    2  A    between atoms: C18_23  and  O2_24 
ROOT
HETATM    1  C3  UNL     1      31.146   6.049  47.294  1.00  0.00     0.062 C 
HETATM    2  C4  UNL     1      32.227   5.233  47.271  1.00  0.00     0.310 A 
HETATM    3  N1  UNL     1      32.318   4.544  48.558  1.00  0.00     0.136 N 
HETATM    4  C5  UNL     1      32.952   5.927  48.571  1.00  0.00     0.320 A 
HETATM    5  C6  UNL     1      33.075   7.272  48.754  1.00  0.00    -0.035 C 
HETATM    6  C7  UNL     1      34.324   8.010  48.419  1.00  0.00     0.019 C 
HETATM    7  C8  UNL     1      34.011   9.093  47.766  1.00  0.00    -0.008 C 
HETATM    8  C9  UNL     1      33.650   8.869  46.562  1.00  0.00     0.034 A 
HETATM    9 BR1  UNL     1      33.868   9.551  44.816  1.00  0.00    -0.087 Br
HETATM   10  C10 UNL     1      32.858   7.888  45.864  1.00  0.00     0.133 A 
HETATM   11  C11 UNL     1      33.047   6.675  45.286  1.00  0.00     0.022 C 
HETATM   12  C12 UNL     1      32.678   5.458  44.563  1.00  0.00     0.019 C 
HETATM   13  C13 UNL     1      33.409   4.409  44.272  1.00  0.00     0.118 C 
HETATM   14  N2  UNL     1      34.613   4.904  44.930  1.00  0.00    -0.249 NA
HETATM   15  C14 UNL     1      34.478   4.910  46.275  1.00  0.00     0.254 C 
HETATM   16  O1  UNL     1      33.369   4.512  46.945  1.00  0.00    -0.301 OA
HETATM   17  N3  UNL     1      31.493   7.647  45.433  1.00  0.00    -0.388 N 
HETATM   18  C15 UNL     1      30.660   7.178  46.520  1.00  0.00     0.124 C 
HETATM   19  C16 UNL     1      30.692   8.414  47.488  1.00  0.00    -0.031 C 
HETATM   20  C17 UNL     1      29.896   9.557  46.907  1.00  0.00     0.048 C 
HETATM   21  C18 UNL     1      31.217   8.918  48.634  1.00  0.00     0.051 C 
HETATM   22  C19 UNL     1      32.181   8.235  49.498  1.00  0.00     0.101 C 
HETATM   23  H6  UNL     1      32.474   4.213  49.529  1.00  0.00     0.321 HD
HETATM   24  H13 UNL     1      31.052   7.787  44.520  1.00  0.00     0.156 HD
ENDROOT
BRANCH   1  25
HETATM   25  C2  UNL     1      30.275   6.054  48.500  1.00  0.00     0.013 C 
HETATM   26  C1  UNL     1      28.907   5.417  48.116  1.00  0.00     0.006 C 
ENDBRANCH   1  25
BRANCH  21  27
HETATM   27  O2  UNL     1      30.970  10.181  49.232  1.00  0.00    -0.364 OA
HETATM   28  H18 UNL     1      30.004  10.490  49.174  1.00  0.00     0.217 HD
ENDBRANCH  21  27
TORSDOF 2
ENDMDL
MODEL 8
REMARK VINA RESULT:      -6.6     23.764     26.169
REMARK  2 active torsions:
REMARK  status: ('A' for Active; 'I' for Inactive)
REMARK    1  A    between atoms: C2_2  and  C3_3 
REMARK    2  A    between atoms: C18_23  and  O2_24 
ROOT
HETATM    1  C3  UNL     1      38.395  -1.564  68.344  1.00  0.00     0.062 C 
HETATM    2  C4  UNL     1      37.651  -0.560  68.869  1.00  0.00     0.310 A 
HETATM    3  N1  UNL     1      37.338   0.394  67.806  1.00  0.00     0.136 N 
HETATM    4  C5  UNL     1      38.700   0.629  68.443  1.00  0.00     0.320 A 
HETATM    5  C6  UNL     1      40.048   0.566  68.631  1.00  0.00    -0.035 C 
HETATM    6  C7  UNL     1      40.721   1.213  69.790  1.00  0.00     0.019 C 
HETATM    7  C8  UNL     1      41.575   0.373  70.304  1.00  0.00    -0.008 C 
HETATM    8  C9  UNL     1      41.019  -0.566  70.967  1.00  0.00     0.034 A 
HETATM    9 BR1  UNL     1      41.214  -1.542  72.571  1.00  0.00    -0.087 Br
HETATM   10  C10 UNL     1      39.853  -1.403  70.836  1.00  0.00     0.133 A 
HETATM   11  C11 UNL     1      38.538  -1.349  71.168  1.00  0.00     0.022 C 
HETATM   12  C12 UNL     1      37.157  -1.820  71.269  1.00  0.00     0.019 C 
HETATM   13  C13 UNL     1      36.101  -1.204  71.743  1.00  0.00     0.118 C 
HETATM   14  N2  UNL     1      36.806   0.031  72.065  1.00  0.00    -0.249 NA
HETATM   15  C14 UNL     1      37.168   0.704  70.951  1.00  0.00     0.254 C 
HETATM   16  O1  UNL     1      36.918   0.295  69.682  1.00  0.00    -0.301 OA
HETATM   17  N3  UNL     1      39.447  -2.684  70.287  1.00  0.00    -0.388 N 
HETATM   18  C15 UNL     1      39.252  -2.620  68.854  1.00  0.00     0.124 C 
HETATM   19  C16 UNL     1      40.703  -2.277  68.361  1.00  0.00    -0.031 C 
HETATM   20  C17 UNL     1      41.612  -3.469  68.536  1.00  0.00     0.048 C 
HETATM   21  C18 UNL     1      41.519  -1.297  67.896  1.00  0.00     0.051 C 
HETATM   22  C19 UNL     1      41.136   0.100  67.693  1.00  0.00     0.101 C 
HETATM   23  H6  UNL     1      37.288   1.145  67.093  1.00  0.00     0.321 HD
HETATM   24  H13 UNL     1      39.317  -3.590  70.746  1.00  0.00     0.156 HD
ENDROOT
BRANCH   1  25
HETATM   25  C2  UNL     1      38.687  -1.553  66.886  1.00  0.00     0.013 C 
HETATM   26  C1  UNL     1      38.204  -2.904  66.282  1.00  0.00     0.006 C 
ENDBRANCH   1  25
BRANCH  21  27
HETATM   27  O2  UNL     1      42.885  -1.395  67.523  1.00  0.00    -0.364 OA
HETATM   28  H18 UNL     1      43.117  -0.923  66.654  1.00  0.00     0.217 HD
ENDBRANCH  21  27
TORSDOF 2
ENDMDL
MODEL 9
REMARK VINA RESULT:      -6.5      2.347      3.591
REMARK  2 active torsions:
REMARK  status: ('A' for Active; 'I' for Inactive)
REMARK    1  A    between atoms: C2_2  and  C3_3 
REMARK    2  A    between atoms: C18_23  and  O2_24 
ROOT
HETATM    1  C3  UNL     1      22.880   2.053  50.295  1.00  0.00     0.062 C 
HETATM    2  C4  UNL     1      23.413   1.836  51.522  1.00  0.00     0.310 A 
HETATM    3  N1  UNL     1      22.350   1.383  52.418  1.00  0.00     0.136 N 
HETATM    4  C5  UNL     1      22.424   2.897  52.291  1.00  0.00     0.320 A 
HETATM    5  C6  UNL     1      22.150   4.155  51.843  1.00  0.00    -0.035 C 
HETATM    6  C7  UNL     1      22.855   5.357  52.366  1.00  0.00     0.019 C 
HETATM    7  C8  UNL     1      23.207   6.109  51.362  1.00  0.00    -0.008 C 
HETATM    8  C9  UNL     1      24.195   5.639  50.703  1.00  0.00     0.034 A 
HETATM    9 BR1  UNL     1      25.799   6.190  49.876  1.00  0.00    -0.087 Br
HETATM   10  C10 UNL     1      24.640   4.346  50.249  1.00  0.00     0.133 A 
HETATM   11  C11 UNL     1      25.381   3.316  50.729  1.00  0.00     0.022 C 
HETATM   12  C12 UNL     1      26.039   2.010  50.710  1.00  0.00     0.019 C 
HETATM   13  C13 UNL     1      26.709   1.402  51.659  1.00  0.00     0.118 C 
HETATM   14  N2  UNL     1      26.515   2.455  52.649  1.00  0.00    -0.249 NA
HETATM   15  C14 UNL     1      25.232   2.513  53.069  1.00  0.00     0.254 C 
HETATM   16  O1  UNL     1      24.236   1.704  52.633  1.00  0.00    -0.301 OA
HETATM   17  N3  UNL     1      24.534   3.461  49.103  1.00  0.00    -0.388 N 
HETATM   18  C15 UNL     1      23.271   2.753  49.084  1.00  0.00     0.124 C 
HETATM   19  C16 UNL     1      22.255   3.940  48.923  1.00  0.00    -0.031 C 
HETATM   20  C17 UNL     1      22.348   4.526  47.535  1.00  0.00     0.048 C 
HETATM   21  C18 UNL     1      21.353   4.728  49.561  1.00  0.00     0.051 C 
HETATM   22  C19 UNL     1      21.013   4.650  50.982  1.00  0.00     0.101 C 
HETATM   23  H6  UNL     1      21.559   1.248  53.076  1.00  0.00     0.321 HD
HETATM   24  H13 UNL     1      25.182   3.300  48.328  1.00  0.00     0.156 HD
ENDROOT
BRANCH   1  25
HETATM   25  C2  UNL     1      21.440   1.756  50.075  1.00  0.00     0.013 C 
HETATM   26  C1  UNL     1      21.327   0.706  48.930  1.00  0.00     0.006 C 
ENDBRANCH   1  25
BRANCH  21  27
HETATM   27  O2  UNL     1      20.565   5.777  49.019  1.00  0.00    -0.364 OA
HETATM   28  H18 UNL     1      20.281   6.480  49.696  1.00  0.00     0.217 HD
ENDBRANCH  21  27
TORSDOF 2
ENDMDL
