MODEL 1
REMARK VINA RESULT:      -7.2      0.000      0.000
REMARK  4 active torsions:
REMARK  status: ('A' for Active; 'I' for Inactive)
REMARK    1  A    between atoms: N1_1  and  C1_2 
REMARK    2  A    between atoms: N2_5  and  N3_6 
REMARK    3  A    between atoms: C5_10  and  N6_11 
REMARK    4  A    between atoms: N6_11  and  P1_12 
ROOT
HETATM    1  N3  UNL     1      28.754   8.587  48.989  1.00  0.00    -0.217 NA
HETATM    2  C4  UNL     1      28.507  10.034  48.870  1.00  0.00     0.217 C 
HETATM    3  N4  UNL     1      27.885  10.474  50.104  1.00  0.00    -0.245 NA
HETATM    4  N5  UNL     1      27.419   9.412  50.890  1.00  0.00    -0.240 NA
HETATM    5  C5  UNL     1      26.627   8.529  50.049  1.00  0.00     0.161 C 
HETATM    6  C10 UNL     1      27.468   7.977  48.916  1.00  0.00     0.151 C 
HETATM    7  H10 UNL     1      28.473  11.131  50.634  1.00  0.00     0.142 HD
HETATM    8  H11 UNL     1      28.278   8.916  51.243  1.00  0.00     0.142 HD
ENDROOT
BRANCH   1   9
HETATM    9  N2  UNL     1      29.677   8.154  48.076  1.00  0.00    -0.344 N 
HETATM   10  C3  UNL     1      30.997   8.618  48.357  1.00  0.00     0.139 C 
HETATM   11  C2  UNL     1      31.934   7.618  48.940  1.00  0.00     0.056 C 
HETATM   12  C1  UNL     1      31.798   6.226  48.418  1.00  0.00     0.221 C 
HETATM   13  C12 UNL     1      30.347   5.805  48.395  1.00  0.00     0.056 C 
HETATM   14  C11 UNL     1      29.578   6.825  47.597  1.00  0.00     0.139 C 
BRANCH  12  15
HETATM   15  N1  UNL     1      32.525   5.342  49.313  1.00  0.00     0.083 N 
HETATM   16  H1  UNL     1      32.105   4.384  49.358  1.00  0.00     0.313 HD
HETATM   17  H2  UNL     1      32.742   5.747  50.235  1.00  0.00     0.313 HD
ENDBRANCH  12  15
ENDBRANCH   1   9
BRANCH   5  18
HETATM   18  N6  UNL     1      26.122   7.475  50.907  1.00  0.00    -0.277 NA
HETATM   19  H13 UNL     1      26.927   6.944  51.357  1.00  0.00     0.128 HD
BRANCH  18  20
HETATM   20  P1  UNL     1      25.064   6.374  49.974  1.00  0.00    -0.019 P 
HETATM   21  C6  UNL     1      23.907   5.592  51.172  1.00  0.00     0.037 C 
HETATM   22  C7  UNL     1      24.033   4.293  50.922  1.00  0.00    -0.009 C 
HETATM   23 BR1  UNL     1      22.969   3.072  51.981  1.00  0.00    -0.056 Br
HETATM   24  C8  UNL     1      24.938   3.805  49.883  1.00  0.00     0.052 C 
HETATM   25  C9  UNL     1      26.057   4.801  49.667  1.00  0.00     0.059 C 
ENDBRANCH  18  20
ENDBRANCH   5  18
TORSDOF 4
ENDMDL
MODEL 2
REMARK VINA RESULT:      -7.0      2.931      4.404
REMARK  4 active torsions:
REMARK  status: ('A' for Active; 'I' for Inactive)
REMARK    1  A    between atoms: N1_1  and  C1_2 
REMARK    2  A    between atoms: N2_5  and  N3_6 
REMARK    3  A    between atoms: C5_10  and  N6_11 
REMARK    4  A    between atoms: N6_11  and  P1_12 
ROOT
HETATM    1  N3  UNL     1      25.023   6.023  50.173  1.00  0.00    -0.217 NA
HETATM    2  C4  UNL     1      24.235   7.267  50.174  1.00  0.00     0.217 C 
HETATM    3  N4  UNL     1      24.021   7.649  51.557  1.00  0.00    -0.245 NA
HETATM    4  N5  UNL     1      24.321   6.620  52.460  1.00  0.00    -0.240 NA
HETATM    5  C5  UNL     1      23.653   5.408  52.016  1.00  0.00     0.161 C 
HETATM    6  C10 UNL     1      24.132   5.011  50.634  1.00  0.00     0.151 C 
HETATM    7  H10 UNL     1      24.480   8.536  51.801  1.00  0.00     0.142 HD
HETATM    8  H11 UNL     1      25.367   6.501  52.424  1.00  0.00     0.142 HD
ENDROOT
BRANCH   1   9
HETATM    9  N2  UNL     1      25.612   5.797  48.958  1.00  0.00    -0.344 N 
HETATM   10  C3  UNL     1      26.206   6.969  48.402  1.00  0.00     0.139 C 
HETATM   11  C2  UNL     1      27.691   7.051  48.477  1.00  0.00     0.056 C 
HETATM   12  C1  UNL     1      28.419   5.762  48.285  1.00  0.00     0.221 C 
HETATM   13  C12 UNL     1      27.795   4.668  49.121  1.00  0.00     0.056 C 
HETATM   14  C11 UNL     1      26.332   4.592  48.773  1.00  0.00     0.139 C 
BRANCH  12  15
HETATM   15  N1  UNL     1      29.790   5.955  48.719  1.00  0.00     0.083 N 
HETATM   16  H1  UNL     1      29.950   6.903  49.133  1.00  0.00     0.313 HD
HETATM   17  H2  UNL     1      30.503   5.675  48.030  1.00  0.00     0.313 HD
ENDBRANCH  12  15
ENDBRANCH   1   9
BRANCH   5  18
HETATM   18  N6  UNL     1      23.944   4.384  53.000  1.00  0.00    -0.277 NA
HETATM   19  H13 UNL     1      24.787   4.661  53.587  1.00  0.00     0.128 HD
BRANCH  18  20
HETATM   20  P1  UNL     1      24.209   2.809  52.193  1.00  0.00    -0.019 P 
HETATM   21  C6  UNL     1      22.824   1.706  52.692  1.00  0.00     0.037 C 
HETATM   22  C7  UNL     1      23.440   0.613  53.131  1.00  0.00    -0.009 C 
HETATM   23 BR1  UNL     1      22.335  -0.841  53.769  1.00  0.00    -0.056 Br
HETATM   24  C8  UNL     1      24.898   0.512  53.126  1.00  0.00     0.052 C 
HETATM   25  C9  UNL     1      25.510   1.894  53.206  1.00  0.00     0.059 C 
ENDBRANCH  18  20
ENDBRANCH   5  18
TORSDOF 4
ENDMDL
MODEL 3
REMARK VINA RESULT:      -6.9      3.877      5.875
REMARK  4 active torsions:
REMARK  status: ('A' for Active; 'I' for Inactive)
REMARK    1  A    between atoms: N1_1  and  C1_2 
REMARK    2  A    between atoms: N2_5  and  N3_6 
REMARK    3  A    between atoms: C5_10  and  N6_11 
REMARK    4  A    between atoms: N6_11  and  P1_12 
ROOT
HETATM    1  N3  UNL     1      24.537   5.404  50.785  1.00  0.00    -0.217 NA
HETATM    2  C4  UNL     1      23.425   5.825  51.654  1.00  0.00     0.217 C 
HETATM    3  N4  UNL     1      23.560   5.115  52.912  1.00  0.00    -0.245 NA
HETATM    4  N5  UNL     1      24.464   4.046  52.841  1.00  0.00    -0.240 NA
HETATM    5  C5  UNL     1      24.132   3.239  51.679  1.00  0.00     0.161 C 
HETATM    6  C10 UNL     1      24.237   4.063  50.411  1.00  0.00     0.151 C 
HETATM    7  H10 UNL     1      23.750   5.742  53.705  1.00  0.00     0.142 HD
HETATM    8  H11 UNL     1      25.416   4.480  52.731  1.00  0.00     0.142 HD
ENDROOT
BRANCH   1   9
HETATM    9  N2  UNL     1      24.737   6.285  49.756  1.00  0.00    -0.344 N 
HETATM   10  C3  UNL     1      25.012   7.611  50.206  1.00  0.00     0.139 C 
HETATM   11  C2  UNL     1      26.432   8.052  50.115  1.00  0.00     0.056 C 
HETATM   12  C1  UNL     1      27.183   7.568  48.919  1.00  0.00     0.221 C 
HETATM   13  C12 UNL     1      26.959   6.088  48.713  1.00  0.00     0.056 C 
HETATM   14  C11 UNL     1      25.475   5.848  48.630  1.00  0.00     0.139 C 
BRANCH  12  15
HETATM   15  N1  UNL     1      28.597   7.796  49.159  1.00  0.00     0.083 N 
HETATM   16  H1  UNL     1      28.832   8.813  49.235  1.00  0.00     0.313 HD
HETATM   17  H2  UNL     1      29.229   7.267  48.542  1.00  0.00     0.313 HD
ENDBRANCH  12  15
ENDBRANCH   1   9
BRANCH   5  18
HETATM   18  N6  UNL     1      25.052   2.119  51.669  1.00  0.00    -0.277 NA
HETATM   19  H13 UNL     1      24.543   1.221  51.412  1.00  0.00     0.128 HD
BRANCH  18  20
HETATM   20  P1  UNL     1      25.861   1.970  53.259  1.00  0.00    -0.019 P 
HETATM   21  C6  UNL     1      27.624   1.562  52.932  1.00  0.00     0.037 C 
HETATM   22  C7  UNL     1      27.839   0.488  53.685  1.00  0.00    -0.009 C 
HETATM   23 BR1  UNL     1      29.609  -0.294  53.644  1.00  0.00    -0.056 Br
HETATM   24  C8  UNL     1      26.779  -0.079  54.516  1.00  0.00     0.052 C 
HETATM   25  C9  UNL     1      25.427   0.261  53.928  1.00  0.00     0.059 C 
ENDBRANCH  18  20
ENDBRANCH   5  18
TORSDOF 4
ENDMDL
MODEL 4
REMARK VINA RESULT:      -6.8      2.500      3.856
REMARK  4 active torsions:
REMARK  status: ('A' for Active; 'I' for Inactive)
REMARK    1  A    between atoms: N1_1  and  C1_2 
REMARK    2  A    between atoms: N2_5  and  N3_6 
REMARK    3  A    between atoms: C5_10  and  N6_11 
REMARK    4  A    between atoms: N6_11  and  P1_12 
ROOT
HETATM    1  N3  UNL     1      25.569   7.494  49.903  1.00  0.00    -0.217 NA
HETATM    2  C4  UNL     1      24.345   8.235  50.251  1.00  0.00     0.217 C 
HETATM    3  N4  UNL     1      23.874   7.729  51.526  1.00  0.00    -0.245 NA
HETATM    4  N5  UNL     1      24.488   6.524  51.895  1.00  0.00    -0.240 NA
HETATM    5  C5  UNL     1      24.414   5.606  50.770  1.00  0.00     0.161 C 
HETATM    6  C10 UNL     1      25.132   6.181  49.565  1.00  0.00     0.151 C 
HETATM    7  H10 UNL     1      23.907   8.435  52.272  1.00  0.00     0.142 HD
HETATM    8  H11 UNL     1      25.489   6.765  52.111  1.00  0.00     0.142 HD
ENDROOT
BRANCH   1   9
HETATM    9  N2  UNL     1      26.303   8.147  48.949  1.00  0.00    -0.344 N 
HETATM   10  C3  UNL     1      26.870   9.368  49.424  1.00  0.00     0.139 C 
HETATM   11  C2  UNL     1      28.329   9.339  49.724  1.00  0.00     0.056 C 
HETATM   12  C1  UNL     1      29.162   8.514  48.800  1.00  0.00     0.221 C 
HETATM   13  C12 UNL     1      28.528   7.161  48.577  1.00  0.00     0.056 C 
HETATM   14  C11 UNL     1      27.121   7.379  48.087  1.00  0.00     0.139 C 
BRANCH  12  15
HETATM   15  N1  UNL     1      30.460   8.325  49.421  1.00  0.00     0.083 N 
HETATM   16  H1  UNL     1      31.250   8.599  48.791  1.00  0.00     0.313 HD
HETATM   17  H2  UNL     1      30.589   7.410  49.877  1.00  0.00     0.313 HD
ENDBRANCH  12  15
ENDBRANCH   1   9
BRANCH   5  18
HETATM   18  N6  UNL     1      25.011   4.359  51.207  1.00  0.00    -0.277 NA
HETATM   19  H13 UNL     1      25.343   3.792  50.370  1.00  0.00     0.128 HD
BRANCH  18  20
HETATM   20  P1  UNL     1      23.845   3.429  52.196  1.00  0.00    -0.019 P 
HETATM   21  C6  UNL     1      24.824   2.275  53.241  1.00  0.00     0.037 C 
HETATM   22  C7  UNL     1      24.259   1.093  53.012  1.00  0.00    -0.009 C 
HETATM   23 BR1  UNL     1      24.993  -0.443  53.932  1.00  0.00    -0.056 Br
HETATM   24  C8  UNL     1      23.122   0.961  52.103  1.00  0.00     0.052 C 
HETATM   25  C9  UNL     1      23.148   2.077  51.081  1.00  0.00     0.059 C 
ENDBRANCH  18  20
ENDBRANCH   5  18
TORSDOF 4
ENDMDL
MODEL 5
REMARK VINA RESULT:      -6.7      4.173      6.359
REMARK  4 active torsions:
REMARK  status: ('A' for Active; 'I' for Inactive)
REMARK    1  A    between atoms: N1_1  and  C1_2 
REMARK    2  A    between atoms: N2_5  and  N3_6 
REMARK    3  A    between atoms: C5_10  and  N6_11 
REMARK    4  A    between atoms: N6_11  and  P1_12 
ROOT
HETATM    1  N3  UNL     1      24.801   4.383  51.212  1.00  0.00    -0.217 NA
HETATM    2  C4  UNL     1      23.682   4.533  52.157  1.00  0.00     0.217 C 
HETATM    3  N4  UNL     1      24.092   3.945  53.419  1.00  0.00    -0.245 NA
HETATM    4  N5  UNL     1      25.243   3.153  53.303  1.00  0.00    -0.240 NA
HETATM    5  C5  UNL     1      25.059   2.233  52.193  1.00  0.00     0.161 C 
HETATM    6  C10 UNL     1      24.848   2.994  50.899  1.00  0.00     0.151 C 
HETATM    7  H10 UNL     1      24.162   4.636  54.177  1.00  0.00     0.142 HD
HETATM    8  H11 UNL     1      26.033   3.820  53.105  1.00  0.00     0.142 HD
ENDROOT
BRANCH   1   9
HETATM    9  N2  UNL     1      24.683   5.235  50.148  1.00  0.00    -0.344 N 
HETATM   10  C3  UNL     1      24.612   6.606  50.538  1.00  0.00     0.139 C 
HETATM   11  C2  UNL     1      25.847   7.412  50.328  1.00  0.00     0.056 C 
HETATM   12  C1  UNL     1      26.622   7.095  49.092  1.00  0.00     0.221 C 
HETATM   13  C12 UNL     1      26.800   5.602  48.944  1.00  0.00     0.056 C 
HETATM   14  C11 UNL     1      25.436   4.963  48.981  1.00  0.00     0.139 C 
BRANCH  12  15
HETATM   15  N1  UNL     1      27.931   7.710  49.216  1.00  0.00     0.083 N 
HETATM   16  H1  UNL     1      28.702   7.079  48.898  1.00  0.00     0.313 HD
HETATM   17  H2  UNL     1      28.109   8.162  50.125  1.00  0.00     0.313 HD
ENDBRANCH  12  15
ENDBRANCH   1   9
BRANCH   5  18
HETATM   18  N6  UNL     1      26.244   1.399  52.139  1.00  0.00    -0.277 NA
HETATM   19  H13 UNL     1      26.586   1.304  51.136  1.00  0.00     0.128 HD
BRANCH  18  20
HETATM   20  P1  UNL     1      25.907  -0.203  52.861  1.00  0.00    -0.019 P 
HETATM   21  C6  UNL     1      24.078  -0.371  52.971  1.00  0.00     0.037 C 
HETATM   22  C7  UNL     1      23.874  -0.711  54.240  1.00  0.00    -0.009 C 
HETATM   23 BR1  UNL     1      22.046  -0.995  54.806  1.00  0.00    -0.056 Br
HETATM   24  C8  UNL     1      24.989  -0.869  55.171  1.00  0.00     0.052 C 
HETATM   25  C9  UNL     1      26.159  -0.021  54.721  1.00  0.00     0.059 C 
ENDBRANCH  18  20
ENDBRANCH   5  18
TORSDOF 4
ENDMDL
MODEL 6
REMARK VINA RESULT:      -6.5      4.918      7.189
REMARK  4 active torsions:
REMARK  status: ('A' for Active; 'I' for Inactive)
REMARK    1  A    between atoms: N1_1  and  C1_2 
REMARK    2  A    between atoms: N2_5  and  N3_6 
REMARK    3  A    between atoms: C5_10  and  N6_11 
REMARK    4  A    between atoms: N6_11  and  P1_12 
ROOT
HETATM    1  N3  UNL     1      30.338   7.411  48.148  1.00  0.00    -0.217 NA
HETATM    2  C4  UNL     1      29.308   6.360  48.081  1.00  0.00     0.217 C 
HETATM    3  N4  UNL     1      29.600   5.393  49.122  1.00  0.00    -0.245 NA
HETATM    4  N5  UNL     1      30.887   5.541  49.659  1.00  0.00    -0.240 NA
HETATM    5  C5  UNL     1      31.837   5.613  48.562  1.00  0.00     0.161 C 
HETATM    6  C10 UNL     1      31.532   6.800  47.669  1.00  0.00     0.151 C 
HETATM    7  H10 UNL     1      28.871   5.355  49.847  1.00  0.00     0.142 HD
HETATM    8  H11 UNL     1      30.872   6.445  50.197  1.00  0.00     0.142 HD
ENDROOT
BRANCH   1   9
HETATM    9  N2  UNL     1      29.943   8.550  47.500  1.00  0.00    -0.344 N 
HETATM   10  C3  UNL     1      28.763   9.127  48.058  1.00  0.00     0.139 C 
HETATM   11  C2  UNL     1      28.961  10.344  48.894  1.00  0.00     0.056 C 
HETATM   12  C1  UNL     1      30.023  11.283  48.425  1.00  0.00     0.221 C 
HETATM   13  C12 UNL     1      31.287  10.529  48.084  1.00  0.00     0.056 C 
HETATM   14  C11 UNL     1      30.939   9.464  47.078  1.00  0.00     0.139 C 
BRANCH  12  15
HETATM   15  N1  UNL     1      30.309  12.207  49.508  1.00  0.00     0.083 N 
HETATM   16  H1  UNL     1      30.719  13.108  49.169  1.00  0.00     0.313 HD
HETATM   17  H2  UNL     1      30.813  11.792  50.305  1.00  0.00     0.313 HD
ENDBRANCH  12  15
ENDBRANCH   1   9
BRANCH   5  18
HETATM   18  N6  UNL     1      33.157   5.713  49.156  1.00  0.00    -0.277 NA
HETATM   19  H13 UNL     1      33.462   6.730  49.215  1.00  0.00     0.128 HD
BRANCH  18  20
HETATM   20  P1  UNL     1      34.331   4.740  48.220  1.00  0.00    -0.019 P 
HETATM   21  C6  UNL     1      34.423   5.477  46.537  1.00  0.00     0.037 C 
HETATM   22  C7  UNL     1      34.224   4.438  45.732  1.00  0.00    -0.009 C 
HETATM   23 BR1  UNL     1      34.240   4.768  43.826  1.00  0.00    -0.056 Br
HETATM   24  C8  UNL     1      34.006   3.095  46.268  1.00  0.00     0.052 C 
HETATM   25  C9  UNL     1      33.421   3.186  47.661  1.00  0.00     0.059 C 
ENDBRANCH  18  20
ENDBRANCH   5  18
TORSDOF 4
ENDMDL
MODEL 7
REMARK VINA RESULT:      -6.4      4.091      6.636
REMARK  4 active torsions:
REMARK  status: ('A' for Active; 'I' for Inactive)
REMARK    1  A    between atoms: N1_1  and  C1_2 
REMARK    2  A    between atoms: N2_5  and  N3_6 
REMARK    3  A    between atoms: C5_10  and  N6_11 
REMARK    4  A    between atoms: N6_11  and  P1_12 
ROOT
HETATM    1  N3  UNL     1      29.052   7.448  48.019  1.00  0.00    -0.217 NA
HETATM    2  C4  UNL     1      28.214   6.270  48.300  1.00  0.00     0.217 C 
HETATM    3  N4  UNL     1      28.993   5.365  49.124  1.00  0.00    -0.245 NA
HETATM    4  N5  UNL     1      30.356   5.689  49.151  1.00  0.00    -0.240 NA
HETATM    5  C5  UNL     1      30.814   5.869  47.783  1.00  0.00     0.161 C 
HETATM    6  C10 UNL     1      30.050   6.992  47.110  1.00  0.00     0.151 C 
HETATM    7  H10 UNL     1      28.596   5.242  50.066  1.00  0.00     0.142 HD
HETATM    8  H11 UNL     1      30.428   6.591  49.688  1.00  0.00     0.142 HD
ENDROOT
BRANCH   1   9
HETATM    9  N2  UNL     1      28.303   8.515  47.603  1.00  0.00    -0.344 N 
HETATM   10  C3  UNL     1      27.384   8.970  48.596  1.00  0.00     0.139 C 
HETATM   11  C2  UNL     1      27.756  10.226  49.306  1.00  0.00     0.056 C 
HETATM   12  C1  UNL     1      28.427  11.265  48.471  1.00  0.00     0.221 C 
HETATM   13  C12 UNL     1      29.529  10.650  47.640  1.00  0.00     0.056 C 
HETATM   14  C11 UNL     1      28.935   9.524  46.837  1.00  0.00     0.139 C 
BRANCH  12  15
HETATM   15  N1  UNL     1      29.012  12.246  49.367  1.00  0.00     0.083 N 
HETATM   16  H1  UNL     1      29.623  12.933  48.867  1.00  0.00     0.313 HD
HETATM   17  H2  UNL     1      29.438  11.852  50.218  1.00  0.00     0.313 HD
ENDBRANCH  12  15
ENDBRANCH   1   9
BRANCH   5  18
HETATM   18  N6  UNL     1      32.235   6.150  47.850  1.00  0.00    -0.277 NA
HETATM   19  H13 UNL     1      32.427   7.161  47.582  1.00  0.00     0.128 HD
BRANCH  18  20
HETATM   20  P1  UNL     1      33.138   5.019  46.798  1.00  0.00    -0.019 P 
HETATM   21  C6  UNL     1      32.074   3.538  46.558  1.00  0.00     0.037 C 
HETATM   22  C7  UNL     1      32.874   2.526  46.878  1.00  0.00    -0.009 C 
HETATM   23 BR1  UNL     1      32.144   0.738  46.765  1.00  0.00    -0.056 Br
HETATM   24  C8  UNL     1      34.256   2.756  47.296  1.00  0.00     0.052 C 
HETATM   25  C9  UNL     1      34.388   4.137  47.900  1.00  0.00     0.059 C 
ENDBRANCH  18  20
ENDBRANCH   5  18
TORSDOF 4
ENDMDL
MODEL 8
REMARK VINA RESULT:      -6.3      6.782      9.227
REMARK  4 active torsions:
REMARK  status: ('A' for Active; 'I' for Inactive)
REMARK    1  A    between atoms: N1_1  and  C1_2 
REMARK    2  A    between atoms: N2_5  and  N3_6 
REMARK    3  A    between atoms: C5_10  and  N6_11 
REMARK    4  A    between atoms: N6_11  and  P1_12 
ROOT
HETATM    1  N3  UNL     1      22.375   3.427  51.256  1.00  0.00    -0.217 NA
HETATM    2  C4  UNL     1      21.885   4.516  52.118  1.00  0.00     0.217 C 
HETATM    3  N4  UNL     1      23.022   5.351  52.456  1.00  0.00    -0.245 NA
HETATM    4  N5  UNL     1      24.251   4.747  52.159  1.00  0.00    -0.240 NA
HETATM    5  C5  UNL     1      24.250   3.404  52.717  1.00  0.00     0.161 C 
HETATM    6  C10 UNL     1      23.131   2.578  52.114  1.00  0.00     0.151 C 
HETATM    7  H10 UNL     1      22.946   6.302  52.071  1.00  0.00     0.142 HD
HETATM    8  H11 UNL     1      24.309   4.712  51.109  1.00  0.00     0.142 HD
ENDROOT
BRANCH   1   9
HETATM    9  N2  UNL     1      21.355   2.829  50.566  1.00  0.00    -0.344 N 
HETATM   10  C3  UNL     1      21.657   1.489  50.178  1.00  0.00     0.139 C 
HETATM   11  C2  UNL     1      21.000   0.413  50.971  1.00  0.00     0.056 C 
HETATM   12  C1  UNL     1      19.602   0.696  51.410  1.00  0.00     0.221 C 
HETATM   13  C12 UNL     1      19.501   2.082  52.005  1.00  0.00     0.056 C 
HETATM   14  C11 UNL     1      20.025   3.064  50.992  1.00  0.00     0.139 C 
BRANCH  12  15
HETATM   15  N1  UNL     1      19.249  -0.276  52.429  1.00  0.00     0.083 N 
HETATM   16  H1  UNL     1      20.089  -0.716  52.870  1.00  0.00     0.313 HD
HETATM   17  H2  UNL     1      18.523  -0.950  52.147  1.00  0.00     0.313 HD
ENDBRANCH  12  15
ENDBRANCH   1   9
BRANCH   5  18
HETATM   18  N6  UNL     1      25.552   2.832  52.436  1.00  0.00    -0.277 NA
HETATM   19  H13 UNL     1      25.607   2.513  51.423  1.00  0.00     0.128 HD
BRANCH  18  20
HETATM   20  P1  UNL     1      25.888   1.480  53.558  1.00  0.00    -0.019 P 
HETATM   21  C6  UNL     1      27.715   1.376  53.748  1.00  0.00     0.037 C 
HETATM   22  C7  UNL     1      27.981   0.099  53.492  1.00  0.00    -0.009 C 
HETATM   23 BR1  UNL     1      29.830  -0.464  53.581  1.00  0.00    -0.056 Br
HETATM   24  C8  UNL     1      26.916  -0.846  53.162  1.00  0.00     0.052 C 
HETATM   25  C9  UNL     1      25.745  -0.108  52.550  1.00  0.00     0.059 C 
ENDBRANCH  18  20
ENDBRANCH   5  18
TORSDOF 4
ENDMDL
MODEL 9
REMARK VINA RESULT:      -6.3      6.671      8.267
REMARK  4 active torsions:
REMARK  status: ('A' for Active; 'I' for Inactive)
REMARK    1  A    between atoms: N1_1  and  C1_2 
REMARK    2  A    between atoms: N2_5  and  N3_6 
REMARK    3  A    between atoms: C5_10  and  N6_11 
REMARK    4  A    between atoms: N6_11  and  P1_12 
ROOT
HETATM    1  N3  UNL     1      25.559   1.192  53.067  1.00  0.00    -0.217 NA
HETATM    2  C4  UNL     1      26.600   1.831  52.245  1.00  0.00     0.217 C 
HETATM    3  N4  UNL     1      26.097   3.128  51.831  1.00  0.00    -0.245 NA
HETATM    4  N5  UNL     1      24.718   3.270  52.040  1.00  0.00    -0.240 NA
HETATM    5  C5  UNL     1      24.046   2.109  51.479  1.00  0.00     0.161 C 
HETATM    6  C10 UNL     1      24.522   0.839  52.156  1.00  0.00     0.151 C 
HETATM    7  H10 UNL     1      26.639   3.909  52.223  1.00  0.00     0.142 HD
HETATM    8  H11 UNL     1      24.586   3.306  53.083  1.00  0.00     0.142 HD
ENDROOT
BRANCH   1   9
HETATM    9  N2  UNL     1      26.067   0.171  53.824  1.00  0.00    -0.344 N 
HETATM   10  C3  UNL     1      26.457  -0.959  53.045  1.00  0.00     0.139 C 
HETATM   11  C2  UNL     1      27.921  -1.136  52.834  1.00  0.00     0.056 C 
HETATM   12  C1  UNL     1      28.788  -0.778  53.995  1.00  0.00     0.221 C 
HETATM   13  C12 UNL     1      28.382   0.560  54.570  1.00  0.00     0.056 C 
HETATM   14  C11 UNL     1      26.916   0.496  54.909  1.00  0.00     0.139 C 
BRANCH  12  15
HETATM   15  N1  UNL     1      30.155  -0.684  53.517  1.00  0.00     0.083 N 
HETATM   16  H1  UNL     1      30.304   0.137  52.885  1.00  0.00     0.313 HD
HETATM   17  H2  UNL     1      30.546  -1.566  53.156  1.00  0.00     0.313 HD
ENDBRANCH  12  15
ENDBRANCH   1   9
BRANCH   5  18
HETATM   18  N6  UNL     1      22.623   2.317  51.668  1.00  0.00    -0.277 NA
HETATM   19  H13 UNL     1      22.444   2.887  52.547  1.00  0.00     0.128 HD
BRANCH  18  20
HETATM   20  P1  UNL     1      21.772   0.744  51.733  1.00  0.00    -0.019 P 
HETATM   21  C6  UNL     1      20.410   0.815  50.500  1.00  0.00     0.037 C 
HETATM   22  C7  UNL     1      19.339   0.450  51.199  1.00  0.00    -0.009 C 
HETATM   23 BR1  UNL     1      17.643   0.386  50.269  1.00  0.00    -0.056 Br
HETATM   24  C8  UNL     1      19.441   0.105  52.615  1.00  0.00     0.052 C 
HETATM   25  C9  UNL     1      20.630   0.809  53.232  1.00  0.00     0.059 C 
ENDBRANCH  18  20
ENDBRANCH   5  18
TORSDOF 4
ENDMDL
