MODEL 1
REMARK VINA RESULT:      -9.4      0.000      0.000
REMARK  3 active torsions:
REMARK  status: ('A' for Active; 'I' for Inactive)
REMARK    1  A    between atoms: O1_1  and  C1_2 
REMARK    2  A    between atoms: C15_20  and  O3_21 
REMARK    3  A    between atoms: C16_22  and  N4_23 
ROOT
HETATM    1  C1  UNL     1      22.582   6.833  50.396  1.00  0.00     0.392 C 
HETATM    2  O2  UNL     1      22.427   7.455  49.198  1.00  0.00    -0.231 OA
HETATM    3  N1  UNL     1      23.283   8.359  48.798  1.00  0.00    -0.294 N 
HETATM    4  C2  UNL     1      24.164   8.013  47.743  1.00  0.00     0.173 C 
HETATM    5  C3  UNL     1      25.262   7.093  48.077  1.00  0.00    -0.005 C 
HETATM    6  C4  UNL     1      26.402   6.468  48.286  1.00  0.00    -0.003 C 
HETATM    7  C5  UNL     1      27.243   5.371  48.710  1.00  0.00    -0.004 C 
HETATM    8  C6  UNL     1      26.992   4.211  49.230  1.00  0.00    -0.027 C 
HETATM    9  C7  UNL     1      26.092   3.153  49.747  1.00  0.00     0.027 C 
HETATM   10  C8  UNL     1      24.700   3.664  49.644  1.00  0.00     0.011 C 
HETATM   11  C9  UNL     1      23.617   2.764  50.180  1.00  0.00     0.025 C 
HETATM   12  C10 UNL     1      22.314   3.271  49.656  1.00  0.00     0.033 A 
HETATM   13  C11 UNL     1      21.032   3.028  49.332  1.00  0.00     0.122 A 
HETATM   14  N2  UNL     1      19.764   3.438  48.844  1.00  0.00    -0.294 NA
HETATM   15  C12 UNL     1      20.793   4.279  48.946  1.00  0.00     0.132 A 
HETATM   16  C13 UNL     1      22.156   4.724  49.249  1.00  0.00     0.132 A 
HETATM   17  N3  UNL     1      22.301   5.460  50.436  1.00  0.00    -0.354 N 
HETATM   18  C14 UNL     1      22.075   4.804  51.647  1.00  0.00     0.156 C 
HETATM   19  C15 UNL     1      23.172   4.067  52.310  1.00  0.00     0.158 C 
HETATM   20  C16 UNL     1      23.630   2.791  51.696  1.00  0.00     0.114 C 
HETATM   21  H3  UNL     1      23.658   9.028  49.479  1.00  0.00     0.188 HD
ENDROOT
BRANCH  20  22
HETATM   22  N4  UNL     1      23.101   1.670  52.353  1.00  0.00    -0.402 N 
HETATM   23  C17 UNL     1      21.740   1.545  52.632  1.00  0.00     0.147 C 
HETATM   24  C18 UNL     1      21.558   0.233  53.371  1.00  0.00     0.030 C 
HETATM   25  C19 UNL     1      22.413  -0.767  53.670  1.00  0.00     0.093 C 
HETATM   26  F1  UNL     1      22.081  -1.901  54.355  1.00  0.00    -0.211 F 
HETATM   27  C20 UNL     1      23.816  -0.545  53.184  1.00  0.00     0.089 C 
HETATM   28  C21 UNL     1      24.016   0.949  53.187  1.00  0.00     0.124 C 
ENDBRANCH  20  22
BRANCH  19  29
HETATM   29  O3  UNL     1      24.258   4.912  52.649  1.00  0.00    -0.392 OA
HETATM   30  H19 UNL     1      23.962   5.588  53.329  1.00  0.00     0.210 HD
ENDBRANCH  19  29
BRANCH   1  31
HETATM   31  O1  UNL     1      21.616   7.454  51.254  1.00  0.00    -0.353 OA
HETATM   32  H1  UNL     1      21.962   7.280  52.186  1.00  0.00     0.214 HD
ENDBRANCH   1  31
TORSDOF 3
ENDMDL
MODEL 2
REMARK VINA RESULT:      -8.7      3.466      5.711
REMARK  3 active torsions:
REMARK  status: ('A' for Active; 'I' for Inactive)
REMARK    1  A    between atoms: O1_1  and  C1_2 
REMARK    2  A    between atoms: C15_20  and  O3_21 
REMARK    3  A    between atoms: C16_22  and  N4_23 
ROOT
HETATM    1  C1  UNL     1      23.398   3.594  51.559  1.00  0.00     0.392 C 
HETATM    2  O2  UNL     1      24.659   3.354  51.115  1.00  0.00    -0.231 OA
HETATM    3  N1  UNL     1      25.653   3.237  51.955  1.00  0.00    -0.294 N 
HETATM    4  C2  UNL     1      26.200   1.944  52.155  1.00  0.00     0.173 C 
HETATM    5  C3  UNL     1      25.394   1.003  52.948  1.00  0.00    -0.005 C 
HETATM    6  C4  UNL     1      24.889   0.150  53.814  1.00  0.00    -0.003 C 
HETATM    7  C5  UNL     1      23.873  -0.715  54.371  1.00  0.00    -0.004 C 
HETATM    8  C6  UNL     1      22.659  -0.999  54.017  1.00  0.00    -0.027 C 
HETATM    9  C7  UNL     1      21.469  -0.885  53.140  1.00  0.00     0.027 C 
HETATM   10  C8  UNL     1      21.799   0.090  52.069  1.00  0.00     0.011 C 
HETATM   11  C9  UNL     1      20.696   0.407  51.092  1.00  0.00     0.025 C 
HETATM   12  C10 UNL     1      21.318   1.086  49.918  1.00  0.00     0.033 A 
HETATM   13  C11 UNL     1      21.266   1.407  48.613  1.00  0.00     0.122 A 
HETATM   14  N2  UNL     1      21.797   2.028  47.452  1.00  0.00    -0.294 NA
HETATM   15  C12 UNL     1      22.414   2.078  48.633  1.00  0.00     0.132 A 
HETATM   16  C13 UNL     1      22.635   1.829  50.061  1.00  0.00     0.132 A 
HETATM   17  N3  UNL     1      22.359   2.911  50.911  1.00  0.00    -0.354 N 
HETATM   18  C14 UNL     1      21.033   3.336  51.027  1.00  0.00     0.156 C 
HETATM   19  C15 UNL     1      20.133   2.703  52.013  1.00  0.00     0.158 C 
HETATM   20  C16 UNL     1      19.672   1.312  51.750  1.00  0.00     0.114 C 
HETATM   21  H3  UNL     1      25.696   3.859  52.769  1.00  0.00     0.188 HD
ENDROOT
BRANCH  20  22
HETATM   22  N4  UNL     1      18.370   1.278  51.229  1.00  0.00    -0.402 N 
HETATM   23  C17 UNL     1      17.463   2.319  51.425  1.00  0.00     0.147 C 
HETATM   24  C18 UNL     1      16.167   1.910  50.750  1.00  0.00     0.030 C 
HETATM   25  C19 UNL     1      15.837   0.849  49.986  1.00  0.00     0.093 C 
HETATM   26  F1  UNL     1      14.601   0.628  49.447  1.00  0.00    -0.211 F 
HETATM   27  C20 UNL     1      16.961  -0.118  49.755  1.00  0.00     0.089 C 
HETATM   28  C21 UNL     1      17.834  -0.028  50.980  1.00  0.00     0.124 C 
ENDBRANCH  20  22
BRANCH  19  29
HETATM   29  O3  UNL     1      20.594   2.866  53.343  1.00  0.00    -0.392 OA
HETATM   30  H19 UNL     1      21.292   3.586  53.374  1.00  0.00     0.210 HD
ENDBRANCH  19  29
BRANCH   1  31
HETATM   31  O1  UNL     1      23.178   4.985  51.288  1.00  0.00    -0.353 OA
HETATM   32  H1  UNL     1      23.137   5.413  52.202  1.00  0.00     0.214 HD
ENDBRANCH   1  31
TORSDOF 3
ENDMDL
MODEL 3
REMARK VINA RESULT:      -8.6      1.480      2.087
REMARK  3 active torsions:
REMARK  status: ('A' for Active; 'I' for Inactive)
REMARK    1  A    between atoms: O1_1  and  C1_2 
REMARK    2  A    between atoms: C15_20  and  O3_21 
REMARK    3  A    between atoms: C16_22  and  N4_23 
ROOT
HETATM    1  C1  UNL     1      21.999   6.395  49.526  1.00  0.00     0.392 C 
HETATM    2  O2  UNL     1      21.557   6.793  48.305  1.00  0.00    -0.231 OA
HETATM    3  N1  UNL     1      21.830   7.989  47.853  1.00  0.00    -0.294 N 
HETATM    4  C2  UNL     1      22.774   8.098  46.800  1.00  0.00     0.173 C 
HETATM    5  C3  UNL     1      24.186   7.890  47.158  1.00  0.00    -0.005 C 
HETATM    6  C4  UNL     1      25.483   7.949  47.377  1.00  0.00    -0.003 C 
HETATM    7  C5  UNL     1      26.764   7.462  47.837  1.00  0.00    -0.004 C 
HETATM    8  C6  UNL     1      27.141   6.363  48.410  1.00  0.00    -0.027 C 
HETATM    9  C7  UNL     1      26.907   5.017  48.988  1.00  0.00     0.027 C 
HETATM   10  C8  UNL     1      25.452   4.735  48.883  1.00  0.00     0.011 C 
HETATM   11  C9  UNL     1      24.981   3.431  49.474  1.00  0.00     0.025 C 
HETATM   12  C10 UNL     1      23.608   3.172  48.949  1.00  0.00     0.033 A 
HETATM   13  C11 UNL     1      22.636   2.290  48.655  1.00  0.00     0.122 A 
HETATM   14  N2  UNL     1      21.343   1.967  48.168  1.00  0.00    -0.294 NA
HETATM   15  C12 UNL     1      21.792   3.221  48.218  1.00  0.00     0.132 A 
HETATM   16  C13 UNL     1      22.729   4.317  48.480  1.00  0.00     0.132 A 
HETATM   17  N3  UNL     1      22.463   5.076  49.631  1.00  0.00    -0.354 N 
HETATM   18  C14 UNL     1      22.595   4.453  50.874  1.00  0.00     0.156 C 
HETATM   19  C15 UNL     1      23.908   4.416  51.551  1.00  0.00     0.158 C 
HETATM   20  C16 UNL     1      24.963   3.530  50.987  1.00  0.00     0.114 C 
HETATM   21  H3  UNL     1      21.802   8.786  48.497  1.00  0.00     0.188 HD
ENDROOT
BRANCH  20  22
HETATM   22  N4  UNL     1      25.079   2.328  51.701  1.00  0.00    -0.402 N 
HETATM   23  C17 UNL     1      26.269   1.601  51.746  1.00  0.00     0.147 C 
HETATM   24  C18 UNL     1      25.999   0.361  52.576  1.00  0.00     0.030 C 
HETATM   25  C19 UNL     1      24.923  -0.042  53.284  1.00  0.00     0.093 C 
HETATM   26  F1  UNL     1      24.843  -1.210  53.988  1.00  0.00    -0.211 F 
HETATM   27  C20 UNL     1      23.768   0.915  53.247  1.00  0.00     0.089 C 
HETATM   28  C21 UNL     1      23.857   1.611  51.913  1.00  0.00     0.124 C 
ENDBRANCH  20  22
BRANCH  19  29
HETATM   29  O3  UNL     1      24.402   5.714  51.836  1.00  0.00    -0.392 OA
HETATM   30  H19 UNL     1      23.657   6.292  52.179  1.00  0.00     0.210 HD
ENDBRANCH  19  29
BRANCH   1  31
HETATM   31  O1  UNL     1      20.842   6.469  50.371  1.00  0.00    -0.353 OA
HETATM   32  H1  UNL     1      20.076   6.614  49.730  1.00  0.00     0.214 HD
ENDBRANCH   1  31
TORSDOF 3
ENDMDL
MODEL 4
REMARK VINA RESULT:      -8.5      7.986     10.134
REMARK  3 active torsions:
REMARK  status: ('A' for Active; 'I' for Inactive)
REMARK    1  A    between atoms: O1_1  and  C1_2 
REMARK    2  A    between atoms: C15_20  and  O3_21 
REMARK    3  A    between atoms: C16_22  and  N4_23 
ROOT
HETATM    1  C1  UNL     1      30.864  10.054  49.190  1.00  0.00     0.392 C 
HETATM    2  O2  UNL     1      29.836  10.904  48.933  1.00  0.00    -0.231 OA
HETATM    3  N1  UNL     1      30.061  12.160  48.647  1.00  0.00    -0.294 N 
HETATM    4  C2  UNL     1      29.857  12.580  47.309  1.00  0.00     0.173 C 
HETATM    5  C3  UNL     1      30.864  12.155  46.324  1.00  0.00    -0.005 C 
HETATM    6  C4  UNL     1      31.792  12.037  45.398  1.00  0.00    -0.003 C 
HETATM    7  C5  UNL     1      32.705  11.324  44.532  1.00  0.00    -0.004 C 
HETATM    8  C6  UNL     1      32.975  10.068  44.371  1.00  0.00    -0.027 C 
HETATM    9  C7  UNL     1      32.815   8.624  44.671  1.00  0.00     0.027 C 
HETATM   10  C8  UNL     1      31.805   8.505  45.754  1.00  0.00     0.011 C 
HETATM   11  C9  UNL     1      31.532   7.112  46.262  1.00  0.00     0.025 C 
HETATM   12  C10 UNL     1      30.264   7.163  47.047  1.00  0.00     0.033 A 
HETATM   13  C11 UNL     1      29.188   6.523  47.537  1.00  0.00     0.122 A 
HETATM   14  N2  UNL     1      27.973   6.494  48.270  1.00  0.00    -0.294 NA
HETATM   15  C12 UNL     1      28.693   7.606  48.129  1.00  0.00     0.132 A 
HETATM   16  C13 UNL     1      29.799   8.460  47.684  1.00  0.00     0.132 A 
HETATM   17  N3  UNL     1      30.761   8.760  48.662  1.00  0.00    -0.354 N 
HETATM   18  C14 UNL     1      31.551   7.716  49.148  1.00  0.00     0.156 C 
HETATM   19  C15 UNL     1      32.797   7.339  48.448  1.00  0.00     0.158 C 
HETATM   20  C16 UNL     1      32.683   6.650  47.134  1.00  0.00     0.114 C 
HETATM   21  H3  UNL     1      30.796  12.663  49.155  1.00  0.00     0.188 HD
ENDROOT
BRANCH  20  22
HETATM   22  N4  UNL     1      32.873   5.265  47.247  1.00  0.00    -0.402 N 
HETATM   23  C17 UNL     1      33.902   4.715  48.013  1.00  0.00     0.147 C 
HETATM   24  C18 UNL     1      33.807   3.208  47.865  1.00  0.00     0.030 C 
HETATM   25  C19 UNL     1      32.908   2.410  47.252  1.00  0.00     0.093 C 
HETATM   26  F1  UNL     1      32.972   1.046  47.213  1.00  0.00    -0.211 F 
HETATM   27  C20 UNL     1      31.784   3.147  46.585  1.00  0.00     0.089 C 
HETATM   28  C21 UNL     1      32.359   4.476  46.166  1.00  0.00     0.124 C 
ENDBRANCH  20  22
BRANCH  19  29
HETATM   29  O3  UNL     1      33.734   8.402  48.409  1.00  0.00    -0.392 OA
HETATM   30  H19 UNL     1      33.958   8.621  47.455  1.00  0.00     0.210 HD
ENDBRANCH  19  29
BRANCH   1  31
HETATM   31  O1  UNL     1      30.853   9.895  50.615  1.00  0.00    -0.353 OA
HETATM   32  H1  UNL     1      29.940   9.516  50.817  1.00  0.00     0.214 HD
ENDBRANCH   1  31
TORSDOF 3
ENDMDL
MODEL 5
REMARK VINA RESULT:      -8.1      3.434      5.525
REMARK  3 active torsions:
REMARK  status: ('A' for Active; 'I' for Inactive)
REMARK    1  A    between atoms: O1_1  and  C1_2 
REMARK    2  A    between atoms: C15_20  and  O3_21 
REMARK    3  A    between atoms: C16_22  and  N4_23 
ROOT
HETATM    1  C1  UNL     1      27.196  10.289  48.311  1.00  0.00     0.392 C 
HETATM    2  O2  UNL     1      27.710  10.674  47.114  1.00  0.00    -0.231 OA
HETATM    3  N1  UNL     1      29.001  10.793  46.949  1.00  0.00    -0.294 N 
HETATM    4  C2  UNL     1      29.658   9.819  46.155  1.00  0.00     0.173 C 
HETATM    5  C3  UNL     1      29.839   8.490  46.760  1.00  0.00    -0.005 C 
HETATM    6  C4  UNL     1      30.260   7.345  47.253  1.00  0.00    -0.003 C 
HETATM    7  C5  UNL     1      30.118   6.049  47.879  1.00  0.00    -0.004 C 
HETATM    8  C6  UNL     1      29.096   5.382  48.315  1.00  0.00    -0.027 C 
HETATM    9  C7  UNL     1      27.651   5.190  48.583  1.00  0.00     0.027 C 
HETATM   10  C8  UNL     1      26.947   6.416  48.126  1.00  0.00     0.011 C 
HETATM   11  C9  UNL     1      25.459   6.460  48.364  1.00  0.00     0.025 C 
HETATM   12  C10 UNL     1      24.904   7.561  47.524  1.00  0.00     0.033 A 
HETATM   13  C11 UNL     1      23.853   8.100  46.881  1.00  0.00     0.122 A 
HETATM   14  N2  UNL     1      23.255   9.110  46.083  1.00  0.00    -0.294 NA
HETATM   15  C12 UNL     1      24.536   9.155  46.448  1.00  0.00     0.132 A 
HETATM   16  C13 UNL     1      25.781   8.723  47.091  1.00  0.00     0.132 A 
HETATM   17  N3  UNL     1      26.113   9.398  48.276  1.00  0.00    -0.354 N 
HETATM   18  C14 UNL     1      25.289   9.219  49.388  1.00  0.00     0.156 C 
HETATM   19  C15 UNL     1      25.517   8.087  50.310  1.00  0.00     0.158 C 
HETATM   20  C16 UNL     1      25.182   6.717  49.833  1.00  0.00     0.114 C 
HETATM   21  H3  UNL     1      29.568  11.194  47.704  1.00  0.00     0.188 HD
ENDROOT
BRANCH  20  22
HETATM   22  N4  UNL     1      23.949   6.272  50.331  1.00  0.00    -0.402 N 
HETATM   23  C17 UNL     1      22.928   7.154  50.686  1.00  0.00     0.147 C 
HETATM   24  C18 UNL     1      21.777   6.314  51.206  1.00  0.00     0.030 C 
HETATM   25  C19 UNL     1      21.582   4.981  51.269  1.00  0.00     0.093 C 
HETATM   26  F1  UNL     1      20.467   4.377  51.777  1.00  0.00    -0.211 F 
HETATM   27  C20 UNL     1      22.718   4.165  50.724  1.00  0.00     0.089 C 
HETATM   28  C21 UNL     1      23.960   4.985  50.962  1.00  0.00     0.124 C 
ENDBRANCH  20  22
BRANCH  19  29
HETATM   29  O3  UNL     1      26.796   8.138  50.917  1.00  0.00    -0.392 OA
HETATM   30  H19 UNL     1      27.476   8.453  50.249  1.00  0.00     0.210 HD
ENDBRANCH  19  29
BRANCH   1  31
HETATM   31  O1  UNL     1      26.687  11.497  48.892  1.00  0.00    -0.353 OA
HETATM   32  H1  UNL     1      26.573  12.122  48.108  1.00  0.00     0.214 HD
ENDBRANCH   1  31
TORSDOF 3
ENDMDL
MODEL 6
REMARK VINA RESULT:      -8.1      4.894      7.071
REMARK  3 active torsions:
REMARK  status: ('A' for Active; 'I' for Inactive)
REMARK    1  A    between atoms: O1_1  and  C1_2 
REMARK    2  A    between atoms: C15_20  and  O3_21 
REMARK    3  A    between atoms: C16_22  and  N4_23 
ROOT
HETATM    1  C1  UNL     1      28.646  10.737  48.715  1.00  0.00     0.392 C 
HETATM    2  O2  UNL     1      29.471  11.106  47.700  1.00  0.00    -0.231 OA
HETATM    3  N1  UNL     1      30.763  10.931  47.792  1.00  0.00    -0.294 N 
HETATM    4  C2  UNL     1      31.349   9.912  46.999  1.00  0.00     0.173 C 
HETATM    5  C3  UNL     1      31.111   8.525  47.429  1.00  0.00    -0.005 C 
HETATM    6  C4  UNL     1      31.166   7.270  47.821  1.00  0.00    -0.003 C 
HETATM    7  C5  UNL     1      30.623   5.989  48.217  1.00  0.00    -0.004 C 
HETATM    8  C6  UNL     1      29.414   5.544  48.359  1.00  0.00    -0.027 C 
HETATM    9  C7  UNL     1      27.938   5.675  48.328  1.00  0.00     0.027 C 
HETATM   10  C8  UNL     1      27.623   7.072  47.932  1.00  0.00     0.011 C 
HETATM   11  C9  UNL     1      26.163   7.444  47.899  1.00  0.00     0.025 C 
HETATM   12  C10 UNL     1      26.044   8.723  47.139  1.00  0.00     0.033 A 
HETATM   13  C11 UNL     1      25.291   9.556  46.399  1.00  0.00     0.122 A 
HETATM   14  N2  UNL     1      25.103  10.753  45.660  1.00  0.00    -0.294 NA
HETATM   15  C12 UNL     1      26.259  10.457  46.254  1.00  0.00     0.132 A 
HETATM   16  C13 UNL     1      27.219   9.680  47.045  1.00  0.00     0.132 A 
HETATM   17  N3  UNL     1      27.431  10.137  48.355  1.00  0.00    -0.354 N 
HETATM   18  C14 UNL     1      26.372  10.050  49.261  1.00  0.00     0.156 C 
HETATM   19  C15 UNL     1      26.155   8.810  50.035  1.00  0.00     0.158 C 
HETATM   20  C16 UNL     1      25.645   7.613  49.313  1.00  0.00     0.114 C 
HETATM   21  H3  UNL     1      31.230  11.110  48.687  1.00  0.00     0.188 HD
ENDROOT
BRANCH  20  22
HETATM   22  N4  UNL     1      24.268   7.427  49.509  1.00  0.00    -0.402 N 
HETATM   23  C17 UNL     1      23.615   7.861  50.662  1.00  0.00     0.147 C 
HETATM   24  C18 UNL     1      22.159   7.457  50.526  1.00  0.00     0.030 C 
HETATM   25  C19 UNL     1      21.464   6.894  49.516  1.00  0.00     0.093 C 
HETATM   26  F1  UNL     1      20.132   6.591  49.558  1.00  0.00    -0.211 F 
HETATM   27  C20 UNL     1      22.280   6.609  48.289  1.00  0.00     0.089 C 
HETATM   28  C21 UNL     1      23.678   6.340  48.784  1.00  0.00     0.124 C 
ENDBRANCH  20  22
BRANCH  19  29
HETATM   29  O3  UNL     1      27.259   8.497  50.867  1.00  0.00    -0.392 OA
HETATM   30  H19 UNL     1      27.649   7.613  50.593  1.00  0.00     0.210 HD
ENDBRANCH  19  29
BRANCH   1  31
HETATM   31  O1  UNL     1      28.296  11.968  49.361  1.00  0.00    -0.353 OA
HETATM   32  H1  UNL     1      27.652  12.411  48.722  1.00  0.00     0.214 HD
ENDBRANCH   1  31
TORSDOF 3
ENDMDL
MODEL 7
REMARK VINA RESULT:      -8.1      5.514      9.264
REMARK  3 active torsions:
REMARK  status: ('A' for Active; 'I' for Inactive)
REMARK    1  A    between atoms: O1_1  and  C1_2 
REMARK    2  A    between atoms: C15_20  and  O3_21 
REMARK    3  A    between atoms: C16_22  and  N4_23 
ROOT
HETATM    1  C1  UNL     1      25.336   7.128  49.778  1.00  0.00     0.392 C 
HETATM    2  O2  UNL     1      24.773   5.924  49.496  1.00  0.00    -0.231 OA
HETATM    3  N1  UNL     1      23.486   5.819  49.291  1.00  0.00    -0.294 N 
HETATM    4  C2  UNL     1      23.047   5.578  47.965  1.00  0.00     0.173 C 
HETATM    5  C3  UNL     1      23.123   6.711  47.030  1.00  0.00    -0.005 C 
HETATM    6  C4  UNL     1      22.928   7.683  46.163  1.00  0.00    -0.003 C 
HETATM    7  C5  UNL     1      23.314   8.796  45.325  1.00  0.00    -0.004 C 
HETATM    8  C6  UNL     1      24.440   9.402  45.118  1.00  0.00    -0.027 C 
HETATM    9  C7  UNL     1      25.892   9.619  45.332  1.00  0.00     0.027 C 
HETATM   10  C8  UNL     1      26.346   8.624  46.338  1.00  0.00     0.011 C 
HETATM   11  C9  UNL     1      27.792   8.709  46.754  1.00  0.00     0.025 C 
HETATM   12  C10 UNL     1      28.132   7.436  47.454  1.00  0.00     0.033 A 
HETATM   13  C11 UNL     1      29.066   6.547  47.837  1.00  0.00     0.122 A 
HETATM   14  N2  UNL     1      29.464   5.348  48.485  1.00  0.00    -0.294 NA
HETATM   15  C12 UNL     1      28.194   5.750  48.450  1.00  0.00     0.132 A 
HETATM   16  C13 UNL     1      27.050   6.608  48.124  1.00  0.00     0.132 A 
HETATM   17  N3  UNL     1      26.573   7.403  49.178  1.00  0.00    -0.354 N 
HETATM   18  C14 UNL     1      27.401   8.419  49.662  1.00  0.00     0.156 C 
HETATM   19  C15 UNL     1      27.387   9.754  49.029  1.00  0.00     0.158 C 
HETATM   20  C16 UNL     1      27.992   9.896  47.677  1.00  0.00     0.114 C 
HETATM   21  H3  UNL     1      22.842   6.365  49.872  1.00  0.00     0.188 HD
ENDROOT
BRANCH  20  22
HETATM   22  N4  UNL     1      29.282  10.445  47.731  1.00  0.00    -0.402 N 
HETATM   23  C17 UNL     1      29.674  11.324  48.740  1.00  0.00     0.147 C 
HETATM   24  C18 UNL     1      31.108  11.724  48.447  1.00  0.00     0.030 C 
HETATM   25  C19 UNL     1      31.991  11.315  47.513  1.00  0.00     0.093 C 
HETATM   26  F1  UNL     1      33.267  11.786  47.385  1.00  0.00    -0.211 F 
HETATM   27  C20 UNL     1      31.462  10.264  46.581  1.00  0.00     0.089 C 
HETATM   28  C21 UNL     1      29.980  10.518  46.481  1.00  0.00     0.124 C 
ENDBRANCH  20  22
BRANCH  19  29
HETATM   29  O3  UNL     1      26.114  10.372  49.107  1.00  0.00    -0.392 OA
HETATM   30  H19 UNL     1      26.193  11.252  49.583  1.00  0.00     0.210 HD
ENDBRANCH  19  29
BRANCH   1  31
HETATM   31  O1  UNL     1      25.588   7.088  51.189  1.00  0.00    -0.353 OA
HETATM   32  H1  UNL     1      26.549   6.789  51.262  1.00  0.00     0.214 HD
ENDBRANCH   1  31
TORSDOF 3
ENDMDL
MODEL 8
REMARK VINA RESULT:      -7.9      3.811      7.004
REMARK  3 active torsions:
REMARK  status: ('A' for Active; 'I' for Inactive)
REMARK    1  A    between atoms: O1_1  and  C1_2 
REMARK    2  A    between atoms: C15_20  and  O3_21 
REMARK    3  A    between atoms: C16_22  and  N4_23 
ROOT
HETATM    1  C1  UNL     1      22.566   5.077  51.521  1.00  0.00     0.392 C 
HETATM    2  O2  UNL     1      21.987   3.857  51.380  1.00  0.00    -0.231 OA
HETATM    3  N1  UNL     1      20.702   3.747  51.167  1.00  0.00    -0.294 N 
HETATM    4  C2  UNL     1      20.278   3.350  49.873  1.00  0.00     0.173 C 
HETATM    5  C3  UNL     1      20.388   4.358  48.807  1.00  0.00    -0.005 C 
HETATM    6  C4  UNL     1      20.223   5.218  47.824  1.00  0.00    -0.003 C 
HETATM    7  C5  UNL     1      20.640   6.214  46.862  1.00  0.00    -0.004 C 
HETATM    8  C6  UNL     1      21.780   6.772  46.602  1.00  0.00    -0.027 C 
HETATM    9  C7  UNL     1      23.231   6.992  46.812  1.00  0.00     0.027 C 
HETATM   10  C8  UNL     1      23.654   6.123  47.941  1.00  0.00     0.011 C 
HETATM   11  C9  UNL     1      25.094   6.236  48.368  1.00  0.00     0.025 C 
HETATM   12  C10 UNL     1      25.402   5.054  49.226  1.00  0.00     0.033 A 
HETATM   13  C11 UNL     1      26.314   4.206  49.731  1.00  0.00     0.122 A 
HETATM   14  N2  UNL     1      26.682   3.090  50.528  1.00  0.00    -0.294 NA
HETATM   15  C12 UNL     1      25.419   3.504  50.421  1.00  0.00     0.132 A 
HETATM   16  C13 UNL     1      24.296   4.331  49.973  1.00  0.00     0.132 A 
HETATM   17  N3  UNL     1      23.816   5.258  50.913  1.00  0.00    -0.354 N 
HETATM   18  C14 UNL     1      24.654   6.313  51.282  1.00  0.00     0.156 C 
HETATM   19  C15 UNL     1      24.672   7.560  50.490  1.00  0.00     0.158 C 
HETATM   20  C16 UNL     1      25.300   7.525  49.141  1.00  0.00     0.114 C 
HETATM   21  H3  UNL     1      20.057   4.369  51.665  1.00  0.00     0.188 HD
ENDROOT
BRANCH  20  22
HETATM   22  N4  UNL     1      26.598   8.057  49.150  1.00  0.00    -0.402 N 
HETATM   23  C17 UNL     1      26.981   9.069  50.030  1.00  0.00     0.147 C 
HETATM   24  C18 UNL     1      28.429   9.400  49.720  1.00  0.00     0.030 C 
HETATM   25  C19 UNL     1      29.328   8.846  48.881  1.00  0.00     0.093 C 
HETATM   26  F1  UNL     1      30.615   9.274  48.720  1.00  0.00    -0.211 F 
HETATM   27  C20 UNL     1      28.802   7.678  48.098  1.00  0.00     0.089 C 
HETATM   28  C21 UNL     1      27.328   7.936  47.922  1.00  0.00     0.124 C 
ENDBRANCH  20  22
BRANCH  19  29
HETATM   29  O3  UNL     1      23.408   8.202  50.470  1.00  0.00    -0.392 OA
HETATM   30  H19 UNL     1      22.810   7.750  49.802  1.00  0.00     0.210 HD
ENDBRANCH  19  29
BRANCH   1  31
HETATM   31  O1  UNL     1      22.795   5.208  52.930  1.00  0.00    -0.353 OA
HETATM   32  H1  UNL     1      23.571   5.851  52.997  1.00  0.00     0.214 HD
ENDBRANCH   1  31
TORSDOF 3
ENDMDL
MODEL 9
REMARK VINA RESULT:      -7.9      4.898      7.889
REMARK  3 active torsions:
REMARK  status: ('A' for Active; 'I' for Inactive)
REMARK    1  A    between atoms: O1_1  and  C1_2 
REMARK    2  A    between atoms: C15_20  and  O3_21 
REMARK    3  A    between atoms: C16_22  and  N4_23 
ROOT
HETATM    1  C1  UNL     1      23.911   7.424  50.269  1.00  0.00     0.392 C 
HETATM    2  O2  UNL     1      22.946   6.503  50.012  1.00  0.00    -0.231 OA
HETATM    3  N1  UNL     1      21.736   6.876  49.686  1.00  0.00    -0.294 N 
HETATM    4  C2  UNL     1      21.327   6.690  48.341  1.00  0.00     0.173 C 
HETATM    5  C3  UNL     1      21.899   7.610  47.346  1.00  0.00    -0.005 C 
HETATM    6  C4  UNL     1      22.155   8.491  46.402  1.00  0.00    -0.003 C 
HETATM    7  C5  UNL     1      22.997   9.286  45.536  1.00  0.00    -0.004 C 
HETATM    8  C6  UNL     1      24.281   9.394  45.404  1.00  0.00    -0.027 C 
HETATM    9  C7  UNL     1      25.685   9.063  45.747  1.00  0.00     0.027 C 
HETATM   10  C8  UNL     1      25.650   8.075  46.856  1.00  0.00     0.011 C 
HETATM   11  C9  UNL     1      26.985   7.644  47.409  1.00  0.00     0.025 C 
HETATM   12  C10 UNL     1      26.757   6.414  48.221  1.00  0.00     0.033 A 
HETATM   13  C11 UNL     1      27.245   5.279  48.753  1.00  0.00     0.122 A 
HETATM   14  N2  UNL     1      27.104   4.089  49.514  1.00  0.00    -0.294 NA
HETATM   15  C12 UNL     1      26.094   4.939  49.326  1.00  0.00     0.132 A 
HETATM   16  C13 UNL     1      25.396   6.130  48.832  1.00  0.00     0.132 A 
HETATM   17  N3  UNL     1      25.195   7.147  49.779  1.00  0.00    -0.354 N 
HETATM   18  C14 UNL     1      26.317   7.814  50.275  1.00  0.00     0.156 C 
HETATM   19  C15 UNL     1      26.864   8.985  49.558  1.00  0.00     0.158 C 
HETATM   20  C16 UNL     1      27.566   8.751  48.267  1.00  0.00     0.114 C 
HETATM   21  H3  UNL     1      21.315   7.680  50.162  1.00  0.00     0.188 HD
ENDROOT
BRANCH  20  22
HETATM   22  N4  UNL     1      28.961   8.771  48.414  1.00  0.00    -0.402 N 
HETATM   23  C17 UNL     1      29.598   9.576  49.358  1.00  0.00     0.147 C 
HETATM   24  C18 UNL     1      31.090   9.352  49.196  1.00  0.00     0.030 C 
HETATM   25  C19 UNL     1      31.803   8.504  48.427  1.00  0.00     0.093 C 
HETATM   26  F1  UNL     1      33.167   8.431  48.401  1.00  0.00    -0.211 F 
HETATM   27  C20 UNL     1      30.968   7.607  47.561  1.00  0.00     0.089 C 
HETATM   28  C21 UNL     1      29.714   8.386  47.257  1.00  0.00     0.124 C 
ENDBRANCH  20  22
BRANCH  19  29
HETATM   29  O3  UNL     1      25.928  10.045  49.468  1.00  0.00    -0.392 OA
HETATM   30  H19 UNL     1      25.828  10.328  48.510  1.00  0.00     0.210 HD
ENDBRANCH  19  29
BRANCH   1  31
HETATM   31  O1  UNL     1      24.032   7.431  51.697  1.00  0.00    -0.353 OA
HETATM   32  H1  UNL     1      24.218   8.396  51.926  1.00  0.00     0.214 HD
ENDBRANCH   1  31
TORSDOF 3
ENDMDL
