MODEL 1
REMARK VINA RESULT:      -7.2      0.000      0.000
REMARK  9 active torsions:
REMARK  status: ('A' for Active; 'I' for Inactive)
REMARK    1  A    between atoms: O1_1  and  C1_2 
REMARK    2  A    between atoms: C6_9  and  C7_10 
REMARK    3  A    between atoms: C7_10  and  N1_11 
REMARK    4  A    between atoms: N1_11  and  C8_12 
REMARK    5  A    between atoms: N1_11  and  C11_16 
REMARK    6  A    between atoms: C8_12  and  C9_13 
REMARK    7  A    between atoms: C9_13  and  C10_14 
REMARK    8  A    between atoms: C11_16  and  N2_17 
REMARK    9  A    between atoms: N2_17  and  C12_18 
ROOT
HETATM    1  N1  UNL     1      23.725   1.303  51.964  1.00  0.00     0.110 N 
ENDROOT
BRANCH   1   2
HETATM    2  C7  UNL     1      24.629   1.789  52.986  1.00  0.00     0.316 C 
BRANCH   2   3
HETATM    3  C6  UNL     1      25.836   0.903  53.108  1.00  0.00     0.006 A 
HETATM    4  C1  UNL     1      26.900   1.609  53.661  1.00  0.00     0.095 A 
HETATM    5  C2  UNL     1      28.122   1.015  53.877  1.00  0.00     0.069 A 
HETATM    6 CL1  UNL     1      29.526   1.800  54.564  1.00  0.00    -0.081 Cl
HETATM    7  C3  UNL     1      28.310  -0.328  53.536  1.00  0.00     0.050 A 
HETATM    8  C4  UNL     1      27.242  -1.007  52.989  1.00  0.00     0.036 A 
HETATM    9 CL2  UNL     1      27.355  -2.698  52.520  1.00  0.00    -0.084 Cl
HETATM   10  C5  UNL     1      26.017  -0.419  52.771  1.00  0.00     0.035 A 
BRANCH   4  11
HETATM   11  O1  UNL     1      26.895   2.931  54.055  1.00  0.00    -0.358 OA
HETATM   12  H1  UNL     1      26.113   3.557  53.983  1.00  0.00     0.217 HD
ENDBRANCH   4  11
ENDBRANCH   2   3
ENDBRANCH   1   2
BRANCH   1  13
HETATM   13  C8  UNL     1      22.382   1.300  52.524  1.00  0.00     0.279 C 
BRANCH  13  14
HETATM   14  C9  UNL     1      21.684  -0.014  52.437  1.00  0.00     0.069 C 
BRANCH  14  15
HETATM   15  C10 UNL     1      22.347  -1.094  53.197  1.00  0.00     0.056 C 
HETATM   16  S1  UNL     1      22.139  -1.006  54.619  1.00  0.00    -0.097 SA
ENDBRANCH  14  15
ENDBRANCH  13  14
ENDBRANCH   1  13
BRANCH   1  17
HETATM   17  C11 UNL     1      23.715   2.310  50.922  1.00  0.00     0.395 C 
BRANCH  17  18
HETATM   18  N2  UNL     1      24.453   3.502  51.307  1.00  0.00    -0.365 N 
HETATM   19  H13 UNL     1      24.334   3.825  52.285  1.00  0.00     0.161 HD
BRANCH  18  20
HETATM   20  C12 UNL     1      25.304   4.222  50.423  1.00  0.00     0.029 A 
HETATM   21  C13 UNL     1      25.085   5.540  50.107  1.00  0.00     0.029 A 
HETATM   22  C14 UNL     1      25.905   6.257  49.249  1.00  0.00     0.002 A 
HETATM   23  C15 UNL     1      27.005   5.613  48.680  1.00  0.00     0.000 A 
HETATM   24  C16 UNL     1      27.223   4.284  49.001  1.00  0.00     0.002 A 
HETATM   25  C17 UNL     1      26.390   3.590  49.860  1.00  0.00     0.029 A 
ENDBRANCH  18  20
ENDBRANCH  17  18
ENDBRANCH   1  17
TORSDOF 9
ENDMDL
MODEL 2
REMARK VINA RESULT:      -7.0      3.026      5.736
REMARK  9 active torsions:
REMARK  status: ('A' for Active; 'I' for Inactive)
REMARK    1  A    between atoms: O1_1  and  C1_2 
REMARK    2  A    between atoms: C6_9  and  C7_10 
REMARK    3  A    between atoms: C7_10  and  N1_11 
REMARK    4  A    between atoms: N1_11  and  C8_12 
REMARK    5  A    between atoms: N1_11  and  C11_16 
REMARK    6  A    between atoms: C8_12  and  C9_13 
REMARK    7  A    between atoms: C9_13  and  C10_14 
REMARK    8  A    between atoms: C11_16  and  N2_17 
REMARK    9  A    between atoms: N2_17  and  C12_18 
ROOT
HETATM    1  N1  UNL     1      24.233   2.829  52.487  1.00  0.00     0.110 N 
ENDROOT
BRANCH   1   2
HETATM    2  C7  UNL     1      24.834   2.529  51.204  1.00  0.00     0.316 C 
BRANCH   2   3
HETATM    3  C6  UNL     1      24.746   3.707  50.275  1.00  0.00     0.006 A 
HETATM    4  C1  UNL     1      26.019   4.141  49.920  1.00  0.00     0.095 A 
HETATM    5  C2  UNL     1      26.206   5.208  49.074  1.00  0.00     0.069 A 
HETATM    6 CL1  UNL     1      27.753   5.839  48.559  1.00  0.00    -0.081 Cl
HETATM    7  C3  UNL     1      25.096   5.881  48.552  1.00  0.00     0.050 A 
HETATM    8  C4  UNL     1      23.845   5.435  48.917  1.00  0.00     0.036 A 
HETATM    9 CL2  UNL     1      22.374   6.198  48.328  1.00  0.00    -0.084 Cl
HETATM   10  C5  UNL     1      23.651   4.367  49.764  1.00  0.00     0.035 A 
BRANCH   4  11
HETATM   11  O1  UNL     1      27.219   3.600  50.336  1.00  0.00    -0.358 OA
HETATM   12  H1  UNL     1      27.323   2.868  51.017  1.00  0.00     0.217 HD
ENDBRANCH   4  11
ENDBRANCH   2   3
ENDBRANCH   1   2
BRANCH   1  13
HETATM   13  C8  UNL     1      23.049   1.994  52.628  1.00  0.00     0.279 C 
BRANCH  13  14
HETATM   14  C9  UNL     1      23.336   0.584  53.015  1.00  0.00     0.069 C 
BRANCH  14  15
HETATM   15  C10 UNL     1      22.127  -0.214  53.304  1.00  0.00     0.056 C 
HETATM   16  S1  UNL     1      22.190  -0.918  54.559  1.00  0.00    -0.097 SA
ENDBRANCH  14  15
ENDBRANCH  13  14
ENDBRANCH   1  13
BRANCH   1  17
HETATM   17  C11 UNL     1      25.167   2.361  53.491  1.00  0.00     0.395 C 
BRANCH  17  18
HETATM   18  N2  UNL     1      26.534   2.336  52.995  1.00  0.00    -0.365 N 
HETATM   19  H13 UNL     1      26.870   3.193  52.518  1.00  0.00     0.161 HD
BRANCH  18  20
HETATM   20  C12 UNL     1      27.402   1.217  53.131  1.00  0.00     0.029 A 
HETATM   21  C13 UNL     1      26.984  -0.068  52.889  1.00  0.00     0.029 A 
HETATM   22  C14 UNL     1      27.816  -1.169  53.015  1.00  0.00     0.002 A 
HETATM   23  C15 UNL     1      29.141  -0.965  53.405  1.00  0.00     0.000 A 
HETATM   24  C16 UNL     1      29.560   0.331  53.649  1.00  0.00     0.002 A 
HETATM   25  C17 UNL     1      28.709   1.414  53.516  1.00  0.00     0.029 A 
ENDBRANCH  18  20
ENDBRANCH  17  18
ENDBRANCH   1  17
TORSDOF 9
ENDMDL
MODEL 3
REMARK VINA RESULT:      -6.9      3.509      6.500
REMARK  9 active torsions:
REMARK  status: ('A' for Active; 'I' for Inactive)
REMARK    1  A    between atoms: O1_1  and  C1_2 
REMARK    2  A    between atoms: C6_9  and  C7_10 
REMARK    3  A    between atoms: C7_10  and  N1_11 
REMARK    4  A    between atoms: N1_11  and  C8_12 
REMARK    5  A    between atoms: N1_11  and  C11_16 
REMARK    6  A    between atoms: C8_12  and  C9_13 
REMARK    7  A    between atoms: C9_13  and  C10_14 
REMARK    8  A    between atoms: C11_16  and  N2_17 
REMARK    9  A    between atoms: N2_17  and  C12_18 
ROOT
HETATM    1  N1  UNL     1      25.616   2.556  50.897  1.00  0.00     0.110 N 
ENDROOT
BRANCH   1   2
HETATM    2  C7  UNL     1      24.604   2.710  51.922  1.00  0.00     0.316 C 
BRANCH   2   3
HETATM    3  C6  UNL     1      23.394   1.872  51.618  1.00  0.00     0.006 A 
HETATM    4  C1  UNL     1      23.256   0.861  52.564  1.00  0.00     0.095 A 
HETATM    5  C2  UNL     1      22.220  -0.041  52.506  1.00  0.00     0.069 A 
HETATM    6 CL1  UNL     1      21.946  -1.348  53.635  1.00  0.00    -0.081 Cl
HETATM    7  C3  UNL     1      21.278   0.050  51.477  1.00  0.00     0.050 A 
HETATM    8  C4  UNL     1      21.434   1.060  50.551  1.00  0.00     0.036 A 
HETATM    9 CL2  UNL     1      20.316   1.278  49.213  1.00  0.00    -0.084 Cl
HETATM   10  C5  UNL     1      22.468   1.966  50.604  1.00  0.00     0.035 A 
BRANCH   4  11
HETATM   11  O1  UNL     1      24.086   0.622  53.641  1.00  0.00    -0.358 OA
HETATM   12  H1  UNL     1      24.318   1.287  54.356  1.00  0.00     0.217 HD
ENDBRANCH   4  11
ENDBRANCH   2   3
ENDBRANCH   1   2
BRANCH   1  13
HETATM   13  C8  UNL     1      25.680   3.801  50.146  1.00  0.00     0.279 C 
BRANCH  13  14
HETATM   14  C9  UNL     1      26.904   3.952  49.311  1.00  0.00     0.069 C 
BRANCH  14  15
HETATM   15  C10 UNL     1      27.075   5.303  48.738  1.00  0.00     0.056 C 
HETATM   16  S1  UNL     1      28.430   5.592  48.344  1.00  0.00    -0.097 SA
ENDBRANCH  14  15
ENDBRANCH  13  14
ENDBRANCH   1  13
BRANCH   1  17
HETATM   17  C11 UNL     1      26.883   2.450  51.592  1.00  0.00     0.395 C 
BRANCH  17  18
HETATM   18  N2  UNL     1      26.798   1.575  52.751  1.00  0.00    -0.365 N 
HETATM   19  H13 UNL     1      26.056   1.792  53.441  1.00  0.00     0.161 HD
BRANCH  18  20
HETATM   20  C12 UNL     1      27.666   0.470  52.969  1.00  0.00     0.029 A 
HETATM   21  C13 UNL     1      28.945   0.625  53.442  1.00  0.00     0.029 A 
HETATM   22  C14 UNL     1      29.803  -0.441  53.662  1.00  0.00     0.002 A 
HETATM   23  C15 UNL     1      29.349  -1.733  53.392  1.00  0.00     0.000 A 
HETATM   24  C16 UNL     1      28.059  -1.887  52.914  1.00  0.00     0.002 A 
HETATM   25  C17 UNL     1      27.222  -0.806  52.703  1.00  0.00     0.029 A 
ENDBRANCH  18  20
ENDBRANCH  17  18
ENDBRANCH   1  17
TORSDOF 9
ENDMDL
MODEL 4
REMARK VINA RESULT:      -6.8      3.469      6.185
REMARK  9 active torsions:
REMARK  status: ('A' for Active; 'I' for Inactive)
REMARK    1  A    between atoms: O1_1  and  C1_2 
REMARK    2  A    between atoms: C6_9  and  C7_10 
REMARK    3  A    between atoms: C7_10  and  N1_11 
REMARK    4  A    between atoms: N1_11  and  C8_12 
REMARK    5  A    between atoms: N1_11  and  C11_16 
REMARK    6  A    between atoms: C8_12  and  C9_13 
REMARK    7  A    between atoms: C9_13  and  C10_14 
REMARK    8  A    between atoms: C11_16  and  N2_17 
REMARK    9  A    between atoms: N2_17  and  C12_18 
ROOT
HETATM    1  N1  UNL     1      25.080   2.892  50.586  1.00  0.00     0.110 N 
ENDROOT
BRANCH   1   2
HETATM    2  C7  UNL     1      24.527   3.331  51.851  1.00  0.00     0.316 C 
BRANCH   2   3
HETATM    3  C6  UNL     1      23.460   2.388  52.331  1.00  0.00     0.006 A 
HETATM    4  C1  UNL     1      22.198   2.892  52.032  1.00  0.00     0.095 A 
HETATM    5  C2  UNL     1      21.052   2.210  52.369  1.00  0.00     0.069 A 
HETATM    6 CL1  UNL     1      19.419   2.744  52.043  1.00  0.00    -0.081 Cl
HETATM    7  C3  UNL     1      21.146   0.981  53.028  1.00  0.00     0.050 A 
HETATM    8  C4  UNL     1      22.406   0.501  53.315  1.00  0.00     0.036 A 
HETATM    9 CL2  UNL     1      22.653  -1.032  54.140  1.00  0.00    -0.084 Cl
HETATM   10  C5  UNL     1      23.556   1.178  52.980  1.00  0.00     0.035 A 
BRANCH   4  11
HETATM   11  O1  UNL     1      21.918   4.081  51.390  1.00  0.00    -0.358 OA
HETATM   12  H1  UNL     1      22.359   4.964  51.579  1.00  0.00     0.217 HD
ENDBRANCH   4  11
ENDBRANCH   2   3
ENDBRANCH   1   2
BRANCH   1  13
HETATM   13  C8  UNL     1      24.935   3.985  49.636  1.00  0.00     0.279 C 
BRANCH  13  14
HETATM   14  C9  UNL     1      26.219   4.626  49.237  1.00  0.00     0.069 C 
BRANCH  14  15
HETATM   15  C10 UNL     1      26.141   6.096  49.115  1.00  0.00     0.056 C 
HETATM   16  S1  UNL     1      25.362   6.718  50.155  1.00  0.00    -0.097 SA
ENDBRANCH  14  15
ENDBRANCH  13  14
ENDBRANCH   1  13
BRANCH   1  17
HETATM   17  C11 UNL     1      26.506   2.743  50.799  1.00  0.00     0.395 C 
BRANCH  17  18
HETATM   18  N2  UNL     1      26.834   2.586  52.208  1.00  0.00    -0.365 N 
HETATM   19  H13 UNL     1      26.527   3.346  52.842  1.00  0.00     0.161 HD
BRANCH  18  20
HETATM   20  C12 UNL     1      27.540   1.468  52.733  1.00  0.00     0.029 A 
HETATM   21  C13 UNL     1      27.112   0.178  52.544  1.00  0.00     0.029 A 
HETATM   22  C14 UNL     1      27.788  -0.923  53.048  1.00  0.00     0.002 A 
HETATM   23  C15 UNL     1      28.958  -0.712  53.781  1.00  0.00     0.000 A 
HETATM   24  C16 UNL     1      29.385   0.590  53.970  1.00  0.00     0.002 A 
HETATM   25  C17 UNL     1      28.692   1.672  53.457  1.00  0.00     0.029 A 
ENDBRANCH  18  20
ENDBRANCH  17  18
ENDBRANCH   1  17
TORSDOF 9
ENDMDL
MODEL 5
REMARK VINA RESULT:      -6.7      1.847      2.232
REMARK  9 active torsions:
REMARK  status: ('A' for Active; 'I' for Inactive)
REMARK    1  A    between atoms: O1_1  and  C1_2 
REMARK    2  A    between atoms: C6_9  and  C7_10 
REMARK    3  A    between atoms: C7_10  and  N1_11 
REMARK    4  A    between atoms: N1_11  and  C8_12 
REMARK    5  A    between atoms: N1_11  and  C11_16 
REMARK    6  A    between atoms: C8_12  and  C9_13 
REMARK    7  A    between atoms: C9_13  and  C10_14 
REMARK    8  A    between atoms: C11_16  and  N2_17 
REMARK    9  A    between atoms: N2_17  and  C12_18 
ROOT
HETATM    1  N1  UNL     1      24.328   2.440  50.603  1.00  0.00     0.110 N 
ENDROOT
BRANCH   1   2
HETATM    2  C7  UNL     1      24.852   2.974  51.843  1.00  0.00     0.316 C 
BRANCH   2   3
HETATM    3  C6  UNL     1      25.416   1.882  52.708  1.00  0.00     0.006 A 
HETATM    4  C1  UNL     1      26.807   1.915  52.684  1.00  0.00     0.095 A 
HETATM    5  C2  UNL     1      27.560   1.014  53.399  1.00  0.00     0.069 A 
HETATM    6 CL1  UNL     1      29.308   0.960  53.445  1.00  0.00    -0.081 Cl
HETATM    7  C3  UNL     1      26.924   0.038  54.173  1.00  0.00     0.050 A 
HETATM    8  C4  UNL     1      25.546   0.025  54.182  1.00  0.00     0.036 A 
HETATM    9 CL2  UNL     1      24.632  -1.152  55.115  1.00  0.00    -0.084 Cl
HETATM   10  C5  UNL     1      24.786   0.923  53.468  1.00  0.00     0.035 A 
BRANCH   4  11
HETATM   11  O1  UNL     1      27.597   2.802  51.981  1.00  0.00    -0.358 OA
HETATM   12  H1  UNL     1      27.364   3.759  51.783  1.00  0.00     0.217 HD
ENDBRANCH   4  11
ENDBRANCH   2   3
ENDBRANCH   1   2
BRANCH   1  13
HETATM   13  C8  UNL     1      22.875   2.470  50.686  1.00  0.00     0.279 C 
BRANCH  13  14
HETATM   14  C9  UNL     1      22.190   1.465  49.826  1.00  0.00     0.069 C 
BRANCH  14  15
HETATM   15  C10 UNL     1      21.090   0.748  50.504  1.00  0.00     0.056 C 
HETATM   16  S1  UNL     1      21.423   0.314  51.836  1.00  0.00    -0.097 SA
ENDBRANCH  14  15
ENDBRANCH  13  14
ENDBRANCH   1  13
BRANCH   1  17
HETATM   17  C11 UNL     1      24.683   3.392  49.571  1.00  0.00     0.395 C 
BRANCH  17  18
HETATM   18  N2  UNL     1      26.103   3.710  49.586  1.00  0.00    -0.365 N 
HETATM   19  H13 UNL     1      26.724   3.030  50.062  1.00  0.00     0.161 HD
BRANCH  18  20
HETATM   20  C12 UNL     1      26.655   4.881  48.997  1.00  0.00     0.029 A 
HETATM   21  C13 UNL     1      25.908   6.010  48.773  1.00  0.00     0.029 A 
HETATM   22  C14 UNL     1      26.431   7.160  48.201  1.00  0.00     0.002 A 
HETATM   23  C15 UNL     1      27.779   7.173  47.836  1.00  0.00     0.000 A 
HETATM   24  C16 UNL     1      28.529   6.032  48.063  1.00  0.00     0.002 A 
HETATM   25  C17 UNL     1      27.983   4.897  48.635  1.00  0.00     0.029 A 
ENDBRANCH  18  20
ENDBRANCH  17  18
ENDBRANCH   1  17
TORSDOF 9
ENDMDL
MODEL 6
REMARK VINA RESULT:      -6.4      3.778      6.587
REMARK  9 active torsions:
REMARK  status: ('A' for Active; 'I' for Inactive)
REMARK    1  A    between atoms: O1_1  and  C1_2 
REMARK    2  A    between atoms: C6_9  and  C7_10 
REMARK    3  A    between atoms: C7_10  and  N1_11 
REMARK    4  A    between atoms: N1_11  and  C8_12 
REMARK    5  A    between atoms: N1_11  and  C11_16 
REMARK    6  A    between atoms: C8_12  and  C9_13 
REMARK    7  A    between atoms: C9_13  and  C10_14 
REMARK    8  A    between atoms: C11_16  and  N2_17 
REMARK    9  A    between atoms: N2_17  and  C12_18 
ROOT
HETATM    1  N1  UNL     1      25.383   3.836  50.905  1.00  0.00     0.110 N 
ENDROOT
BRANCH   1   2
HETATM    2  C7  UNL     1      25.307   4.085  49.480  1.00  0.00     0.316 C 
BRANCH   2   3
HETATM    3  C6  UNL     1      26.396   5.020  49.034  1.00  0.00     0.006 A 
HETATM    4  C1  UNL     1      25.936   6.334  49.037  1.00  0.00     0.095 A 
HETATM    5  C2  UNL     1      26.748   7.380  48.668  1.00  0.00     0.069 A 
HETATM    6 CL1  UNL     1      26.282   9.065  48.634  1.00  0.00    -0.081 Cl
HETATM    7  C3  UNL     1      28.068   7.130  48.280  1.00  0.00     0.050 A 
HETATM    8  C4  UNL     1      28.502   5.822  48.286  1.00  0.00     0.036 A 
HETATM    9 CL2  UNL     1      30.139   5.381  47.819  1.00  0.00    -0.084 Cl
HETATM   10  C5  UNL     1      27.694   4.770  48.654  1.00  0.00     0.035 A 
BRANCH   4  11
HETATM   11  O1  UNL     1      24.673   6.763  49.388  1.00  0.00    -0.358 OA
HETATM   12  H1  UNL     1      24.455   7.646  49.816  1.00  0.00     0.217 HD
ENDBRANCH   4  11
ENDBRANCH   2   3
ENDBRANCH   1   2
BRANCH   1  13
HETATM   13  C8  UNL     1      24.030   3.600  51.387  1.00  0.00     0.279 C 
BRANCH  13  14
HETATM   14  C9  UNL     1      23.021   3.400  50.309  1.00  0.00     0.069 C 
BRANCH  14  15
HETATM   15  C10 UNL     1      21.741   4.096  50.552  1.00  0.00     0.056 C 
HETATM   16  S1  UNL     1      21.864   5.237  51.422  1.00  0.00    -0.097 SA
ENDBRANCH  14  15
ENDBRANCH  13  14
ENDBRANCH   1  13
BRANCH   1  17
HETATM   17  C11 UNL     1      26.081   2.576  51.058  1.00  0.00     0.395 C 
BRANCH  17  18
HETATM   18  N2  UNL     1      26.834   2.516  52.302  1.00  0.00    -0.365 N 
HETATM   19  H13 UNL     1      26.842   3.377  52.879  1.00  0.00     0.161 HD
BRANCH  18  20
HETATM   20  C12 UNL     1      27.539   1.362  52.742  1.00  0.00     0.029 A 
HETATM   21  C13 UNL     1      28.735   1.445  53.410  1.00  0.00     0.029 A 
HETATM   22  C14 UNL     1      29.434   0.331  53.848  1.00  0.00     0.002 A 
HETATM   23  C15 UNL     1      28.899  -0.934  53.601  1.00  0.00     0.000 A 
HETATM   24  C16 UNL     1      27.693  -1.015  52.927  1.00  0.00     0.002 A 
HETATM   25  C17 UNL     1      27.015   0.113  52.500  1.00  0.00     0.029 A 
ENDBRANCH  18  20
ENDBRANCH  17  18
ENDBRANCH   1  17
TORSDOF 9
ENDMDL
MODEL 7
REMARK VINA RESULT:      -6.3      3.535      6.222
REMARK  9 active torsions:
REMARK  status: ('A' for Active; 'I' for Inactive)
REMARK    1  A    between atoms: O1_1  and  C1_2 
REMARK    2  A    between atoms: C6_9  and  C7_10 
REMARK    3  A    between atoms: C7_10  and  N1_11 
REMARK    4  A    between atoms: N1_11  and  C8_12 
REMARK    5  A    between atoms: N1_11  and  C11_16 
REMARK    6  A    between atoms: C8_12  and  C9_13 
REMARK    7  A    between atoms: C9_13  and  C10_14 
REMARK    8  A    between atoms: C11_16  and  N2_17 
REMARK    9  A    between atoms: N2_17  and  C12_18 
ROOT
HETATM    1  N1  UNL     1      24.574   3.160  50.971  1.00  0.00     0.110 N 
ENDROOT
BRANCH   1   2
HETATM    2  C7  UNL     1      24.070   3.229  52.327  1.00  0.00     0.316 C 
BRANCH   2   3
HETATM    3  C6  UNL     1      22.745   2.531  52.449  1.00  0.00     0.006 A 
HETATM    4  C1  UNL     1      22.907   1.286  53.050  1.00  0.00     0.095 A 
HETATM    5  C2  UNL     1      21.838   0.452  53.275  1.00  0.00     0.069 A 
HETATM    6 CL1  UNL     1      21.920  -1.128  54.020  1.00  0.00    -0.081 Cl
HETATM    7  C3  UNL     1      20.553   0.854  52.896  1.00  0.00     0.050 A 
HETATM    8  C4  UNL     1      20.416   2.091  52.304  1.00  0.00     0.036 A 
HETATM    9 CL2  UNL     1      18.853   2.708  51.785  1.00  0.00    -0.084 Cl
HETATM   10  C5  UNL     1      21.482   2.931  52.076  1.00  0.00     0.035 A 
BRANCH   4  11
HETATM   11  O1  UNL     1      24.093   0.730  53.485  1.00  0.00    -0.358 OA
HETATM   12  H1  UNL     1      24.822   0.375  52.891  1.00  0.00     0.217 HD
ENDBRANCH   4  11
ENDBRANCH   2   3
ENDBRANCH   1   2
BRANCH   1  13
HETATM   13  C8  UNL     1      24.950   4.507  50.568  1.00  0.00     0.279 C 
BRANCH  13  14
HETATM   14  C9  UNL     1      23.841   5.499  50.634  1.00  0.00     0.069 C 
BRANCH  14  15
HETATM   15  C10 UNL     1      24.249   6.819  51.157  1.00  0.00     0.056 C 
HETATM   16  S1  UNL     1      23.661   7.925  50.446  1.00  0.00    -0.097 SA
ENDBRANCH  14  15
ENDBRANCH  13  14
ENDBRANCH   1  13
BRANCH   1  17
HETATM   17  C11 UNL     1      25.811   2.409  51.037  1.00  0.00     0.395 C 
BRANCH  17  18
HETATM   18  N2  UNL     1      26.533   2.652  52.276  1.00  0.00    -0.365 N 
HETATM   19  H13 UNL     1      26.360   3.563  52.741  1.00  0.00     0.161 HD
BRANCH  18  20
HETATM   20  C12 UNL     1      27.438   1.722  52.857  1.00  0.00     0.029 A 
HETATM   21  C13 UNL     1      28.475   2.117  53.665  1.00  0.00     0.029 A 
HETATM   22  C14 UNL     1      29.366   1.224  54.241  1.00  0.00     0.002 A 
HETATM   23  C15 UNL     1      29.202  -0.140  53.990  1.00  0.00     0.000 A 
HETATM   24  C16 UNL     1      28.156  -0.534  53.175  1.00  0.00     0.002 A 
HETATM   25  C17 UNL     1      27.281   0.377  52.612  1.00  0.00     0.029 A 
ENDBRANCH  18  20
ENDBRANCH  17  18
ENDBRANCH   1  17
TORSDOF 9
ENDMDL
MODEL 8
REMARK VINA RESULT:      -6.3      2.409      3.315
REMARK  9 active torsions:
REMARK  status: ('A' for Active; 'I' for Inactive)
REMARK    1  A    between atoms: O1_1  and  C1_2 
REMARK    2  A    between atoms: C6_9  and  C7_10 
REMARK    3  A    between atoms: C7_10  and  N1_11 
REMARK    4  A    between atoms: N1_11  and  C8_12 
REMARK    5  A    between atoms: N1_11  and  C11_16 
REMARK    6  A    between atoms: C8_12  and  C9_13 
REMARK    7  A    between atoms: C9_13  and  C10_14 
REMARK    8  A    between atoms: C11_16  and  N2_17 
REMARK    9  A    between atoms: N2_17  and  C12_18 
ROOT
HETATM    1  N1  UNL     1      23.596   2.908  49.909  1.00  0.00     0.110 N 
ENDROOT
BRANCH   1   2
HETATM    2  C7  UNL     1      23.808   3.148  51.322  1.00  0.00     0.316 C 
BRANCH   2   3
HETATM    3  C6  UNL     1      23.994   1.858  52.069  1.00  0.00     0.006 A 
HETATM    4  C1  UNL     1      25.317   1.435  51.984  1.00  0.00     0.095 A 
HETATM    5  C2  UNL     1      25.742   0.276  52.590  1.00  0.00     0.069 A 
HETATM    6 CL1  UNL     1      27.374  -0.351  52.551  1.00  0.00    -0.081 Cl
HETATM    7  C3  UNL     1      24.832  -0.504  53.310  1.00  0.00     0.050 A 
HETATM    8  C4  UNL     1      23.527  -0.066  53.382  1.00  0.00     0.036 A 
HETATM    9 CL2  UNL     1      22.291  -0.958  54.258  1.00  0.00    -0.084 Cl
HETATM   10  C5  UNL     1      23.095   1.094  52.778  1.00  0.00     0.035 A 
BRANCH   4  11
HETATM   11  O1  UNL     1      26.344   2.074  51.320  1.00  0.00    -0.358 OA
HETATM   12  H1  UNL     1      26.473   2.088  50.323  1.00  0.00     0.217 HD
ENDBRANCH   4  11
ENDBRANCH   2   3
ENDBRANCH   1   2
BRANCH   1  13
HETATM   13  C8  UNL     1      22.160   2.908  49.670  1.00  0.00     0.279 C 
BRANCH  13  14
HETATM   14  C9  UNL     1      21.447   4.095  50.219  1.00  0.00     0.069 C 
BRANCH  14  15
HETATM   15  C10 UNL     1      20.070   3.809  50.670  1.00  0.00     0.056 C 
HETATM   16  S1  UNL     1      20.008   3.197  51.973  1.00  0.00    -0.097 SA
ENDBRANCH  14  15
ENDBRANCH  13  14
ENDBRANCH   1  13
BRANCH   1  17
HETATM   17  C11 UNL     1      24.111   4.073  49.219  1.00  0.00     0.395 C 
BRANCH  17  18
HETATM   18  N2  UNL     1      25.320   4.588  49.843  1.00  0.00    -0.365 N 
HETATM   19  H13 UNL     1      25.419   4.426  50.863  1.00  0.00     0.161 HD
BRANCH  18  20
HETATM   20  C12 UNL     1      26.338   5.284  49.135  1.00  0.00     0.029 A 
HETATM   21  C13 UNL     1      26.145   6.545  48.628  1.00  0.00     0.029 A 
HETATM   22  C14 UNL     1      27.127   7.239  47.937  1.00  0.00     0.002 A 
HETATM   23  C15 UNL     1      28.369   6.630  47.748  1.00  0.00     0.000 A 
HETATM   24  C16 UNL     1      28.560   5.359  48.260  1.00  0.00     0.002 A 
HETATM   25  C17 UNL     1      27.564   4.687  48.946  1.00  0.00     0.029 A 
ENDBRANCH  18  20
ENDBRANCH  17  18
ENDBRANCH   1  17
TORSDOF 9
ENDMDL
MODEL 9
REMARK VINA RESULT:      -6.3      2.999      4.726
REMARK  9 active torsions:
REMARK  status: ('A' for Active; 'I' for Inactive)
REMARK    1  A    between atoms: O1_1  and  C1_2 
REMARK    2  A    between atoms: C6_9  and  C7_10 
REMARK    3  A    between atoms: C7_10  and  N1_11 
REMARK    4  A    between atoms: N1_11  and  C8_12 
REMARK    5  A    between atoms: N1_11  and  C11_16 
REMARK    6  A    between atoms: C8_12  and  C9_13 
REMARK    7  A    between atoms: C9_13  and  C10_14 
REMARK    8  A    between atoms: C11_16  and  N2_17 
REMARK    9  A    between atoms: N2_17  and  C12_18 
ROOT
HETATM    1  N1  UNL     1      24.819   2.357  52.584  1.00  0.00     0.110 N 
ENDROOT
BRANCH   1   2
HETATM    2  C7  UNL     1      24.434   1.202  51.800  1.00  0.00     0.316 C 
BRANCH   2   3
HETATM    3  C6  UNL     1      23.088   0.685  52.223  1.00  0.00     0.006 A 
HETATM    4  C1  UNL     1      23.221  -0.187  53.299  1.00  0.00     0.095 A 
HETATM    5  C2  UNL     1      22.128  -0.795  53.872  1.00  0.00     0.069 A 
HETATM    6 CL1  UNL     1      22.173  -1.903  55.223  1.00  0.00    -0.081 Cl
HETATM    7  C3  UNL     1      20.849  -0.537  53.369  1.00  0.00     0.050 A 
HETATM    8  C4  UNL     1      20.741   0.330  52.303  1.00  0.00     0.036 A 
HETATM    9 CL2  UNL     1      19.188   0.733  51.583  1.00  0.00    -0.084 Cl
HETATM   10  C5  UNL     1      21.831   0.941  51.725  1.00  0.00     0.035 A 
BRANCH   4  11
HETATM   11  O1  UNL     1      24.396  -0.555  53.921  1.00  0.00    -0.358 OA
HETATM   12  H1  UNL     1      24.891  -0.008  54.603  1.00  0.00     0.217 HD
ENDBRANCH   4  11
ENDBRANCH   2   3
ENDBRANCH   1   2
BRANCH   1  13
HETATM   13  C8  UNL     1      26.269   2.349  52.705  1.00  0.00     0.279 C 
BRANCH  13  14
HETATM   14  C9  UNL     1      26.920   1.111  52.193  1.00  0.00     0.069 C 
BRANCH  14  15
HETATM   15  C10 UNL     1      27.819   0.460  53.168  1.00  0.00     0.056 C 
HETATM   16  S1  UNL     1      28.822   1.345  53.703  1.00  0.00    -0.097 SA
ENDBRANCH  14  15
ENDBRANCH  13  14
ENDBRANCH   1  13
BRANCH   1  17
HETATM   17  C11 UNL     1      24.498   3.518  51.776  1.00  0.00     0.395 C 
BRANCH  17  18
HETATM   18  N2  UNL     1      24.991   3.388  50.414  1.00  0.00    -0.365 N 
HETATM   19  H13 UNL     1      24.731   2.521  49.908  1.00  0.00     0.161 HD
BRANCH  18  20
HETATM   20  C12 UNL     1      25.792   4.370  49.768  1.00  0.00     0.029 A 
HETATM   21  C13 UNL     1      26.989   4.063  49.173  1.00  0.00     0.029 A 
HETATM   22  C14 UNL     1      27.781   5.007  48.538  1.00  0.00     0.002 A 
HETATM   23  C15 UNL     1      27.343   6.332  48.500  1.00  0.00     0.000 A 
HETATM   24  C16 UNL     1      26.136   6.639  49.103  1.00  0.00     0.002 A 
HETATM   25  C17 UNL     1      25.363   5.678  49.730  1.00  0.00     0.029 A 
ENDBRANCH  18  20
ENDBRANCH  17  18
ENDBRANCH   1  17
TORSDOF 9
ENDMDL
