MODEL 1
REMARK VINA RESULT:      -8.4      0.000      0.000
REMARK  6 active torsions:
REMARK  status: ('A' for Active; 'I' for Inactive)
REMARK    1  A    between atoms: C2_2  and  C3_3 
REMARK    2  A    between atoms: C2_2  and  N1_10 
REMARK    3  A    between atoms: N1_10  and  C9_11 
REMARK    4  A    between atoms: N1_10  and  C15_19 
REMARK    5  A    between atoms: C11_14  and  N2_15 
REMARK    6  A    between atoms: C16_21  and  O1_22 
ROOT
HETATM    1  N1  UNL     1      25.164   0.023  53.655  1.00  0.00    -0.318 N 
ENDROOT
BRANCH   1   2
HETATM    2  C2  UNL     1      24.089  -0.825  54.063  1.00  0.00     0.121 C 
HETATM    3  C1  UNL     1      24.217  -1.142  55.523  1.00  0.00     0.038 C 
BRANCH   2   4
HETATM    4  C3  UNL     1      22.749  -0.447  53.628  1.00  0.00    -0.035 A 
HETATM    5  C4  UNL     1      21.760  -0.074  54.519  1.00  0.00     0.011 A 
HETATM    6  C5  UNL     1      20.484   0.284  54.073  1.00  0.00     0.024 A 
HETATM    7  C6  UNL     1      20.237   0.257  52.723  1.00  0.00     0.034 A 
HETATM    8 CL1  UNL     1      18.667   0.690  52.072  1.00  0.00    -0.084 Cl
HETATM    9  C7  UNL     1      21.237  -0.119  51.831  1.00  0.00     0.024 A 
HETATM   10  C8  UNL     1      22.510  -0.477  52.269  1.00  0.00     0.011 A 
ENDBRANCH   2   4
ENDBRANCH   1   2
BRANCH   1  11
HETATM   11  C9  UNL     1      26.540  -0.270  53.678  1.00  0.00     0.055 C 
HETATM   12  C10 UNL     1      27.077  -1.260  52.980  1.00  0.00     0.153 C 
HETATM   13  F1  UNL     1      26.407  -2.112  52.166  1.00  0.00    -0.206 F 
HETATM   14  C11 UNL     1      28.494  -1.670  52.915  1.00  0.00     0.304 C 
HETATM   15  C12 UNL     1      29.339  -0.954  53.893  1.00  0.00     0.011 C 
HETATM   16  C13 UNL     1      28.806   0.047  54.587  1.00  0.00    -0.022 C 
HETATM   17  C14 UNL     1      27.417   0.582  54.530  1.00  0.00     0.087 C 
BRANCH  14  18
HETATM   18  N2  UNL     1      28.671  -3.097  53.204  1.00  0.00     0.093 N 
HETATM   19  H10 UNL     1      29.533  -3.454  52.727  1.00  0.00     0.314 HD
HETATM   20  H11 UNL     1      27.791  -3.560  52.841  1.00  0.00     0.314 HD
ENDBRANCH  14  18
ENDBRANCH   1  11
BRANCH   1  21
HETATM   21  C15 UNL     1      24.958   1.386  53.131  1.00  0.00     0.176 A 
HETATM   22  N3  UNL     1      24.529   2.473  53.509  1.00  0.00    -0.200 NA
HETATM   23  C16 UNL     1      24.513   3.521  52.680  1.00  0.00     0.171 A 
HETATM   24  C17 UNL     1      25.049   3.286  51.273  1.00  0.00     0.111 A 
HETATM   25  S1  UNL     1      25.496   1.457  51.463  1.00  0.00    -0.059 SA
BRANCH  23  26
HETATM   26  O1  UNL     1      23.974   4.623  53.378  1.00  0.00    -0.344 OA
HETATM   27  H16 UNL     1      24.528   5.364  53.762  1.00  0.00     0.219 HD
ENDBRANCH  23  26
ENDBRANCH   1  21
TORSDOF 6
ENDMDL
MODEL 2
REMARK VINA RESULT:      -7.9      2.223      4.228
REMARK  6 active torsions:
REMARK  status: ('A' for Active; 'I' for Inactive)
REMARK    1  A    between atoms: C2_2  and  C3_3 
REMARK    2  A    between atoms: C2_2  and  N1_10 
REMARK    3  A    between atoms: N1_10  and  C9_11 
REMARK    4  A    between atoms: N1_10  and  C15_19 
REMARK    5  A    between atoms: C11_14  and  N2_15 
REMARK    6  A    between atoms: C16_21  and  O1_22 
ROOT
HETATM    1  N1  UNL     1      25.570   0.732  53.418  1.00  0.00    -0.318 N 
ENDROOT
BRANCH   1   2
HETATM    2  C2  UNL     1      24.778  -0.392  53.806  1.00  0.00     0.121 C 
HETATM    3  C1  UNL     1      25.099  -0.777  55.219  1.00  0.00     0.038 C 
BRANCH   2   4
HETATM    4  C3  UNL     1      23.355  -0.336  53.489  1.00  0.00    -0.035 A 
HETATM    5  C4  UNL     1      22.890  -0.127  52.204  1.00  0.00     0.011 A 
HETATM    6  C5  UNL     1      21.521  -0.079  51.930  1.00  0.00     0.024 A 
HETATM    7  C6  UNL     1      20.643  -0.245  52.973  1.00  0.00     0.034 A 
HETATM    8 CL1  UNL     1      18.908  -0.199  52.725  1.00  0.00    -0.084 Cl
HETATM    9  C7  UNL     1      21.117  -0.455  54.265  1.00  0.00     0.024 A 
HETATM   10  C8  UNL     1      22.481  -0.504  54.544  1.00  0.00     0.011 A 
ENDBRANCH   2   4
ENDBRANCH   1   2
BRANCH   1  11
HETATM   11  C9  UNL     1      25.144   1.882  52.729  1.00  0.00     0.055 C 
HETATM   12  C10 UNL     1      25.605   2.218  51.534  1.00  0.00     0.153 C 
HETATM   13  F1  UNL     1      26.527   1.529  50.816  1.00  0.00    -0.206 F 
HETATM   14  C11 UNL     1      25.244   3.388  50.709  1.00  0.00     0.304 C 
HETATM   15  C12 UNL     1      24.380   4.347  51.428  1.00  0.00     0.011 C 
HETATM   16  C13 UNL     1      23.907   4.008  52.624  1.00  0.00    -0.022 C 
HETATM   17  C14 UNL     1      24.126   2.749  53.388  1.00  0.00     0.087 C 
BRANCH  14  18
HETATM   18  N2  UNL     1      26.423   4.152  50.287  1.00  0.00     0.093 N 
HETATM   19  H10 UNL     1      26.452   5.071  50.790  1.00  0.00     0.314 HD
HETATM   20  H11 UNL     1      26.309   4.272  49.241  1.00  0.00     0.314 HD
ENDBRANCH  14  18
ENDBRANCH   1  11
BRANCH   1  21
HETATM   21  C15 UNL     1      27.013   0.836  53.705  1.00  0.00     0.176 A 
HETATM   22  N3  UNL     1      27.805   1.621  54.221  1.00  0.00    -0.200 NA
HETATM   23  C16 UNL     1      29.106   1.327  54.287  1.00  0.00     0.171 A 
HETATM   24  C17 UNL     1      29.533  -0.013  53.699  1.00  0.00     0.111 A 
HETATM   25  S1  UNL     1      27.828  -0.606  53.130  1.00  0.00    -0.059 SA
BRANCH  23  26
HETATM   26  O1  UNL     1      29.766   2.400  54.924  1.00  0.00    -0.344 OA
HETATM   27  H16 UNL     1      30.605   2.298  55.461  1.00  0.00     0.219 HD
ENDBRANCH  23  26
ENDBRANCH   1  21
TORSDOF 6
ENDMDL
MODEL 3
REMARK VINA RESULT:      -7.8      3.636      6.235
REMARK  6 active torsions:
REMARK  status: ('A' for Active; 'I' for Inactive)
REMARK    1  A    between atoms: C2_2  and  C3_3 
REMARK    2  A    between atoms: C2_2  and  N1_10 
REMARK    3  A    between atoms: N1_10  and  C9_11 
REMARK    4  A    between atoms: N1_10  and  C15_19 
REMARK    5  A    between atoms: C11_14  and  N2_15 
REMARK    6  A    between atoms: C16_21  and  O1_22 
ROOT
HETATM    1  N1  UNL     1      24.494   2.914  50.613  1.00  0.00    -0.318 N 
ENDROOT
BRANCH   1   2
HETATM    2  C2  UNL     1      25.794   2.390  50.339  1.00  0.00     0.121 C 
HETATM    3  C1  UNL     1      26.598   3.401  49.577  1.00  0.00     0.038 C 
BRANCH   2   4
HETATM    4  C3  UNL     1      26.495   1.751  51.446  1.00  0.00    -0.035 A 
HETATM    5  C4  UNL     1      26.442   0.387  51.667  1.00  0.00     0.011 A 
HETATM    6  C5  UNL     1      27.125  -0.199  52.736  1.00  0.00     0.024 A 
HETATM    7  C6  UNL     1      27.852   0.617  53.567  1.00  0.00     0.034 A 
HETATM    8 CL1  UNL     1      28.739  -0.029  54.935  1.00  0.00    -0.084 Cl
HETATM    9  C7  UNL     1      27.901   1.989  53.340  1.00  0.00     0.024 A 
HETATM   10  C8  UNL     1      27.223   2.579  52.276  1.00  0.00     0.011 A 
ENDBRANCH   2   4
ENDBRANCH   1   2
BRANCH   1  11
HETATM   11  C9  UNL     1      23.345   2.196  50.991  1.00  0.00     0.055 C 
HETATM   12  C10 UNL     1      22.995   2.009  52.256  1.00  0.00     0.153 C 
HETATM   13  F1  UNL     1      23.667   2.467  53.341  1.00  0.00    -0.206 F 
HETATM   14  C11 UNL     1      21.825   1.283  52.785  1.00  0.00     0.304 C 
HETATM   15  C12 UNL     1      21.080   0.560  51.732  1.00  0.00     0.011 C 
HETATM   16  C13 UNL     1      21.422   0.752  50.461  1.00  0.00    -0.022 C 
HETATM   17  C14 UNL     1      22.494   1.626  49.909  1.00  0.00     0.087 C 
BRANCH  14  18
HETATM   18  N2  UNL     1      22.204   0.267  53.773  1.00  0.00     0.093 N 
HETATM   19  H10 UNL     1      22.876   0.675  54.465  1.00  0.00     0.314 HD
HETATM   20  H11 UNL     1      22.638  -0.516  53.206  1.00  0.00     0.314 HD
ENDBRANCH  14  18
ENDBRANCH   1  11
BRANCH   1  21
HETATM   21  C15 UNL     1      24.171   4.351  50.531  1.00  0.00     0.176 A 
HETATM   22  N3  UNL     1      24.248   5.363  51.224  1.00  0.00    -0.200 NA
HETATM   23  C16 UNL     1      23.821   6.539  50.757  1.00  0.00     0.171 A 
HETATM   24  C17 UNL     1      23.249   6.544  49.344  1.00  0.00     0.111 A 
HETATM   25  S1  UNL     1      23.467   4.703  48.965  1.00  0.00    -0.059 SA
BRANCH  23  26
HETATM   26  O1  UNL     1      24.032   7.511  51.758  1.00  0.00    -0.344 OA
HETATM   27  H16 UNL     1      24.040   8.497  51.585  1.00  0.00     0.219 HD
ENDBRANCH  23  26
ENDBRANCH   1  21
TORSDOF 6
ENDMDL
MODEL 4
REMARK VINA RESULT:      -7.7      1.576      2.124
REMARK  6 active torsions:
REMARK  status: ('A' for Active; 'I' for Inactive)
REMARK    1  A    between atoms: C2_2  and  C3_3 
REMARK    2  A    between atoms: C2_2  and  N1_10 
REMARK    3  A    between atoms: N1_10  and  C9_11 
REMARK    4  A    between atoms: N1_10  and  C15_19 
REMARK    5  A    between atoms: C11_14  and  N2_15 
REMARK    6  A    between atoms: C16_21  and  O1_22 
ROOT
HETATM    1  N1  UNL     1      24.555   0.307  53.285  1.00  0.00    -0.318 N 
ENDROOT
BRANCH   1   2
HETATM    2  C2  UNL     1      23.405  -0.525  53.441  1.00  0.00     0.121 C 
HETATM    3  C1  UNL     1      23.345  -1.051  54.844  1.00  0.00     0.038 C 
BRANCH   2   4
HETATM    4  C3  UNL     1      22.143  -0.009  52.920  1.00  0.00    -0.035 A 
HETATM    5  C4  UNL     1      21.829  -0.044  51.575  1.00  0.00     0.011 A 
HETATM    6  C5  UNL     1      20.612   0.456  51.104  1.00  0.00     0.024 A 
HETATM    7  C6  UNL     1      19.732   0.986  52.015  1.00  0.00     0.034 A 
HETATM    8 CL1  UNL     1      18.182   1.638  51.517  1.00  0.00    -0.084 Cl
HETATM    9  C7  UNL     1      20.054   1.018  53.369  1.00  0.00     0.024 A 
HETATM   10  C8  UNL     1      21.265   0.520  53.844  1.00  0.00     0.011 A 
ENDBRANCH   2   4
ENDBRANCH   1   2
BRANCH   1  11
HETATM   11  C9  UNL     1      25.901  -0.047  53.496  1.00  0.00     0.055 C 
HETATM   12  C10 UNL     1      26.652   0.505  54.438  1.00  0.00     0.153 C 
HETATM   13  F1  UNL     1      26.253   1.461  55.313  1.00  0.00    -0.206 F 
HETATM   14  C11 UNL     1      28.065   0.226  54.762  1.00  0.00     0.304 C 
HETATM   15  C12 UNL     1      28.709  -0.668  53.777  1.00  0.00     0.011 C 
HETATM   16  C13 UNL     1      27.957  -1.231  52.837  1.00  0.00    -0.022 C 
HETATM   17  C14 UNL     1      26.492  -1.091  52.611  1.00  0.00     0.087 C 
BRANCH  14  18
HETATM   18  N2  UNL     1      28.878   1.446  54.785  1.00  0.00     0.093 N 
HETATM   19  H10 UNL     1      28.443   2.178  54.175  1.00  0.00     0.314 HD
HETATM   20  H11 UNL     1      29.831   1.145  54.432  1.00  0.00     0.314 HD
ENDBRANCH  14  18
ENDBRANCH   1  11
BRANCH   1  21
HETATM   21  C15 UNL     1      24.478   1.717  52.861  1.00  0.00     0.176 A 
HETATM   22  N3  UNL     1      24.147   2.809  53.317  1.00  0.00    -0.200 NA
HETATM   23  C16 UNL     1      24.230   3.911  52.566  1.00  0.00     0.171 A 
HETATM   24  C17 UNL     1      24.751   3.730  51.146  1.00  0.00     0.111 A 
HETATM   25  S1  UNL     1      25.029   1.859  51.203  1.00  0.00    -0.059 SA
BRANCH  23  26
HETATM   26  O1  UNL     1      23.789   5.004  53.343  1.00  0.00    -0.344 OA
HETATM   27  H16 UNL     1      22.826   5.255  53.455  1.00  0.00     0.219 HD
ENDBRANCH  23  26
ENDBRANCH   1  21
TORSDOF 6
ENDMDL
MODEL 5
REMARK VINA RESULT:      -7.5      3.656      5.720
REMARK  6 active torsions:
REMARK  status: ('A' for Active; 'I' for Inactive)
REMARK    1  A    between atoms: C2_2  and  C3_3 
REMARK    2  A    between atoms: C2_2  and  N1_10 
REMARK    3  A    between atoms: N1_10  and  C9_11 
REMARK    4  A    between atoms: N1_10  and  C15_19 
REMARK    5  A    between atoms: C11_14  and  N2_15 
REMARK    6  A    between atoms: C16_21  and  O1_22 
ROOT
HETATM    1  N1  UNL     1      23.503   2.113  52.156  1.00  0.00    -0.318 N 
ENDROOT
BRANCH   1   2
HETATM    2  C2  UNL     1      23.354   3.307  51.385  1.00  0.00     0.121 C 
HETATM    3  C1  UNL     1      22.682   4.363  52.210  1.00  0.00     0.038 C 
BRANCH   2   4
HETATM    4  C3  UNL     1      24.521   3.758  50.635  1.00  0.00    -0.035 A 
HETATM    5  C4  UNL     1      25.415   2.876  50.056  1.00  0.00     0.011 A 
HETATM    6  C5  UNL     1      26.525   3.336  49.342  1.00  0.00     0.024 A 
HETATM    7  C6  UNL     1      26.706   4.693  49.229  1.00  0.00     0.034 A 
HETATM    8 CL1  UNL     1      28.070   5.362  48.354  1.00  0.00    -0.084 Cl
HETATM    9  C7  UNL     1      25.803   5.576  49.815  1.00  0.00     0.024 A 
HETATM   10  C8  UNL     1      24.695   5.122  50.527  1.00  0.00     0.011 A 
ENDBRANCH   2   4
ENDBRANCH   1   2
BRANCH   1  11
HETATM   11  C9  UNL     1      24.700   1.546  52.631  1.00  0.00     0.055 C 
HETATM   12  C10 UNL     1      25.474   2.143  53.527  1.00  0.00     0.153 C 
HETATM   13  F1  UNL     1      25.238   3.348  54.103  1.00  0.00    -0.206 F 
HETATM   14  C11 UNL     1      26.743   1.661  54.106  1.00  0.00     0.304 C 
HETATM   15  C12 UNL     1      27.240   0.436  53.446  1.00  0.00     0.011 C 
HETATM   16  C13 UNL     1      26.463  -0.171  52.554  1.00  0.00    -0.022 C 
HETATM   17  C14 UNL     1      25.100   0.215  52.093  1.00  0.00     0.087 C 
BRANCH  14  18
HETATM   18  N2  UNL     1      27.820   2.648  53.977  1.00  0.00     0.093 N 
HETATM   19  H10 UNL     1      27.850   3.258  54.828  1.00  0.00     0.314 HD
HETATM   20  H11 UNL     1      27.584   3.195  53.101  1.00  0.00     0.314 HD
ENDBRANCH  14  18
ENDBRANCH   1  11
BRANCH   1  21
HETATM   21  C15 UNL     1      22.362   1.277  52.574  1.00  0.00     0.176 A 
HETATM   22  N3  UNL     1      21.948   0.704  53.578  1.00  0.00    -0.200 NA
HETATM   23  C16 UNL     1      20.806   0.011  53.541  1.00  0.00     0.171 A 
HETATM   24  C17 UNL     1      20.070  -0.019  52.206  1.00  0.00     0.111 A 
HETATM   25  S1  UNL     1      21.282   1.042  51.213  1.00  0.00    -0.059 SA
BRANCH  23  26
HETATM   26  O1  UNL     1      20.582  -0.532  54.824  1.00  0.00    -0.344 OA
HETATM   27  H16 UNL     1      21.314  -0.772  55.463  1.00  0.00     0.219 HD
ENDBRANCH  23  26
ENDBRANCH   1  21
TORSDOF 6
ENDMDL
MODEL 6
REMARK VINA RESULT:      -7.5      4.305      6.578
REMARK  6 active torsions:
REMARK  status: ('A' for Active; 'I' for Inactive)
REMARK    1  A    between atoms: C2_2  and  C3_3 
REMARK    2  A    between atoms: C2_2  and  N1_10 
REMARK    3  A    between atoms: N1_10  and  C9_11 
REMARK    4  A    between atoms: N1_10  and  C15_19 
REMARK    5  A    between atoms: C11_14  and  N2_15 
REMARK    6  A    between atoms: C16_21  and  O1_22 
ROOT
HETATM    1  N1  UNL     1      24.389   4.301  50.560  1.00  0.00    -0.318 N 
ENDROOT
BRANCH   1   2
HETATM    2  C2  UNL     1      24.354   3.804  51.899  1.00  0.00     0.121 C 
HETATM    3  C1  UNL     1      23.003   4.056  52.499  1.00  0.00     0.038 C 
BRANCH   2   4
HETATM    4  C3  UNL     1      24.888   2.465  52.119  1.00  0.00    -0.035 A 
HETATM    5  C4  UNL     1      24.180   1.487  52.793  1.00  0.00     0.011 A 
HETATM    6  C5  UNL     1      24.716   0.212  52.989  1.00  0.00     0.024 A 
HETATM    7  C6  UNL     1      25.970  -0.048  52.493  1.00  0.00     0.034 A 
HETATM    8 CL1  UNL     1      26.724  -1.619  52.691  1.00  0.00    -0.084 Cl
HETATM    9  C7  UNL     1      26.678   0.940  51.815  1.00  0.00     0.024 A 
HETATM   10  C8  UNL     1      26.148   2.213  51.616  1.00  0.00     0.011 A 
ENDBRANCH   2   4
ENDBRANCH   1   2
BRANCH   1  11
HETATM   11  C9  UNL     1      25.215   5.318  50.047  1.00  0.00     0.055 C 
HETATM   12  C10 UNL     1      26.229   5.078  49.228  1.00  0.00     0.153 C 
HETATM   13  F1  UNL     1      26.612   3.858  48.776  1.00  0.00    -0.206 F 
HETATM   14  C11 UNL     1      27.165   6.045  48.622  1.00  0.00     0.304 C 
HETATM   15  C12 UNL     1      26.999   7.411  49.160  1.00  0.00     0.011 C 
HETATM   16  C13 UNL     1      25.977   7.658  49.974  1.00  0.00    -0.022 C 
HETATM   17  C14 UNL     1      24.922   6.722  50.451  1.00  0.00     0.087 C 
BRANCH  14  18
HETATM   18  N2  UNL     1      28.566   5.687  48.868  1.00  0.00     0.093 N 
HETATM   19  H10 UNL     1      29.184   6.164  48.169  1.00  0.00     0.314 HD
HETATM   20  H11 UNL     1      28.598   4.632  48.776  1.00  0.00     0.314 HD
ENDBRANCH  14  18
ENDBRANCH   1  11
BRANCH   1  21
HETATM   21  C15 UNL     1      23.518   3.786  49.487  1.00  0.00     0.176 A 
HETATM   22  N3  UNL     1      23.344   2.753  48.845  1.00  0.00    -0.200 NA
HETATM   23  C16 UNL     1      22.396   2.689  47.906  1.00  0.00     0.171 A 
HETATM   24  C17 UNL     1      21.565   3.948  47.690  1.00  0.00     0.111 A 
HETATM   25  S1  UNL     1      22.398   5.040  48.992  1.00  0.00    -0.059 SA
BRANCH  23  26
HETATM   26  O1  UNL     1      22.427   1.396  47.341  1.00  0.00    -0.344 OA
HETATM   27  H16 UNL     1      22.361   1.216  46.358  1.00  0.00     0.219 HD
ENDBRANCH  23  26
ENDBRANCH   1  21
TORSDOF 6
ENDMDL
MODEL 7
REMARK VINA RESULT:      -7.4      3.175      4.494
REMARK  6 active torsions:
REMARK  status: ('A' for Active; 'I' for Inactive)
REMARK    1  A    between atoms: C2_2  and  C3_3 
REMARK    2  A    between atoms: C2_2  and  N1_10 
REMARK    3  A    between atoms: N1_10  and  C9_11 
REMARK    4  A    between atoms: N1_10  and  C15_19 
REMARK    5  A    between atoms: C11_14  and  N2_15 
REMARK    6  A    between atoms: C16_21  and  O1_22 
ROOT
HETATM    1  N1  UNL     1      23.892   3.964  50.708  1.00  0.00    -0.318 N 
ENDROOT
BRANCH   1   2
HETATM    2  C2  UNL     1      22.758   3.466  49.996  1.00  0.00     0.121 C 
HETATM    3  C1  UNL     1      23.179   2.991  48.638  1.00  0.00     0.038 C 
BRANCH   2   4
HETATM    4  C3  UNL     1      21.871   2.562  50.719  1.00  0.00    -0.035 A 
HETATM    5  C4  UNL     1      20.974   3.009  51.671  1.00  0.00     0.011 A 
HETATM    6  C5  UNL     1      20.135   2.119  52.348  1.00  0.00     0.024 A 
HETATM    7  C6  UNL     1      20.224   0.784  52.042  1.00  0.00     0.034 A 
HETATM    8 CL1  UNL     1      19.212  -0.406  52.841  1.00  0.00    -0.084 Cl
HETATM    9  C7  UNL     1      21.128   0.339  51.083  1.00  0.00     0.024 A 
HETATM   10  C8  UNL     1      21.967   1.221  50.405  1.00  0.00     0.011 A 
ENDBRANCH   2   4
ENDBRANCH   1   2
BRANCH   1  11
HETATM   11  C9  UNL     1      24.704   3.264  51.620  1.00  0.00     0.055 C 
HETATM   12  C10 UNL     1      25.767   2.565  51.249  1.00  0.00     0.153 C 
HETATM   13  F1  UNL     1      26.219   2.422  49.978  1.00  0.00    -0.206 F 
HETATM   14  C11 UNL     1      26.696   1.793  52.096  1.00  0.00     0.304 C 
HETATM   15  C12 UNL     1      26.239   1.693  53.498  1.00  0.00     0.011 C 
HETATM   16  C13 UNL     1      25.178   2.400  53.876  1.00  0.00    -0.022 C 
HETATM   17  C14 UNL     1      24.339   3.323  53.063  1.00  0.00     0.087 C 
BRANCH  14  18
HETATM   18  N2  UNL     1      26.853   0.411  51.629  1.00  0.00     0.093 N 
HETATM   19  H10 UNL     1      26.259   0.251  50.781  1.00  0.00     0.314 HD
HETATM   20  H11 UNL     1      26.553  -0.189  52.448  1.00  0.00     0.314 HD
ENDBRANCH  14  18
ENDBRANCH   1  11
BRANCH   1  21
HETATM   21  C15 UNL     1      24.384   5.348  50.572  1.00  0.00     0.176 A 
HETATM   22  N3  UNL     1      25.437   5.944  50.362  1.00  0.00    -0.200 NA
HETATM   23  C16 UNL     1      25.462   7.279  50.312  1.00  0.00     0.171 A 
HETATM   24  C17 UNL     1      24.134   7.994  50.525  1.00  0.00     0.111 A 
HETATM   25  S1  UNL     1      23.047   6.464  50.773  1.00  0.00    -0.059 SA
BRANCH  23  26
HETATM   26  O1  UNL     1      26.791   7.683  50.058  1.00  0.00    -0.344 OA
HETATM   27  H16 UNL     1      27.593   7.247  50.469  1.00  0.00     0.219 HD
ENDBRANCH  23  26
ENDBRANCH   1  21
TORSDOF 6
ENDMDL
MODEL 8
REMARK VINA RESULT:      -7.2      2.843      5.425
REMARK  6 active torsions:
REMARK  status: ('A' for Active; 'I' for Inactive)
REMARK    1  A    between atoms: C2_2  and  C3_3 
REMARK    2  A    between atoms: C2_2  and  N1_10 
REMARK    3  A    between atoms: N1_10  and  C9_11 
REMARK    4  A    between atoms: N1_10  and  C15_19 
REMARK    5  A    between atoms: C11_14  and  N2_15 
REMARK    6  A    between atoms: C16_21  and  O1_22 
ROOT
HETATM    1  N1  UNL     1      24.271   1.970  51.885  1.00  0.00    -0.318 N 
ENDROOT
BRANCH   1   2
HETATM    2  C2  UNL     1      23.226   1.004  52.001  1.00  0.00     0.121 C 
HETATM    3  C1  UNL     1      23.041   0.626  53.441  1.00  0.00     0.038 C 
BRANCH   2   4
HETATM    4  C3  UNL     1      21.993   1.275  51.271  1.00  0.00    -0.035 A 
HETATM    5  C4  UNL     1      21.843   0.965  49.932  1.00  0.00     0.011 A 
HETATM    6  C5  UNL     1      20.649   1.236  49.256  1.00  0.00     0.024 A 
HETATM    7  C6  UNL     1      19.624   1.819  49.960  1.00  0.00     0.034 A 
HETATM    8 CL1  UNL     1      18.091   2.196  49.196  1.00  0.00    -0.084 Cl
HETATM    9  C7  UNL     1      19.781   2.128  51.308  1.00  0.00     0.024 A 
HETATM   10  C8  UNL     1      20.968   1.861  51.986  1.00  0.00     0.011 A 
ENDBRANCH   2   4
ENDBRANCH   1   2
BRANCH   1  11
HETATM   11  C9  UNL     1      24.214   3.218  51.237  1.00  0.00     0.055 C 
HETATM   12  C10 UNL     1      23.792   4.322  51.835  1.00  0.00     0.153 C 
HETATM   13  F1  UNL     1      23.365   4.416  53.119  1.00  0.00    -0.206 F 
HETATM   14  C11 UNL     1      23.684   5.683  51.274  1.00  0.00     0.304 C 
HETATM   15  C12 UNL     1      23.939   5.721  49.819  1.00  0.00     0.011 C 
HETATM   16  C13 UNL     1      24.372   4.617  49.217  1.00  0.00    -0.022 C 
HETATM   17  C14 UNL     1      24.653   3.282  49.814  1.00  0.00     0.087 C 
BRANCH  14  18
HETATM   18  N2  UNL     1      22.345   6.254  51.458  1.00  0.00     0.093 N 
HETATM   19  H10 UNL     1      21.644   5.486  51.590  1.00  0.00     0.314 HD
HETATM   20  H11 UNL     1      22.165   6.814  50.578  1.00  0.00     0.314 HD
ENDBRANCH  14  18
ENDBRANCH   1  11
BRANCH   1  21
HETATM   21  C15 UNL     1      25.615   1.775  52.460  1.00  0.00     0.176 A 
HETATM   22  N3  UNL     1      26.439   2.393  53.130  1.00  0.00    -0.200 NA
HETATM   23  C16 UNL     1      27.605   1.830  53.458  1.00  0.00     0.171 A 
HETATM   24  C17 UNL     1      27.840   0.408  52.962  1.00  0.00     0.111 A 
HETATM   25  S1  UNL     1      26.196   0.171  52.054  1.00  0.00    -0.059 SA
BRANCH  23  26
HETATM   26  O1  UNL     1      28.341   2.761  54.222  1.00  0.00    -0.344 OA
HETATM   27  H16 UNL     1      29.008   2.503  54.924  1.00  0.00     0.219 HD
ENDBRANCH  23  26
ENDBRANCH   1  21
TORSDOF 6
ENDMDL
MODEL 9
REMARK VINA RESULT:      -7.2      3.823      6.628
REMARK  6 active torsions:
REMARK  status: ('A' for Active; 'I' for Inactive)
REMARK    1  A    between atoms: C2_2  and  C3_3 
REMARK    2  A    between atoms: C2_2  and  N1_10 
REMARK    3  A    between atoms: N1_10  and  C9_11 
REMARK    4  A    between atoms: N1_10  and  C15_19 
REMARK    5  A    between atoms: C11_14  and  N2_15 
REMARK    6  A    between atoms: C16_21  and  O1_22 
ROOT
HETATM    1  N1  UNL     1      23.061   2.582  51.984  1.00  0.00    -0.318 N 
ENDROOT
BRANCH   1   2
HETATM    2  C2  UNL     1      23.538   1.781  53.067  1.00  0.00     0.121 C 
HETATM    3  C1  UNL     1      22.604   0.631  53.298  1.00  0.00     0.038 C 
BRANCH   2   4
HETATM    4  C3  UNL     1      24.954   1.434  53.056  1.00  0.00    -0.035 A 
HETATM    5  C4  UNL     1      25.453   0.382  52.310  1.00  0.00     0.011 A 
HETATM    6  C5  UNL     1      26.816   0.072  52.318  1.00  0.00     0.024 A 
HETATM    7  C6  UNL     1      27.652   0.842  53.089  1.00  0.00     0.034 A 
HETATM    8 CL1  UNL     1      29.375   0.528  53.163  1.00  0.00    -0.084 Cl
HETATM    9  C7  UNL     1      27.144   1.900  53.838  1.00  0.00     0.024 A 
HETATM   10  C8  UNL     1      25.786   2.213  53.833  1.00  0.00     0.011 A 
ENDBRANCH   2   4
ENDBRANCH   1   2
BRANCH   1  11
HETATM   11  C9  UNL     1      21.957   2.324  51.152  1.00  0.00     0.055 C 
HETATM   12  C10 UNL     1      20.774   2.895  51.326  1.00  0.00     0.153 C 
HETATM   13  F1  UNL     1      20.458   3.784  52.300  1.00  0.00    -0.206 F 
HETATM   14  C11 UNL     1      19.544   2.714  50.531  1.00  0.00     0.304 C 
HETATM   15  C12 UNL     1      19.665   1.630  49.534  1.00  0.00     0.011 C 
HETATM   16  C13 UNL     1      20.853   1.062  49.349  1.00  0.00    -0.022 C 
HETATM   17  C14 UNL     1      22.143   1.363  50.027  1.00  0.00     0.087 C 
BRANCH  14  18
HETATM   18  N2  UNL     1      18.391   2.359  51.367  1.00  0.00     0.093 N 
HETATM   19  H10 UNL     1      17.671   3.118  51.324  1.00  0.00     0.314 HD
HETATM   20  H11 UNL     1      18.789   2.238  52.341  1.00  0.00     0.314 HD
ENDBRANCH  14  18
ENDBRANCH   1  11
BRANCH   1  21
HETATM   21  C15 UNL     1      23.699   3.849  51.578  1.00  0.00     0.176 A 
HETATM   22  N3  UNL     1      23.752   5.021  51.941  1.00  0.00    -0.200 NA
HETATM   23  C16 UNL     1      24.485   5.908  51.262  1.00  0.00     0.171 A 
HETATM   24  C17 UNL     1      25.231   5.384  50.042  1.00  0.00     0.111 A 
HETATM   25  S1  UNL     1      24.670   3.579  50.144  1.00  0.00    -0.059 SA
BRANCH  23  26
HETATM   26  O1  UNL     1      24.359   7.160  51.902  1.00  0.00    -0.344 OA
HETATM   27  H16 UNL     1      24.995   7.922  51.765  1.00  0.00     0.219 HD
ENDBRANCH  23  26
ENDBRANCH   1  21
TORSDOF 6
ENDMDL
