MODEL 1
REMARK VINA RESULT:      -7.0      0.000      0.000
REMARK  5 active torsions:
REMARK  status: ('A' for Active; 'I' for Inactive)
REMARK    1  A    between atoms: N1_2  and  C2_3 
REMARK    2  A    between atoms: C2_3  and  N3_15 
REMARK    3  A    between atoms: C5_6  and  O1_7 
REMARK    4  A    between atoms: C7_9  and  O2_10 
REMARK    5  A    between atoms: N3_15  and  C12_17 
ROOT
HETATM    1  C2  UNL     1      23.477   1.429  51.610  1.00  0.00     0.110 C 
HETATM    2  C3  UNL     1      24.482   0.972  52.323  1.00  0.00     0.038 A 
HETATM    3  C4  UNL     1      24.114   0.076  53.409  1.00  0.00     0.057 A 
HETATM    4  C5  UNL     1      25.139  -0.380  54.124  1.00  0.00     0.102 A 
HETATM    5  C7  UNL     1      26.528  -0.021  53.857  1.00  0.00     0.103 A 
HETATM    6  C9  UNL     1      26.899   0.801  52.865  1.00  0.00     0.071 A 
HETATM    7  C10 UNL     1      25.852   1.356  52.021  1.00  0.00     0.065 A 
HETATM    8  N2  UNL     1      26.175   2.147  51.059  1.00  0.00    -0.299 NA
HETATM    9  H11 UNL     1      25.488   2.584  50.410  1.00  0.00     0.187 HD
ENDROOT
BRANCH   1  10
HETATM   10  N1  UNL     1      22.124   1.113  51.830  1.00  0.00    -0.383 NA
HETATM   11  C1  UNL     1      21.369   1.623  52.729  1.00  0.00     0.317 C 
ENDBRANCH   1  10
BRANCH   1  12
HETATM   12  N3  UNL     1      23.098   2.247  50.528  1.00  0.00    -0.338 N 
HETATM   13  C11 UNL     1      22.335   1.684  49.402  1.00  0.00     0.158 C 
BRANCH  12  14
HETATM   14  C12 UNL     1      23.435   3.632  50.494  1.00  0.00     0.035 A 
HETATM   15  C13 UNL     1      23.402   4.437  51.613  1.00  0.00     0.031 A 
HETATM   16  C14 UNL     1      23.720   5.781  51.620  1.00  0.00     0.026 A 
HETATM   17  C15 UNL     1      24.101   6.366  50.419  1.00  0.00     0.034 A 
HETATM   18 CL1  UNL     1      24.507   8.069  50.410  1.00  0.00    -0.084 Cl
HETATM   19  C16 UNL     1      24.140   5.576  49.288  1.00  0.00     0.026 A 
HETATM   20  C17 UNL     1      23.816   4.236  49.314  1.00  0.00     0.031 A 
ENDBRANCH  12  14
ENDBRANCH   1  12
BRANCH   4  21
HETATM   21  O1  UNL     1      24.841  -1.252  55.188  1.00  0.00    -0.353 OA
HETATM   22  C6  UNL     1      23.449  -1.366  55.498  1.00  0.00     0.210 C 
ENDBRANCH   4  21
BRANCH   5  23
HETATM   23  O2  UNL     1      27.592  -0.502  54.608  1.00  0.00    -0.353 OA
HETATM   24  C8  UNL     1      28.886   0.011  54.621  1.00  0.00     0.210 C 
ENDBRANCH   5  23
TORSDOF 5
ENDMDL
MODEL 2
REMARK VINA RESULT:      -6.9      2.470      3.002
REMARK  5 active torsions:
REMARK  status: ('A' for Active; 'I' for Inactive)
REMARK    1  A    between atoms: N1_2  and  C2_3 
REMARK    2  A    between atoms: C2_3  and  N3_15 
REMARK    3  A    between atoms: C5_6  and  O1_7 
REMARK    4  A    between atoms: C7_9  and  O2_10 
REMARK    5  A    between atoms: N3_15  and  C12_17 
ROOT
HETATM    1  C2  UNL     1      22.841   1.436  52.169  1.00  0.00     0.110 C 
HETATM    2  C3  UNL     1      24.008   1.376  52.769  1.00  0.00     0.038 A 
HETATM    3  C4  UNL     1      24.508   0.032  53.021  1.00  0.00     0.057 A 
HETATM    4  C5  UNL     1      25.691  -0.015  53.628  1.00  0.00     0.102 A 
HETATM    5  C7  UNL     1      26.442   1.174  54.019  1.00  0.00     0.103 A 
HETATM    6  C9  UNL     1      26.009   2.424  53.801  1.00  0.00     0.071 A 
HETATM    7  C10 UNL     1      24.723   2.587  53.141  1.00  0.00     0.065 A 
HETATM    8  N2  UNL     1      24.280   3.774  52.914  1.00  0.00    -0.299 NA
HETATM    9  H11 UNL     1      23.373   3.977  52.447  1.00  0.00     0.187 HD
ENDROOT
BRANCH   1  10
HETATM   10  N1  UNL     1      22.080   0.319  51.776  1.00  0.00    -0.383 NA
HETATM   11  C1  UNL     1      21.300  -0.362  52.527  1.00  0.00     0.317 C 
ENDBRANCH   1  10
BRANCH   1  12
HETATM   12  N3  UNL     1      21.838   2.283  51.660  1.00  0.00    -0.338 N 
HETATM   13  C11 UNL     1      20.824   2.858  52.558  1.00  0.00     0.158 C 
BRANCH  12  14
HETATM   14  C12 UNL     1      21.780   2.609  50.273  1.00  0.00     0.035 A 
HETATM   15  C13 UNL     1      22.908   2.815  49.506  1.00  0.00     0.031 A 
HETATM   16  C14 UNL     1      22.892   3.133  48.162  1.00  0.00     0.026 A 
HETATM   17  C15 UNL     1      21.658   3.254  47.535  1.00  0.00     0.034 A 
HETATM   18 CL1  UNL     1      21.620   3.657  45.832  1.00  0.00    -0.084 Cl
HETATM   19  C16 UNL     1      20.518   3.052  48.287  1.00  0.00     0.026 A 
HETATM   20  C17 UNL     1      20.567   2.735  49.629  1.00  0.00     0.031 A 
ENDBRANCH  12  14
ENDBRANCH   1  12
BRANCH   4  21
HETATM   21  O1  UNL     1      26.223  -1.290  53.897  1.00  0.00    -0.353 OA
HETATM   22  C6  UNL     1      26.954  -1.873  52.815  1.00  0.00     0.210 C 
ENDBRANCH   4  21
BRANCH   5  23
HETATM   23  O2  UNL     1      27.676   1.115  54.653  1.00  0.00    -0.353 OA
HETATM   24  C8  UNL     1      28.919   1.083  54.028  1.00  0.00     0.210 C 
ENDBRANCH   5  23
TORSDOF 5
ENDMDL
MODEL 3
REMARK VINA RESULT:      -6.7      2.729      4.180
REMARK  5 active torsions:
REMARK  status: ('A' for Active; 'I' for Inactive)
REMARK    1  A    between atoms: N1_2  and  C2_3 
REMARK    2  A    between atoms: C2_3  and  N3_15 
REMARK    3  A    between atoms: C5_6  and  O1_7 
REMARK    4  A    between atoms: C7_9  and  O2_10 
REMARK    5  A    between atoms: N3_15  and  C12_17 
ROOT
HETATM    1  C2  UNL     1      23.218   3.943  50.742  1.00  0.00     0.110 C 
HETATM    2  C3  UNL     1      23.125   2.812  51.406  1.00  0.00     0.038 A 
HETATM    3  C4  UNL     1      22.073   1.913  50.954  1.00  0.00     0.057 A 
HETATM    4  C5  UNL     1      21.988   0.773  51.634  1.00  0.00     0.102 A 
HETATM    5  C7  UNL     1      22.870   0.433  52.746  1.00  0.00     0.103 A 
HETATM    6  C9  UNL     1      23.847   1.239  53.185  1.00  0.00     0.071 A 
HETATM    7  C10 UNL     1      24.025   2.514  52.509  1.00  0.00     0.065 A 
HETATM    8  N2  UNL     1      24.956   3.309  52.904  1.00  0.00    -0.299 NA
HETATM    9  H11 UNL     1      25.150   4.236  52.474  1.00  0.00     0.187 HD
ENDROOT
BRANCH   1  10
HETATM   10  N1  UNL     1      22.392   4.315  49.666  1.00  0.00    -0.383 NA
HETATM   11  C1  UNL     1      22.517   3.927  48.453  1.00  0.00     0.317 C 
ENDBRANCH   1  10
BRANCH   1  12
HETATM   12  N3  UNL     1      23.908   5.164  50.619  1.00  0.00    -0.338 N 
HETATM   13  C11 UNL     1      23.337   6.400  51.176  1.00  0.00     0.158 C 
BRANCH  12  14
HETATM   14  C12 UNL     1      25.172   5.236  49.961  1.00  0.00     0.035 A 
HETATM   15  C13 UNL     1      25.957   4.127  49.728  1.00  0.00     0.031 A 
HETATM   16  C14 UNL     1      27.184   4.156  49.095  1.00  0.00     0.026 A 
HETATM   17  C15 UNL     1      27.665   5.386  48.662  1.00  0.00     0.034 A 
HETATM   18 CL1  UNL     1      29.220   5.442  47.860  1.00  0.00    -0.084 Cl
HETATM   19  C16 UNL     1      26.893   6.508  48.888  1.00  0.00     0.026 A 
HETATM   20  C17 UNL     1      25.670   6.445  49.523  1.00  0.00     0.031 A 
ENDBRANCH  12  14
ENDBRANCH   1  12
BRANCH   4  21
HETATM   21  O1  UNL     1      20.988  -0.135  51.240  1.00  0.00    -0.353 OA
HETATM   22  C6  UNL     1      19.660   0.397  51.246  1.00  0.00     0.210 C 
ENDBRANCH   4  21
BRANCH   5  23
HETATM   23  O2  UNL     1      22.774  -0.760  53.450  1.00  0.00    -0.353 OA
HETATM   24  C8  UNL     1      22.012  -0.980  54.594  1.00  0.00     0.210 C 
ENDBRANCH   5  23
TORSDOF 5
ENDMDL
MODEL 4
REMARK VINA RESULT:      -6.6      4.223      6.785
REMARK  5 active torsions:
REMARK  status: ('A' for Active; 'I' for Inactive)
REMARK    1  A    between atoms: N1_2  and  C2_3 
REMARK    2  A    between atoms: C2_3  and  N3_15 
REMARK    3  A    between atoms: C5_6  and  O1_7 
REMARK    4  A    between atoms: C7_9  and  O2_10 
REMARK    5  A    between atoms: N3_15  and  C12_17 
ROOT
HETATM    1  C2  UNL     1      24.718   3.611  51.075  1.00  0.00     0.110 C 
HETATM    2  C3  UNL     1      25.363   4.470  50.318  1.00  0.00     0.038 A 
HETATM    3  C4  UNL     1      24.852   5.832  50.352  1.00  0.00     0.057 A 
HETATM    4  C5  UNL     1      25.513   6.692  49.581  1.00  0.00     0.102 A 
HETATM    5  C7  UNL     1      26.660   6.318  48.760  1.00  0.00     0.103 A 
HETATM    6  C9  UNL     1      27.154   5.072  48.708  1.00  0.00     0.071 A 
HETATM    7  C10 UNL     1      26.503   4.053  49.515  1.00  0.00     0.065 A 
HETATM    8  N2  UNL     1      26.954   2.848  49.489  1.00  0.00    -0.299 NA
HETATM    9  H11 UNL     1      26.547   2.063  50.037  1.00  0.00     0.187 HD
ENDROOT
BRANCH   1  10
HETATM   10  N1  UNL     1      23.608   3.924  51.881  1.00  0.00    -0.383 NA
HETATM   11  C1  UNL     1      23.635   4.593  52.971  1.00  0.00     0.317 C 
ENDBRANCH   1  10
BRANCH   1  12
HETATM   12  N3  UNL     1      24.639   2.273  51.506  1.00  0.00    -0.338 N 
HETATM   13  C11 UNL     1      23.412   1.491  51.283  1.00  0.00     0.158 C 
BRANCH  12  14
HETATM   14  C12 UNL     1      25.737   1.641  52.161  1.00  0.00     0.035 A 
HETATM   15  C13 UNL     1      26.056   0.313  51.971  1.00  0.00     0.031 A 
HETATM   16  C14 UNL     1      27.109  -0.334  52.587  1.00  0.00     0.026 A 
HETATM   17  C15 UNL     1      27.905   0.399  53.458  1.00  0.00     0.034 A 
HETATM   18 CL1  UNL     1      29.244  -0.406  54.248  1.00  0.00    -0.084 Cl
HETATM   19  C16 UNL     1      27.601   1.730  53.660  1.00  0.00     0.026 A 
HETATM   20  C17 UNL     1      26.541   2.349  53.029  1.00  0.00     0.031 A 
ENDBRANCH  12  14
ENDBRANCH   1  12
BRANCH   4  21
HETATM   21  O1  UNL     1      25.062   8.025  49.575  1.00  0.00    -0.353 OA
HETATM   22  C6  UNL     1      23.677   8.190  49.891  1.00  0.00     0.210 C 
ENDBRANCH   4  21
BRANCH   5  23
HETATM   23  O2  UNL     1      27.344   7.222  47.959  1.00  0.00    -0.353 OA
HETATM   24  C8  UNL     1      28.666   7.109  47.536  1.00  0.00     0.210 C 
ENDBRANCH   5  23
TORSDOF 5
ENDMDL
MODEL 5
REMARK VINA RESULT:      -6.5      2.300      4.106
REMARK  5 active torsions:
REMARK  status: ('A' for Active; 'I' for Inactive)
REMARK    1  A    between atoms: N1_2  and  C2_3 
REMARK    2  A    between atoms: C2_3  and  N3_15 
REMARK    3  A    between atoms: C5_6  and  O1_7 
REMARK    4  A    between atoms: C7_9  and  O2_10 
REMARK    5  A    between atoms: N3_15  and  C12_17 
ROOT
HETATM    1  C2  UNL     1      24.272   3.114  51.249  1.00  0.00     0.110 C 
HETATM    2  C3  UNL     1      23.910   2.083  51.978  1.00  0.00     0.038 A 
HETATM    3  C4  UNL     1      24.997   1.222  52.419  1.00  0.00     0.057 A 
HETATM    4  C5  UNL     1      24.617   0.182  53.156  1.00  0.00     0.102 A 
HETATM    5  C7  UNL     1      23.226  -0.091  53.505  1.00  0.00     0.103 A 
HETATM    6  C9  UNL     1      22.203   0.683  53.115  1.00  0.00     0.071 A 
HETATM    7  C10 UNL     1      22.511   1.850  52.303  1.00  0.00     0.065 A 
HETATM    8  N2  UNL     1      21.552   2.615  51.915  1.00  0.00    -0.299 NA
HETATM    9  H11 UNL     1      21.687   3.468  51.334  1.00  0.00     0.187 HD
ENDROOT
BRANCH   1  10
HETATM   10  N1  UNL     1      25.598   3.416  50.886  1.00  0.00    -0.383 NA
HETATM   11  C1  UNL     1      26.241   2.915  49.900  1.00  0.00     0.317 C 
ENDBRANCH   1  10
BRANCH   1  12
HETATM   12  N3  UNL     1      23.833   4.251  50.544  1.00  0.00    -0.338 N 
HETATM   13  C11 UNL     1      23.973   5.592  51.134  1.00  0.00     0.158 C 
BRANCH  12  14
HETATM   14  C12 UNL     1      23.248   4.137  49.248  1.00  0.00     0.035 A 
HETATM   15  C13 UNL     1      22.874   2.928  48.700  1.00  0.00     0.031 A 
HETATM   16  C14 UNL     1      22.306   2.778  47.451  1.00  0.00     0.026 A 
HETATM   17  C15 UNL     1      22.095   3.920  46.689  1.00  0.00     0.034 A 
HETATM   18 CL1  UNL     1      21.376   3.747  45.102  1.00  0.00    -0.084 Cl
HETATM   19  C16 UNL     1      22.463   5.140  47.221  1.00  0.00     0.026 A 
HETATM   20  C17 UNL     1      23.028   5.257  48.474  1.00  0.00     0.031 A 
ENDBRANCH  12  14
ENDBRANCH   1  12
BRANCH   4  21
HETATM   21  O1  UNL     1      25.627  -0.686  53.610  1.00  0.00    -0.353 OA
HETATM   22  C6  UNL     1      26.792  -0.735  52.780  1.00  0.00     0.210 C 
ENDBRANCH   4  21
BRANCH   5  23
HETATM   23  O2  UNL     1      22.839  -1.179  54.275  1.00  0.00    -0.353 OA
HETATM   24  C8  UNL     1      21.533  -1.611  54.488  1.00  0.00     0.210 C 
ENDBRANCH   5  23
TORSDOF 5
ENDMDL
MODEL 6
REMARK VINA RESULT:      -6.5      2.127      2.732
REMARK  5 active torsions:
REMARK  status: ('A' for Active; 'I' for Inactive)
REMARK    1  A    between atoms: N1_2  and  C2_3 
REMARK    2  A    between atoms: C2_3  and  N3_15 
REMARK    3  A    between atoms: C5_6  and  O1_7 
REMARK    4  A    between atoms: C7_9  and  O2_10 
REMARK    5  A    between atoms: N3_15  and  C12_17 
ROOT
HETATM    1  C2  UNL     1      23.570   2.946  51.742  1.00  0.00     0.110 C 
HETATM    2  C3  UNL     1      24.436   2.007  52.048  1.00  0.00     0.038 A 
HETATM    3  C4  UNL     1      23.976   1.034  53.029  1.00  0.00     0.057 A 
HETATM    4  C5  UNL     1      24.861   0.089  53.331  1.00  0.00     0.102 A 
HETATM    5  C7  UNL     1      26.192   0.016  52.737  1.00  0.00     0.103 A 
HETATM    6  C9  UNL     1      26.645   0.895  51.832  1.00  0.00     0.071 A 
HETATM    7  C10 UNL     1      25.753   1.972  51.432  1.00  0.00     0.065 A 
HETATM    8  N2  UNL     1      26.156   2.831  50.563  1.00  0.00    -0.299 NA
HETATM    9  H11 UNL     1      25.580   3.628  50.223  1.00  0.00     0.187 HD
ENDROOT
BRANCH   1  10
HETATM   10  N1  UNL     1      22.277   3.058  52.288  1.00  0.00    -0.383 NA
HETATM   11  C1  UNL     1      21.292   2.275  52.056  1.00  0.00     0.317 C 
ENDBRANCH   1  10
BRANCH   1  12
HETATM   12  N3  UNL     1      23.330   4.098  50.968  1.00  0.00    -0.338 N 
HETATM   13  C11 UNL     1      23.508   5.437  51.552  1.00  0.00     0.158 C 
BRANCH  12  14
HETATM   14  C12 UNL     1      22.915   4.000  49.607  1.00  0.00     0.035 A 
HETATM   15  C13 UNL     1      22.935   2.815  48.903  1.00  0.00     0.031 A 
HETATM   16  C14 UNL     1      22.543   2.681  47.586  1.00  0.00     0.026 A 
HETATM   17  C15 UNL     1      22.096   3.816  46.920  1.00  0.00     0.034 A 
HETATM   18 CL1  UNL     1      21.596   3.664  45.249  1.00  0.00    -0.084 Cl
HETATM   19  C16 UNL     1      22.069   5.012  47.609  1.00  0.00     0.026 A 
HETATM   20  C17 UNL     1      22.468   5.113  48.926  1.00  0.00     0.031 A 
ENDBRANCH  12  14
ENDBRANCH   1  12
BRANCH   4  21
HETATM   21  O1  UNL     1      24.469  -0.879  54.274  1.00  0.00    -0.353 OA
HETATM   22  C6  UNL     1      23.061  -0.940  54.519  1.00  0.00     0.210 C 
ENDBRANCH   4  21
BRANCH   5  23
HETATM   23  O2  UNL     1      27.110  -0.975  53.058  1.00  0.00    -0.353 OA
HETATM   24  C8  UNL     1      28.435  -0.776  53.436  1.00  0.00     0.210 C 
ENDBRANCH   5  23
TORSDOF 5
ENDMDL
MODEL 7
REMARK VINA RESULT:      -6.3      7.448      9.623
REMARK  5 active torsions:
REMARK  status: ('A' for Active; 'I' for Inactive)
REMARK    1  A    between atoms: N1_2  and  C2_3 
REMARK    2  A    between atoms: C2_3  and  N3_15 
REMARK    3  A    between atoms: C5_6  and  O1_7 
REMARK    4  A    between atoms: C7_9  and  O2_10 
REMARK    5  A    between atoms: N3_15  and  C12_17 
ROOT
HETATM    1  C2  UNL     1      30.005   7.520  47.650  1.00  0.00     0.110 C 
HETATM    2  C3  UNL     1      31.082   6.783  47.501  1.00  0.00     0.038 A 
HETATM    3  C4  UNL     1      31.758   6.923  46.219  1.00  0.00     0.057 A 
HETATM    4  C5  UNL     1      32.846   6.171  46.081  1.00  0.00     0.102 A 
HETATM    5  C7  UNL     1      33.339   5.272  47.119  1.00  0.00     0.103 A 
HETATM    6  C9  UNL     1      32.740   5.121  48.309  1.00  0.00     0.071 A 
HETATM    7  C10 UNL     1      31.538   5.900  48.563  1.00  0.00     0.065 A 
HETATM    8  N2  UNL     1      30.941   5.780  49.696  1.00  0.00    -0.299 NA
HETATM    9  H11 UNL     1      30.079   6.301  49.957  1.00  0.00     0.187 HD
ENDROOT
BRANCH   1  10
HETATM   10  N1  UNL     1      29.491   8.400  46.678  1.00  0.00    -0.383 NA
HETATM   11  C1  UNL     1      28.745   8.076  45.690  1.00  0.00     0.317 C 
ENDBRANCH   1  10
BRANCH   1  12
HETATM   12  N3  UNL     1      28.950   7.876  48.512  1.00  0.00    -0.338 N 
HETATM   13  C11 UNL     1      28.995   9.144  49.258  1.00  0.00     0.158 C 
BRANCH  12  14
HETATM   14  C12 UNL     1      27.817   7.027  48.683  1.00  0.00     0.035 A 
HETATM   15  C13 UNL     1      27.891   5.654  48.588  1.00  0.00     0.031 A 
HETATM   16  C14 UNL     1      26.817   4.800  48.747  1.00  0.00     0.026 A 
HETATM   17  C15 UNL     1      25.575   5.359  49.021  1.00  0.00     0.034 A 
HETATM   18 CL1  UNL     1      24.203   4.290  49.224  1.00  0.00    -0.084 Cl
HETATM   19  C16 UNL     1      25.482   6.732  49.120  1.00  0.00     0.026 A 
HETATM   20  C17 UNL     1      26.574   7.559  48.957  1.00  0.00     0.031 A 
ENDBRANCH  12  14
ENDBRANCH   1  12
BRANCH   4  21
HETATM   21  O1  UNL     1      33.540   6.266  44.860  1.00  0.00    -0.353 OA
HETATM   22  C6  UNL     1      33.124   5.332  43.860  1.00  0.00     0.210 C 
ENDBRANCH   4  21
BRANCH   5  23
HETATM   23  O2  UNL     1      34.477   4.491  46.965  1.00  0.00    -0.353 OA
HETATM   24  C8  UNL     1      34.844   3.409  47.761  1.00  0.00     0.210 C 
ENDBRANCH   5  23
TORSDOF 5
ENDMDL
MODEL 8
REMARK VINA RESULT:      -6.2      4.169      7.059
REMARK  5 active torsions:
REMARK  status: ('A' for Active; 'I' for Inactive)
REMARK    1  A    between atoms: N1_2  and  C2_3 
REMARK    2  A    between atoms: C2_3  and  N3_15 
REMARK    3  A    between atoms: C5_6  and  O1_7 
REMARK    4  A    between atoms: C7_9  and  O2_10 
REMARK    5  A    between atoms: N3_15  and  C12_17 
ROOT
HETATM    1  C2  UNL     1      23.403   3.567  50.553  1.00  0.00     0.110 C 
HETATM    2  C3  UNL     1      23.653   4.831  50.294  1.00  0.00     0.038 A 
HETATM    3  C4  UNL     1      23.666   5.184  48.882  1.00  0.00     0.057 A 
HETATM    4  C5  UNL     1      23.921   6.465  48.633  1.00  0.00     0.102 A 
HETATM    5  C7  UNL     1      24.170   7.453  49.678  1.00  0.00     0.103 A 
HETATM    6  C9  UNL     1      24.164   7.159  50.986  1.00  0.00     0.071 A 
HETATM    7  C10 UNL     1      23.895   5.782  51.368  1.00  0.00     0.065 A 
HETATM    8  N2  UNL     1      23.880   5.467  52.615  1.00  0.00    -0.299 NA
HETATM    9  H11 UNL     1      23.694   4.508  52.971  1.00  0.00     0.187 HD
ENDROOT
BRANCH   1  10
HETATM   10  N1  UNL     1      23.158   2.580  49.580  1.00  0.00    -0.383 NA
HETATM   11  C1  UNL     1      22.040   2.358  48.999  1.00  0.00     0.317 C 
ENDBRANCH   1  10
BRANCH   1  12
HETATM   12  N3  UNL     1      23.247   2.596  51.560  1.00  0.00    -0.338 N 
HETATM   13  C11 UNL     1      21.964   2.458  52.268  1.00  0.00     0.158 C 
BRANCH  12  14
HETATM   14  C12 UNL     1      24.317   1.724  51.919  1.00  0.00     0.035 A 
HETATM   15  C13 UNL     1      24.130   0.582  52.669  1.00  0.00     0.031 A 
HETATM   16  C14 UNL     1      25.139  -0.286  53.036  1.00  0.00     0.026 A 
HETATM   17  C15 UNL     1      26.434   0.007  52.624  1.00  0.00     0.034 A 
HETATM   18 CL1  UNL     1      27.725  -1.083  53.082  1.00  0.00    -0.084 Cl
HETATM   19  C16 UNL     1      26.639   1.147  51.873  1.00  0.00     0.026 A 
HETATM   20  C17 UNL     1      25.610   1.994  51.522  1.00  0.00     0.031 A 
ENDBRANCH  12  14
ENDBRANCH   1  12
BRANCH   4  21
HETATM   21  O1  UNL     1      23.946   6.864  47.283  1.00  0.00    -0.353 OA
HETATM   22  C6  UNL     1      22.658   7.076  46.698  1.00  0.00     0.210 C 
ENDBRANCH   4  21
BRANCH   5  23
HETATM   23  O2  UNL     1      24.435   8.789  49.408  1.00  0.00    -0.353 OA
HETATM   24  C8  UNL     1      25.694   9.380  49.344  1.00  0.00     0.210 C 
ENDBRANCH   5  23
TORSDOF 5
ENDMDL
MODEL 9
REMARK VINA RESULT:      -6.2      1.245      1.363
REMARK  5 active torsions:
REMARK  status: ('A' for Active; 'I' for Inactive)
REMARK    1  A    between atoms: N1_2  and  C2_3 
REMARK    2  A    between atoms: C2_3  and  N3_15 
REMARK    3  A    between atoms: C5_6  and  O1_7 
REMARK    4  A    between atoms: C7_9  and  O2_10 
REMARK    5  A    between atoms: N3_15  and  C12_17 
ROOT
HETATM    1  C2  UNL     1      22.588   1.561  50.795  1.00  0.00     0.110 C 
HETATM    2  C3  UNL     1      23.420   1.144  51.723  1.00  0.00     0.038 A 
HETATM    3  C4  UNL     1      22.850   0.231  52.702  1.00  0.00     0.057 A 
HETATM    4  C5  UNL     1      23.701  -0.183  53.636  1.00  0.00     0.102 A 
HETATM    5  C7  UNL     1      25.099   0.234  53.692  1.00  0.00     0.103 A 
HETATM    6  C9  UNL     1      25.653   1.074  52.805  1.00  0.00     0.071 A 
HETATM    7  C10 UNL     1      24.806   1.587  51.740  1.00  0.00     0.065 A 
HETATM    8  N2  UNL     1      25.308   2.392  50.871  1.00  0.00    -0.299 NA
HETATM    9  H11 UNL     1      24.771   2.801  50.080  1.00  0.00     0.187 HD
ENDROOT
BRANCH   1  10
HETATM   10  N1  UNL     1      21.234   1.187  50.701  1.00  0.00    -0.383 NA
HETATM   11  C1  UNL     1      20.280   1.628  51.432  1.00  0.00     0.317 C 
ENDBRANCH   1  10
BRANCH   1  12
HETATM   12  N3  UNL     1      22.434   2.364  49.649  1.00  0.00    -0.338 N 
HETATM   13  C11 UNL     1      22.043   1.760  48.364  1.00  0.00     0.158 C 
BRANCH  12  14
HETATM   14  C12 UNL     1      22.645   3.774  49.699  1.00  0.00     0.035 A 
HETATM   15  C13 UNL     1      22.345   4.535  50.810  1.00  0.00     0.031 A 
HETATM   16  C14 UNL     1      22.535   5.900  50.897  1.00  0.00     0.026 A 
HETATM   17  C15 UNL     1      23.064   6.556  49.793  1.00  0.00     0.034 A 
HETATM   18 CL1  UNL     1      23.310   8.287  49.886  1.00  0.00    -0.084 Cl
HETATM   19  C16 UNL     1      23.369   5.811  48.672  1.00  0.00     0.026 A 
HETATM   20  C17 UNL     1      23.169   4.447  48.616  1.00  0.00     0.031 A 
ENDBRANCH  12  14
ENDBRANCH   1  12
BRANCH   4  21
HETATM   21  O1  UNL     1      23.204  -1.069  54.609  1.00  0.00    -0.353 OA
HETATM   22  C6  UNL     1      21.777  -1.148  54.675  1.00  0.00     0.210 C 
ENDBRANCH   4  21
BRANCH   5  23
HETATM   23  O2  UNL     1      25.981  -0.203  54.671  1.00  0.00    -0.353 OA
HETATM   24  C8  UNL     1      27.294   0.224  54.843  1.00  0.00     0.210 C 
ENDBRANCH   5  23
TORSDOF 5
ENDMDL
