MODEL 1
REMARK VINA RESULT:      -9.5      0.000      0.000
REMARK  6 active torsions:
REMARK  status: ('A' for Active; 'I' for Inactive)
REMARK    1  A    between atoms: O1_2  and  C2_3 
REMARK    2  A    between atoms: C7_8  and  N1_9 
REMARK    3  A    between atoms: N1_9  and  C8_10 
REMARK    4  A    between atoms: C9_11  and  C10_12 
REMARK       I    between atoms: C10_12  and  N2_14 
REMARK    5  A    between atoms: N2_14  and  C11_15 
REMARK    6  A    between atoms: C14_18  and  C15_19 
ROOT
HETATM    1  C8  UNL     1      24.591   0.125  53.961  1.00  0.00     0.166 C 
HETATM    2  C9  UNL     1      23.780   0.772  53.108  1.00  0.00     0.150 C 
HETATM    3  C23 UNL     1      22.448   0.187  53.050  1.00  0.00     0.263 C 
HETATM    4  O3  UNL     1      21.630   0.738  52.273  1.00  0.00    -0.267 OA
HETATM    5  N4  UNL     1      22.024  -0.927  53.787  1.00  0.00    -0.335 N 
HETATM    6  C24 UNL     1      22.827  -1.248  54.970  1.00  0.00     0.303 C 
HETATM    7  O4  UNL     1      24.186  -0.990  54.704  1.00  0.00    -0.315 OA
HETATM    8  H26 UNL     1      21.190  -1.441  53.459  1.00  0.00     0.164 HD
ENDROOT
BRANCH   2   9
HETATM    9  C10 UNL     1      24.321   1.912  52.398  1.00  0.00     0.266 C 
HETATM   10  O2  UNL     1      24.754   2.832  53.135  1.00  0.00    -0.267 OA
HETATM   11  N2  UNL     1      24.419   2.110  51.019  1.00  0.00    -0.323 N 
HETATM   12  H9  UNL     1      24.047   1.319  50.450  1.00  0.00     0.169 HD
BRANCH  11  13
HETATM   13  C11 UNL     1      24.934   3.194  50.269  1.00  0.00     0.035 A 
HETATM   14  C12 UNL     1      24.109   4.160  49.737  1.00  0.00     0.030 A 
HETATM   15  C13 UNL     1      24.535   5.222  49.011  1.00  0.00     0.010 A 
HETATM   16  C14 UNL     1      25.857   5.400  48.756  1.00  0.00    -0.054 A 
HETATM   17  C21 UNL     1      26.753   4.461  49.262  1.00  0.00     0.010 A 
HETATM   18  C22 UNL     1      26.261   3.403  49.993  1.00  0.00     0.030 A 
BRANCH  16  19
HETATM   19  C15 UNL     1      26.275   6.589  47.941  1.00  0.00     0.022 C 
HETATM   20  C16 UNL     1      25.412   7.788  48.150  1.00  0.00     0.039 C 
HETATM   21  C17 UNL     1      25.927   8.613  49.272  1.00  0.00     0.272 C 
HETATM   22  N3  UNL     1      27.301   8.941  49.127  1.00  0.00     0.084 N 
HETATM   23  C18 UNL     1      27.715   9.576  50.384  1.00  0.00     0.309 C 
HETATM   24  C19 UNL     1      28.217   7.896  48.871  1.00  0.00     0.272 C 
HETATM   25  C20 UNL     1      27.738   6.813  47.961  1.00  0.00     0.039 C 
ENDBRANCH  16  19
ENDBRANCH  11  13
ENDBRANCH   2   9
BRANCH   1  26
HETATM   26  N1  UNL     1      25.967   0.475  54.228  1.00  0.00    -0.334 N 
HETATM   27  H8  UNL     1      26.609   1.175  54.645  1.00  0.00     0.168 HD
BRANCH  26  28
HETATM   28  C7  UNL     1      27.013  -0.421  53.799  1.00  0.00     0.067 A 
HETATM   29  C2  UNL     1      28.332  -0.128  54.160  1.00  0.00     0.094 A 
HETATM   30  C3  UNL     1      29.360  -0.972  53.762  1.00  0.00     0.039 A 
HETATM   31  C4  UNL     1      29.084  -2.083  53.023  1.00  0.00     0.003 A 
HETATM   32  C5  UNL     1      27.794  -2.397  52.654  1.00  0.00     0.002 A 
HETATM   33  C6  UNL     1      26.770  -1.566  53.043  1.00  0.00     0.032 A 
BRANCH  29  34
HETATM   34  O1  UNL     1      28.551   1.008  54.907  1.00  0.00    -0.354 OA
HETATM   35  C1  UNL     1      29.444   2.040  54.524  1.00  0.00     0.210 C 
ENDBRANCH  29  34
ENDBRANCH  26  28
ENDBRANCH   1  26
TORSDOF 6
ENDMDL
MODEL 2
REMARK VINA RESULT:      -9.3      1.519      1.919
REMARK  6 active torsions:
REMARK  status: ('A' for Active; 'I' for Inactive)
REMARK    1  A    between atoms: O1_2  and  C2_3 
REMARK    2  A    between atoms: C7_8  and  N1_9 
REMARK    3  A    between atoms: N1_9  and  C8_10 
REMARK    4  A    between atoms: C9_11  and  C10_12 
REMARK       I    between atoms: C10_12  and  N2_14 
REMARK    5  A    between atoms: N2_14  and  C11_15 
REMARK    6  A    between atoms: C14_18  and  C15_19 
ROOT
HETATM    1  C8  UNL     1      24.693   0.887  52.975  1.00  0.00     0.166 C 
HETATM    2  C9  UNL     1      24.236   1.452  51.846  1.00  0.00     0.150 C 
HETATM    3  C23 UNL     1      22.854   1.094  51.561  1.00  0.00     0.263 C 
HETATM    4  O3  UNL     1      22.354   1.585  50.519  1.00  0.00    -0.267 OA
HETATM    5  N4  UNL     1      22.058   0.257  52.354  1.00  0.00    -0.335 N 
HETATM    6  C24 UNL     1      22.507   0.079  53.738  1.00  0.00     0.303 C 
HETATM    7  O4  UNL     1      23.914   0.046  53.779  1.00  0.00    -0.315 OA
HETATM    8  H26 UNL     1      21.223  -0.174  51.924  1.00  0.00     0.164 HD
ENDROOT
BRANCH   2   9
HETATM    9  C10 UNL     1      25.143   2.301  51.103  1.00  0.00     0.266 C 
HETATM   10  O2  UNL     1      26.283   1.808  50.910  1.00  0.00    -0.267 OA
HETATM   11  N2  UNL     1      24.912   3.577  50.586  1.00  0.00    -0.323 N 
HETATM   12  H9  UNL     1      23.953   3.942  50.771  1.00  0.00     0.169 HD
BRANCH  11  13
HETATM   13  C11 UNL     1      25.752   4.452  49.856  1.00  0.00     0.035 A 
HETATM   14  C12 UNL     1      25.421   5.775  49.661  1.00  0.00     0.030 A 
HETATM   15  C13 UNL     1      26.179   6.665  48.975  1.00  0.00     0.010 A 
HETATM   16  C14 UNL     1      27.356   6.285  48.416  1.00  0.00    -0.054 A 
HETATM   17  C21 UNL     1      27.757   4.960  48.571  1.00  0.00     0.010 A 
HETATM   18  C22 UNL     1      26.946   4.102  49.279  1.00  0.00     0.030 A 
BRANCH  16  19
HETATM   19  C15 UNL     1      28.153   7.309  47.661  1.00  0.00     0.022 C 
HETATM   20  C16 UNL     1      28.206   8.639  48.335  1.00  0.00     0.039 C 
HETATM   21  C17 UNL     1      29.359   8.706  49.268  1.00  0.00     0.272 C 
HETATM   22  N3  UNL     1      30.588   8.351  48.649  1.00  0.00     0.084 N 
HETATM   23  C18 UNL     1      31.588   8.270  49.720  1.00  0.00     0.309 C 
HETATM   24  C19 UNL     1      30.652   7.136  47.932  1.00  0.00     0.272 C 
HETATM   25  C20 UNL     1      29.434   6.774  47.146  1.00  0.00     0.039 C 
ENDBRANCH  16  19
ENDBRANCH  11  13
ENDBRANCH   2   9
BRANCH   1  26
HETATM   26  N1  UNL     1      26.024   1.058  53.511  1.00  0.00    -0.334 N 
HETATM   27  H8  UNL     1      26.672   1.696  54.009  1.00  0.00     0.168 HD
BRANCH  26  28
HETATM   28  C7  UNL     1      26.972  -0.021  53.385  1.00  0.00     0.067 A 
HETATM   29  C2  UNL     1      28.251   0.147  53.929  1.00  0.00     0.094 A 
HETATM   30  C3  UNL     1      29.185  -0.873  53.823  1.00  0.00     0.039 A 
HETATM   31  C4  UNL     1      28.859  -2.036  53.193  1.00  0.00     0.003 A 
HETATM   32  C5  UNL     1      27.608  -2.230  52.649  1.00  0.00     0.002 A 
HETATM   33  C6  UNL     1      26.676  -1.224  52.749  1.00  0.00     0.032 A 
BRANCH  29  34
HETATM   34  O1  UNL     1      28.524   1.344  54.553  1.00  0.00    -0.354 OA
HETATM   35  C1  UNL     1      29.264   2.393  53.952  1.00  0.00     0.210 C 
ENDBRANCH  29  34
ENDBRANCH  26  28
ENDBRANCH   1  26
TORSDOF 6
ENDMDL
MODEL 3
REMARK VINA RESULT:      -9.2      1.571      2.345
REMARK  6 active torsions:
REMARK  status: ('A' for Active; 'I' for Inactive)
REMARK    1  A    between atoms: O1_2  and  C2_3 
REMARK    2  A    between atoms: C7_8  and  N1_9 
REMARK    3  A    between atoms: N1_9  and  C8_10 
REMARK    4  A    between atoms: C9_11  and  C10_12 
REMARK       I    between atoms: C10_12  and  N2_14 
REMARK    5  A    between atoms: N2_14  and  C11_15 
REMARK    6  A    between atoms: C14_18  and  C15_19 
ROOT
HETATM    1  C8  UNL     1      24.766   0.391  52.492  1.00  0.00     0.166 C 
HETATM    2  C9  UNL     1      23.871   1.339  52.165  1.00  0.00     0.150 C 
HETATM    3  C23 UNL     1      22.606   1.179  52.866  1.00  0.00     0.263 C 
HETATM    4  O3  UNL     1      21.716   2.028  52.612  1.00  0.00    -0.267 OA
HETATM    5  N4  UNL     1      22.316   0.162  53.786  1.00  0.00    -0.335 N 
HETATM    6  C24 UNL     1      23.478  -0.510  54.374  1.00  0.00     0.303 C 
HETATM    7  O4  UNL     1      24.495  -0.633  53.407  1.00  0.00    -0.315 OA
HETATM    8  H26 UNL     1      21.325  -0.045  53.989  1.00  0.00     0.164 HD
ENDROOT
BRANCH   2   9
HETATM    9  C10 UNL     1      24.275   2.343  51.203  1.00  0.00     0.266 C 
HETATM   10  O2  UNL     1      23.676   2.283  50.100  1.00  0.00    -0.267 OA
HETATM   11  N2  UNL     1      25.232   3.349  51.347  1.00  0.00    -0.323 N 
HETATM   12  H9  UNL     1      25.701   3.357  52.279  1.00  0.00     0.169 HD
BRANCH  11  13
HETATM   13  C11 UNL     1      25.669   4.353  50.451  1.00  0.00     0.035 A 
HETATM   14  C12 UNL     1      26.792   4.185  49.671  1.00  0.00     0.030 A 
HETATM   15  C13 UNL     1      27.265   5.104  48.794  1.00  0.00     0.010 A 
HETATM   16  C14 UNL     1      26.630   6.293  48.628  1.00  0.00    -0.054 A 
HETATM   17  C21 UNL     1      25.486   6.534  49.384  1.00  0.00     0.010 A 
HETATM   18  C22 UNL     1      25.053   5.563  50.259  1.00  0.00     0.030 A 
BRANCH  16  19
HETATM   19  C15 UNL     1      27.199   7.277  47.648  1.00  0.00     0.022 C 
HETATM   20  C16 UNL     1      26.851   8.694  47.955  1.00  0.00     0.039 C 
HETATM   21  C17 UNL     1      27.863   9.297  48.859  1.00  0.00     0.272 C 
HETATM   22  N3  UNL     1      29.190   9.148  48.375  1.00  0.00     0.084 N 
HETATM   23  C18 UNL     1      30.082   9.605  49.448  1.00  0.00     0.309 C 
HETATM   24  C19 UNL     1      29.626   7.858  47.998  1.00  0.00     0.272 C 
HETATM   25  C20 UNL     1      28.614   6.999  47.311  1.00  0.00     0.039 C 
ENDBRANCH  16  19
ENDBRANCH  11  13
ENDBRANCH   2   9
BRANCH   1  26
HETATM   26  N1  UNL     1      26.105   0.292  51.958  1.00  0.00    -0.334 N 
HETATM   27  H8  UNL     1      26.683   0.042  51.134  1.00  0.00     0.168 HD
BRANCH  26  28
HETATM   28  C7  UNL     1      27.220   0.659  52.795  1.00  0.00     0.067 A 
HETATM   29  C2  UNL     1      27.964  -0.360  53.400  1.00  0.00     0.094 A 
HETATM   30  C3  UNL     1      29.043  -0.037  54.212  1.00  0.00     0.039 A 
HETATM   31  C4  UNL     1      29.378   1.267  54.416  1.00  0.00     0.003 A 
HETATM   32  C5  UNL     1      28.664   2.291  53.832  1.00  0.00     0.002 A 
HETATM   33  C6  UNL     1      27.593   1.981  53.028  1.00  0.00     0.032 A 
BRANCH  29  34
HETATM   34  O1  UNL     1      27.579  -1.659  53.158  1.00  0.00    -0.354 OA
HETATM   35  C1  UNL     1      28.486  -2.746  53.082  1.00  0.00     0.210 C 
ENDBRANCH  29  34
ENDBRANCH  26  28
ENDBRANCH   1  26
TORSDOF 6
ENDMDL
MODEL 4
REMARK VINA RESULT:      -8.9      2.232      4.793
REMARK  6 active torsions:
REMARK  status: ('A' for Active; 'I' for Inactive)
REMARK    1  A    between atoms: O1_2  and  C2_3 
REMARK    2  A    between atoms: C7_8  and  N1_9 
REMARK    3  A    between atoms: N1_9  and  C8_10 
REMARK    4  A    between atoms: C9_11  and  C10_12 
REMARK       I    between atoms: C10_12  and  N2_14 
REMARK    5  A    between atoms: N2_14  and  C11_15 
REMARK    6  A    between atoms: C14_18  and  C15_19 
ROOT
HETATM    1  C8  UNL     1      26.612   0.162  53.235  1.00  0.00     0.166 C 
HETATM    2  C9  UNL     1      27.021   1.436  53.113  1.00  0.00     0.150 C 
HETATM    3  C23 UNL     1      28.274   1.691  53.809  1.00  0.00     0.263 C 
HETATM    4  O3  UNL     1      28.721   2.863  53.741  1.00  0.00    -0.267 OA
HETATM    5  N4  UNL     1      29.000   0.740  54.537  1.00  0.00    -0.335 N 
HETATM    6  C24 UNL     1      28.699  -0.661  54.227  1.00  0.00     0.303 C 
HETATM    7  O4  UNL     1      27.324  -0.802  53.959  1.00  0.00    -0.315 OA
HETATM    8  H26 UNL     1      29.687   1.076  55.231  1.00  0.00     0.164 HD
ENDROOT
BRANCH   2   9
HETATM    9  C10 UNL     1      26.194   2.337  52.337  1.00  0.00     0.266 C 
HETATM   10  O2  UNL     1      25.227   2.833  52.967  1.00  0.00    -0.267 OA
HETATM   11  N2  UNL     1      26.335   2.712  51.000  1.00  0.00    -0.323 N 
HETATM   12  H9  UNL     1      27.152   2.275  50.521  1.00  0.00     0.169 HD
BRANCH  11  13
HETATM   13  C11 UNL     1      25.565   3.582  50.192  1.00  0.00     0.035 A 
HETATM   14  C12 UNL     1      26.029   4.826  49.825  1.00  0.00     0.030 A 
HETATM   15  C13 UNL     1      25.345   5.706  49.054  1.00  0.00     0.010 A 
HETATM   16  C14 UNL     1      24.111   5.398  48.581  1.00  0.00    -0.054 A 
HETATM   17  C21 UNL     1      23.575   4.155  48.910  1.00  0.00     0.010 A 
HETATM   18  C22 UNL     1      24.317   3.302  49.697  1.00  0.00     0.030 A 
BRANCH  16  19
HETATM   19  C15 UNL     1      23.394   6.411  47.736  1.00  0.00     0.022 C 
HETATM   20  C16 UNL     1      21.968   6.066  47.472  1.00  0.00     0.039 C 
HETATM   21  C17 UNL     1      21.091   6.614  48.538  1.00  0.00     0.272 C 
HETATM   22  N3  UNL     1      21.292   8.004  48.754  1.00  0.00     0.084 N 
HETATM   23  C18 UNL     1      20.518   8.359  49.949  1.00  0.00     0.309 C 
HETATM   24  C19 UNL     1      22.610   8.467  48.963  1.00  0.00     0.272 C 
HETATM   25  C20 UNL     1      23.675   7.805  48.151  1.00  0.00     0.039 C 
ENDBRANCH  16  19
ENDBRANCH  11  13
ENDBRANCH   2   9
BRANCH   1  26
HETATM   26  N1  UNL     1      25.408  -0.385  52.654  1.00  0.00    -0.334 N 
HETATM   27  H8  UNL     1      24.969  -0.774  51.800  1.00  0.00     0.168 HD
BRANCH  26  28
HETATM   28  C7  UNL     1      24.231  -0.513  53.477  1.00  0.00     0.067 A 
HETATM   29  C2  UNL     1      23.035   0.055  53.023  1.00  0.00     0.094 A 
HETATM   30  C3  UNL     1      21.885  -0.052  53.793  1.00  0.00     0.039 A 
HETATM   31  C4  UNL     1      21.920  -0.708  54.986  1.00  0.00     0.003 A 
HETATM   32  C5  UNL     1      23.082  -1.278  55.457  1.00  0.00     0.002 A 
HETATM   33  C6  UNL     1      24.227  -1.176  54.702  1.00  0.00     0.032 A 
BRANCH  29  34
HETATM   34  O1  UNL     1      23.059   0.707  51.810  1.00  0.00    -0.354 OA
HETATM   35  C1  UNL     1      21.924   0.857  50.975  1.00  0.00     0.210 C 
ENDBRANCH  29  34
ENDBRANCH  26  28
ENDBRANCH   1  26
TORSDOF 6
ENDMDL
MODEL 5
REMARK VINA RESULT:      -8.8      3.090      8.674
REMARK  6 active torsions:
REMARK  status: ('A' for Active; 'I' for Inactive)
REMARK    1  A    between atoms: O1_2  and  C2_3 
REMARK    2  A    between atoms: C7_8  and  N1_9 
REMARK    3  A    between atoms: N1_9  and  C8_10 
REMARK    4  A    between atoms: C9_11  and  C10_12 
REMARK       I    between atoms: C10_12  and  N2_14 
REMARK    5  A    between atoms: N2_14  and  C11_15 
REMARK    6  A    between atoms: C14_18  and  C15_19 
ROOT
HETATM    1  C8  UNL     1      25.939   7.390  48.407  1.00  0.00     0.166 C 
HETATM    2  C9  UNL     1      24.944   6.495  48.524  1.00  0.00     0.150 C 
HETATM    3  C23 UNL     1      23.893   6.696  47.536  1.00  0.00     0.263 C 
HETATM    4  O3  UNL     1      22.925   5.897  47.582  1.00  0.00    -0.267 OA
HETATM    5  N4  UNL     1      23.886   7.699  46.559  1.00  0.00    -0.335 N 
HETATM    6  C24 UNL     1      25.189   8.300  46.257  1.00  0.00     0.303 C 
HETATM    7  O4  UNL     1      25.949   8.400  47.438  1.00  0.00    -0.315 OA
HETATM    8  H26 UNL     1      22.984   7.948  46.121  1.00  0.00     0.164 HD
ENDROOT
BRANCH   2   9
HETATM    9  C10 UNL     1      25.053   5.499  49.569  1.00  0.00     0.266 C 
HETATM   10  O2  UNL     1      25.008   5.960  50.738  1.00  0.00    -0.267 OA
HETATM   11  N2  UNL     1      25.200   4.117  49.441  1.00  0.00    -0.323 N 
HETATM   12  H9  UNL     1      25.231   3.784  48.453  1.00  0.00     0.169 HD
BRANCH  11  13
HETATM   13  C11 UNL     1      25.311   3.099  50.418  1.00  0.00     0.035 A 
HETATM   14  C12 UNL     1      26.535   2.701  50.909  1.00  0.00     0.030 A 
HETATM   15  C13 UNL     1      26.712   1.734  51.843  1.00  0.00     0.010 A 
HETATM   16  C14 UNL     1      25.647   1.076  52.367  1.00  0.00    -0.054 A 
HETATM   17  C21 UNL     1      24.376   1.424  51.918  1.00  0.00     0.010 A 
HETATM   18  C22 UNL     1      24.258   2.414  50.968  1.00  0.00     0.030 A 
BRANCH  16  19
HETATM   19  C15 UNL     1      25.900   0.010  53.394  1.00  0.00     0.022 C 
HETATM   20  C16 UNL     1      26.410  -1.267  52.815  1.00  0.00     0.039 C 
HETATM   21  C17 UNL     1      27.893  -1.251  52.742  1.00  0.00     0.272 C 
HETATM   22  N3  UNL     1      28.501  -0.927  53.983  1.00  0.00     0.084 N 
HETATM   23  C18 UNL     1      29.934  -0.755  53.716  1.00  0.00     0.309 C 
HETATM   24  C19 UNL     1      28.066   0.234  54.661  1.00  0.00     0.272 C 
HETATM   25  C20 UNL     1      26.602   0.523  54.593  1.00  0.00     0.039 C 
ENDBRANCH  16  19
ENDBRANCH  11  13
ENDBRANCH   2   9
BRANCH   1  26
HETATM   26  N1  UNL     1      27.115   7.440  49.245  1.00  0.00    -0.334 N 
HETATM   27  H8  UNL     1      27.490   7.673  50.183  1.00  0.00     0.168 HD
BRANCH  26  28
HETATM   28  C7  UNL     1      28.382   7.022  48.698  1.00  0.00     0.067 A 
HETATM   29  C2  UNL     1      29.384   7.983  48.525  1.00  0.00     0.094 A 
HETATM   30  C3  UNL     1      30.614   7.610  48.000  1.00  0.00     0.039 A 
HETATM   31  C4  UNL     1      30.845   6.313  47.657  1.00  0.00     0.003 A 
HETATM   32  C5  UNL     1      29.878   5.345  47.817  1.00  0.00     0.002 A 
HETATM   33  C6  UNL     1      28.656   5.705  48.335  1.00  0.00     0.032 A 
BRANCH  29  34
HETATM   34  O1  UNL     1      29.093   9.279  48.889  1.00  0.00    -0.354 OA
HETATM   35  C1  UNL     1      29.934  10.383  48.601  1.00  0.00     0.210 C 
ENDBRANCH  29  34
ENDBRANCH  26  28
ENDBRANCH   1  26
TORSDOF 6
ENDMDL
MODEL 6
REMARK VINA RESULT:      -8.7      2.551      4.119
REMARK  6 active torsions:
REMARK  status: ('A' for Active; 'I' for Inactive)
REMARK    1  A    between atoms: O1_2  and  C2_3 
REMARK    2  A    between atoms: C7_8  and  N1_9 
REMARK    3  A    between atoms: N1_9  and  C8_10 
REMARK    4  A    between atoms: C9_11  and  C10_12 
REMARK       I    between atoms: C10_12  and  N2_14 
REMARK    5  A    between atoms: N2_14  and  C11_15 
REMARK    6  A    between atoms: C14_18  and  C15_19 
ROOT
HETATM    1  C8  UNL     1      22.403   2.215  51.379  1.00  0.00     0.166 C 
HETATM    2  C9  UNL     1      22.337   3.445  50.840  1.00  0.00     0.150 C 
HETATM    3  C23 UNL     1      21.097   4.134  51.171  1.00  0.00     0.263 C 
HETATM    4  O3  UNL     1      20.961   5.290  50.702  1.00  0.00    -0.267 OA
HETATM    5  N4  UNL     1      20.066   3.605  51.958  1.00  0.00    -0.335 N 
HETATM    6  C24 UNL     1      20.441   2.484  52.825  1.00  0.00     0.303 C 
HETATM    7  O4  UNL     1      21.382   1.670  52.167  1.00  0.00    -0.315 OA
HETATM    8  H26 UNL     1      19.127   4.028  51.881  1.00  0.00     0.164 HD
ENDROOT
BRANCH   2   9
HETATM    9  C10 UNL     1      23.460   3.891  50.043  1.00  0.00     0.266 C 
HETATM   10  O2  UNL     1      23.487   3.433  48.874  1.00  0.00    -0.267 OA
HETATM   11  N2  UNL     1      24.496   4.753  50.408  1.00  0.00    -0.323 N 
HETATM   12  H9  UNL     1      24.428   5.107  51.387  1.00  0.00     0.169 HD
BRANCH  11  13
HETATM   13  C11 UNL     1      25.614   5.224  49.679  1.00  0.00     0.035 A 
HETATM   14  C12 UNL     1      26.662   4.394  49.348  1.00  0.00     0.030 A 
HETATM   15  C13 UNL     1      27.760   4.780  48.653  1.00  0.00     0.010 A 
HETATM   16  C14 UNL     1      27.894   6.062  48.228  1.00  0.00    -0.054 A 
HETATM   17  C21 UNL     1      26.873   6.961  48.526  1.00  0.00     0.010 A 
HETATM   18  C22 UNL     1      25.781   6.511  49.235  1.00  0.00     0.030 A 
BRANCH  16  19
HETATM   19  C15 UNL     1      29.133   6.437  47.467  1.00  0.00     0.022 C 
HETATM   20  C16 UNL     1      29.330   7.910  47.338  1.00  0.00     0.039 C 
HETATM   21  C17 UNL     1      30.106   8.436  48.490  1.00  0.00     0.272 C 
HETATM   22  N3  UNL     1      31.322   7.733  48.700  1.00  0.00     0.084 N 
HETATM   23  C18 UNL     1      31.875   8.223  49.968  1.00  0.00     0.309 C 
HETATM   24  C19 UNL     1      31.276   6.324  48.787  1.00  0.00     0.272 C 
HETATM   25  C20 UNL     1      30.315   5.641  47.869  1.00  0.00     0.039 C 
ENDBRANCH  16  19
ENDBRANCH  11  13
ENDBRANCH   2   9
BRANCH   1  26
HETATM   26  N1  UNL     1      23.509   1.298  51.225  1.00  0.00    -0.334 N 
HETATM   27  H8  UNL     1      23.976   0.616  50.600  1.00  0.00     0.168 HD
BRANCH  26  28
HETATM   28  C7  UNL     1      24.454   1.156  52.305  1.00  0.00     0.067 A 
HETATM   29  C2  UNL     1      24.314   0.069  53.175  1.00  0.00     0.094 A 
HETATM   30  C3  UNL     1      25.209  -0.094  54.224  1.00  0.00     0.039 A 
HETATM   31  C4  UNL     1      26.221   0.799  54.404  1.00  0.00     0.003 A 
HETATM   32  C5  UNL     1      26.384   1.878  53.562  1.00  0.00     0.002 A 
HETATM   33  C6  UNL     1      25.501   2.048  52.521  1.00  0.00     0.032 A 
BRANCH  29  34
HETATM   34  O1  UNL     1      23.272  -0.801  52.944  1.00  0.00    -0.354 OA
HETATM   35  C1  UNL     1      22.351  -1.206  53.943  1.00  0.00     0.210 C 
ENDBRANCH  29  34
ENDBRANCH  26  28
ENDBRANCH   1  26
TORSDOF 6
ENDMDL
MODEL 7
REMARK VINA RESULT:      -8.7      1.757      2.209
REMARK  6 active torsions:
REMARK  status: ('A' for Active; 'I' for Inactive)
REMARK    1  A    between atoms: O1_2  and  C2_3 
REMARK    2  A    between atoms: C7_8  and  N1_9 
REMARK    3  A    between atoms: N1_9  and  C8_10 
REMARK    4  A    between atoms: C9_11  and  C10_12 
REMARK       I    between atoms: C10_12  and  N2_14 
REMARK    5  A    between atoms: N2_14  and  C11_15 
REMARK    6  A    between atoms: C14_18  and  C15_19 
ROOT
HETATM    1  C8  UNL     1      24.495   0.012  53.784  1.00  0.00     0.166 C 
HETATM    2  C9  UNL     1      23.549   0.416  52.920  1.00  0.00     0.150 C 
HETATM    3  C23 UNL     1      22.288  -0.288  53.103  1.00  0.00     0.263 C 
HETATM    4  O3  UNL     1      21.352   0.034  52.330  1.00  0.00    -0.267 OA
HETATM    5  N4  UNL     1      22.050  -1.283  54.061  1.00  0.00    -0.335 N 
HETATM    6  C24 UNL     1      22.982  -1.308  55.193  1.00  0.00     0.303 C 
HETATM    7  O4  UNL     1      24.277  -0.980  54.747  1.00  0.00    -0.315 OA
HETATM    8  H26 UNL     1      21.252  -1.922  53.914  1.00  0.00     0.164 HD
ENDROOT
BRANCH   2   9
HETATM    9  C10 UNL     1      23.901   1.451  51.971  1.00  0.00     0.266 C 
HETATM   10  O2  UNL     1      24.968   1.242  51.341  1.00  0.00    -0.267 OA
HETATM   11  N2  UNL     1      23.215   2.631  51.678  1.00  0.00    -0.323 N 
HETATM   12  H9  UNL     1      22.337   2.759  52.226  1.00  0.00     0.169 HD
BRANCH  11  13
HETATM   13  C11 UNL     1      23.507   3.675  50.767  1.00  0.00     0.035 A 
HETATM   14  C12 UNL     1      23.052   3.646  49.468  1.00  0.00     0.030 A 
HETATM   15  C13 UNL     1      23.293   4.610  48.546  1.00  0.00     0.010 A 
HETATM   16  C14 UNL     1      24.030   5.705  48.867  1.00  0.00    -0.054 A 
HETATM   17  C21 UNL     1      24.524   5.803  50.165  1.00  0.00     0.010 A 
HETATM   18  C22 UNL     1      24.246   4.793  51.058  1.00  0.00     0.030 A 
BRANCH  16  19
HETATM   19  C15 UNL     1      24.272   6.740  47.807  1.00  0.00     0.022 C 
HETATM   20  C16 UNL     1      23.126   6.913  46.869  1.00  0.00     0.039 C 
HETATM   21  C17 UNL     1      22.179   7.935  47.383  1.00  0.00     0.272 C 
HETATM   22  N3  UNL     1      22.818   9.162  47.706  1.00  0.00     0.084 N 
HETATM   23  C18 UNL     1      21.813   9.994  48.378  1.00  0.00     0.309 C 
HETATM   24  C19 UNL     1      23.953   9.127  48.546  1.00  0.00     0.272 C 
HETATM   25  C20 UNL     1      24.885   7.977  48.342  1.00  0.00     0.039 C 
ENDBRANCH  16  19
ENDBRANCH  11  13
ENDBRANCH   2   9
BRANCH   1  26
HETATM   26  N1  UNL     1      25.843   0.529  53.843  1.00  0.00    -0.334 N 
HETATM   27  H8  UNL     1      26.435   1.363  54.013  1.00  0.00     0.168 HD
BRANCH  26  28
HETATM   28  C7  UNL     1      26.945  -0.363  53.582  1.00  0.00     0.067 A 
HETATM   29  C2  UNL     1      28.233   0.041  53.953  1.00  0.00     0.094 A 
HETATM   30  C3  UNL     1      29.314  -0.796  53.714  1.00  0.00     0.039 A 
HETATM   31  C4  UNL     1      29.122  -2.007  53.122  1.00  0.00     0.003 A 
HETATM   32  C5  UNL     1      27.866  -2.432  52.747  1.00  0.00     0.002 A 
HETATM   33  C6  UNL     1      26.789  -1.609  52.979  1.00  0.00     0.032 A 
BRANCH  29  34
HETATM   34  O1  UNL     1      28.366   1.276  54.547  1.00  0.00    -0.354 OA
HETATM   35  C1  UNL     1      28.838   2.427  53.869  1.00  0.00     0.210 C 
ENDBRANCH  29  34
ENDBRANCH  26  28
ENDBRANCH   1  26
TORSDOF 6
ENDMDL
MODEL 8
REMARK VINA RESULT:      -8.4      2.229      3.593
REMARK  6 active torsions:
REMARK  status: ('A' for Active; 'I' for Inactive)
REMARK    1  A    between atoms: O1_2  and  C2_3 
REMARK    2  A    between atoms: C7_8  and  N1_9 
REMARK    3  A    between atoms: N1_9  and  C8_10 
REMARK    4  A    between atoms: C9_11  and  C10_12 
REMARK       I    between atoms: C10_12  and  N2_14 
REMARK    5  A    between atoms: N2_14  and  C11_15 
REMARK    6  A    between atoms: C14_18  and  C15_19 
ROOT
HETATM    1  C8  UNL     1      22.680   2.752  52.123  1.00  0.00     0.166 C 
HETATM    2  C9  UNL     1      22.625   3.502  51.010  1.00  0.00     0.150 C 
HETATM    3  C23 UNL     1      21.329   3.429  50.350  1.00  0.00     0.263 C 
HETATM    4  O3  UNL     1      21.199   4.104  49.300  1.00  0.00    -0.267 OA
HETATM    5  N4  UNL     1      20.238   2.672  50.797  1.00  0.00    -0.335 N 
HETATM    6  C24 UNL     1      20.275   2.277  52.209  1.00  0.00     0.303 C 
HETATM    7  O4  UNL     1      21.601   1.988  52.584  1.00  0.00    -0.315 OA
HETATM    8  H26 UNL     1      19.491   2.444  50.120  1.00  0.00     0.164 HD
ENDROOT
BRANCH   2   9
HETATM    9  C10 UNL     1      23.811   4.245  50.639  1.00  0.00     0.266 C 
HETATM   10  O2  UNL     1      24.224   5.043  51.517  1.00  0.00    -0.267 OA
HETATM   11  N2  UNL     1      24.537   4.185  49.448  1.00  0.00    -0.323 N 
HETATM   12  H9  UNL     1      24.155   3.508  48.752  1.00  0.00     0.169 HD
BRANCH  11  13
HETATM   13  C11 UNL     1      25.696   4.880  49.029  1.00  0.00     0.035 A 
HETATM   14  C12 UNL     1      25.635   6.182  48.585  1.00  0.00     0.030 A 
HETATM   15  C13 UNL     1      26.704   6.905  48.170  1.00  0.00     0.010 A 
HETATM   16  C14 UNL     1      27.948   6.362  48.169  1.00  0.00    -0.054 A 
HETATM   17  C21 UNL     1      28.088   5.047  48.606  1.00  0.00     0.010 A 
HETATM   18  C22 UNL     1      26.966   4.362  49.016  1.00  0.00     0.030 A 
BRANCH  16  19
HETATM   19  C15 UNL     1      29.096   7.205  47.695  1.00  0.00     0.022 C 
HETATM   20  C16 UNL     1      28.739   8.124  46.576  1.00  0.00     0.039 C 
HETATM   21  C17 UNL     1      28.250   9.424  47.104  1.00  0.00     0.272 C 
HETATM   22  N3  UNL     1      29.147  10.011  48.035  1.00  0.00     0.084 N 
HETATM   23  C18 UNL     1      28.454  11.169  48.613  1.00  0.00     0.309 C 
HETATM   24  C19 UNL     1      29.604   9.223  49.115  1.00  0.00     0.272 C 
HETATM   25  C20 UNL     1      29.880   7.787  48.809  1.00  0.00     0.039 C 
ENDBRANCH  16  19
ENDBRANCH  11  13
ENDBRANCH   2   9
BRANCH   1  26
HETATM   26  N1  UNL     1      23.833   2.625  52.984  1.00  0.00    -0.334 N 
HETATM   27  H8  UNL     1      24.337   3.011  53.804  1.00  0.00     0.168 HD
BRANCH  26  28
HETATM   28  C7  UNL     1      24.779   1.566  52.735  1.00  0.00     0.067 A 
HETATM   29  C2  UNL     1      24.542   0.311  53.306  1.00  0.00     0.094 A 
HETATM   30  C3  UNL     1      25.435  -0.728  53.085  1.00  0.00     0.039 A 
HETATM   31  C4  UNL     1      26.538  -0.527  52.312  1.00  0.00     0.003 A 
HETATM   32  C5  UNL     1      26.797   0.697  51.736  1.00  0.00     0.002 A 
HETATM   33  C6  UNL     1      25.918   1.733  51.951  1.00  0.00     0.032 A 
BRANCH  29  34
HETATM   34  O1  UNL     1      23.410   0.167  54.079  1.00  0.00    -0.354 OA
HETATM   35  C1  UNL     1      22.950  -1.079  54.573  1.00  0.00     0.210 C 
ENDBRANCH  29  34
ENDBRANCH  26  28
ENDBRANCH   1  26
TORSDOF 6
ENDMDL
MODEL 9
REMARK VINA RESULT:      -8.4      2.365      4.922
REMARK  6 active torsions:
REMARK  status: ('A' for Active; 'I' for Inactive)
REMARK    1  A    between atoms: O1_2  and  C2_3 
REMARK    2  A    between atoms: C7_8  and  N1_9 
REMARK    3  A    between atoms: N1_9  and  C8_10 
REMARK    4  A    between atoms: C9_11  and  C10_12 
REMARK       I    between atoms: C10_12  and  N2_14 
REMARK    5  A    between atoms: N2_14  and  C11_15 
REMARK    6  A    between atoms: C14_18  and  C15_19 
ROOT
HETATM    1  C8  UNL     1      22.804   1.478  52.468  1.00  0.00     0.166 C 
HETATM    2  C9  UNL     1      24.135   1.650  52.407  1.00  0.00     0.150 C 
HETATM    3  C23 UNL     1      24.869   0.572  53.055  1.00  0.00     0.263 C 
HETATM    4  O3  UNL     1      26.121   0.662  53.040  1.00  0.00    -0.267 OA
HETATM    5  N4  UNL     1      24.285  -0.537  53.682  1.00  0.00    -0.335 N 
HETATM    6  C24 UNL     1      22.901  -0.828  53.297  1.00  0.00     0.303 C 
HETATM    7  O4  UNL     1      22.203   0.378  53.091  1.00  0.00    -0.315 OA
HETATM    8  H26 UNL     1      24.854  -1.069  54.361  1.00  0.00     0.164 HD
ENDROOT
BRANCH   2   9
HETATM    9  C10 UNL     1      24.631   2.833  51.735  1.00  0.00     0.266 C 
HETATM   10  O2  UNL     1      24.371   3.915  52.318  1.00  0.00    -0.267 OA
HETATM   11  N2  UNL     1      25.349   2.916  50.540  1.00  0.00    -0.323 N 
HETATM   12  H9  UNL     1      25.540   1.992  50.095  1.00  0.00     0.169 HD
BRANCH  11  13
HETATM   13  C11 UNL     1      25.858   4.034  49.837  1.00  0.00     0.035 A 
HETATM   14  C12 UNL     1      25.106   5.173  49.652  1.00  0.00     0.030 A 
HETATM   15  C13 UNL     1      25.532   6.277  48.990  1.00  0.00     0.010 A 
HETATM   16  C14 UNL     1      26.776   6.322  48.448  1.00  0.00    -0.054 A 
HETATM   17  C21 UNL     1      27.594   5.205  48.595  1.00  0.00     0.010 A 
HETATM   18  C22 UNL     1      27.108   4.112  49.278  1.00  0.00     0.030 A 
BRANCH  16  19
HETATM   19  C15 UNL     1      27.194   7.566  47.721  1.00  0.00     0.022 C 
HETATM   20  C16 UNL     1      27.090   8.804  48.546  1.00  0.00     0.039 C 
HETATM   21  C17 UNL     1      28.353   9.042  49.291  1.00  0.00     0.272 C 
HETATM   22  N3  UNL     1      29.497   9.035  48.450  1.00  0.00     0.084 N 
HETATM   23  C18 UNL     1      30.668   9.082  49.334  1.00  0.00     0.309 C 
HETATM   24  C19 UNL     1      29.682   7.939  47.577  1.00  0.00     0.272 C 
HETATM   25  C20 UNL     1      28.445   7.386  46.948  1.00  0.00     0.039 C 
ENDBRANCH  16  19
ENDBRANCH  11  13
ENDBRANCH   2   9
BRANCH   1  26
HETATM   26  N1  UNL     1      21.823   2.382  51.914  1.00  0.00    -0.334 N 
HETATM   27  H8  UNL     1      21.075   3.069  52.124  1.00  0.00     0.168 HD
BRANCH  26  28
HETATM   28  C7  UNL     1      21.707   2.497  50.481  1.00  0.00     0.067 A 
HETATM   29  C2  UNL     1      21.383   3.743  49.936  1.00  0.00     0.094 A 
HETATM   30  C3  UNL     1      21.265   3.885  48.560  1.00  0.00     0.039 A 
HETATM   31  C4  UNL     1      21.465   2.813  47.744  1.00  0.00     0.003 A 
HETATM   32  C5  UNL     1      21.786   1.574  48.253  1.00  0.00     0.002 A 
HETATM   33  C6  UNL     1      21.905   1.424  49.614  1.00  0.00     0.032 A 
BRANCH  29  34
HETATM   34  O1  UNL     1      21.191   4.791  50.809  1.00  0.00    -0.354 OA
HETATM   35  C1  UNL     1      21.691   6.099  50.590  1.00  0.00     0.210 C 
ENDBRANCH  29  34
ENDBRANCH  26  28
ENDBRANCH   1  26
TORSDOF 6
ENDMDL
