MODEL 1
REMARK VINA RESULT:      -8.9      0.000      0.000
REMARK  6 active torsions:
REMARK  status: ('A' for Active; 'I' for Inactive)
REMARK    1  A    between atoms: O1_1  and  C1_2 
REMARK    2  A    between atoms: C6_7  and  C7_8 
REMARK    3  A    between atoms: C7_8  and  N1_9 
REMARK    4  A    between atoms: N1_9  and  C8_10 
REMARK    5  A    between atoms: C13_17  and  N4_18 
REMARK    6  A    between atoms: N4_18  and  C14_19 
ROOT
HETATM    1  C8  UNL     1      25.456   2.811  51.521  1.00  0.00     0.029 A 
HETATM    2  C9  UNL     1      25.727   3.551  50.391  1.00  0.00     0.031 A 
HETATM    3  C10 UNL     1      24.832   3.577  49.345  1.00  0.00     0.035 A 
HETATM    4  C11 UNL     1      23.681   2.840  49.488  1.00  0.00     0.072 A 
HETATM    5  N2  UNL     1      22.797   2.851  48.506  1.00  0.00    -0.241 NA
HETATM    6  C12 UNL     1      21.641   2.179  48.538  1.00  0.00     0.235 A 
HETATM    7  N3  UNL     1      21.317   1.443  49.598  1.00  0.00    -0.224 NA
HETATM    8  C13 UNL     1      22.142   1.354  50.666  1.00  0.00     0.138 A 
HETATM    9  C19 UNL     1      23.318   2.066  50.582  1.00  0.00     0.041 A 
HETATM   10  C20 UNL     1      24.276   2.100  51.581  1.00  0.00     0.046 A 
ENDROOT
BRANCH   1  11
HETATM   11  N1  UNL     1      26.403   2.808  52.582  1.00  0.00    -0.386 N 
HETATM   12  H8  UNL     1      27.153   3.536  52.578  1.00  0.00     0.160 HD
BRANCH  11  13
HETATM   13  C7  UNL     1      26.256   1.780  53.610  1.00  0.00     0.161 C 
BRANCH  13  14
HETATM   14  C6  UNL     1      27.276   0.725  53.515  1.00  0.00    -0.007 A 
HETATM   15  C1  UNL     1      28.561   1.149  53.877  1.00  0.00     0.073 A 
HETATM   16  C2  UNL     1      29.655   0.309  53.856  1.00  0.00     0.037 A 
HETATM   17  C3  UNL     1      29.409  -0.987  53.452  1.00  0.00     0.003 A 
HETATM   18  C4  UNL     1      28.170  -1.475  53.080  1.00  0.00     0.001 A 
HETATM   19  C5  UNL     1      27.097  -0.590  53.117  1.00  0.00     0.011 A 
BRANCH  15  20
HETATM   20  O1  UNL     1      28.832   2.460  54.291  1.00  0.00    -0.360 OA
HETATM   21  H1  UNL     1      29.728   2.857  54.073  1.00  0.00     0.217 HD
ENDBRANCH  15  20
ENDBRANCH  13  14
ENDBRANCH  11  13
ENDBRANCH   1  11
BRANCH   8  22
HETATM   22  N4  UNL     1      21.857   0.591  51.823  1.00  0.00    -0.363 N 
HETATM   23  H12 UNL     1      21.298   1.231  52.463  1.00  0.00     0.162 HD
BRANCH  22  24
HETATM   24  C14 UNL     1      21.890  -0.578  52.644  1.00  0.00     0.131 A 
HETATM   25  C15 UNL     1      20.993  -0.496  53.848  1.00  0.00     0.004 A 
HETATM   26  C16 UNL     1      21.656  -0.691  54.958  1.00  0.00     0.022 A 
HETATM   27  C17 UNL     1      23.060  -0.925  54.638  1.00  0.00     0.032 A 
HETATM   28 CL1  UNL     1      24.506  -1.251  55.588  1.00  0.00    -0.085 Cl
HETATM   29  C18 UNL     1      23.183  -0.858  53.311  1.00  0.00     0.026 A 
ENDBRANCH  22  24
ENDBRANCH   8  22
TORSDOF 6
ENDMDL
MODEL 2
REMARK VINA RESULT:      -8.8      1.896      2.164
REMARK  6 active torsions:
REMARK  status: ('A' for Active; 'I' for Inactive)
REMARK    1  A    between atoms: O1_1  and  C1_2 
REMARK    2  A    between atoms: C6_7  and  C7_8 
REMARK    3  A    between atoms: C7_8  and  N1_9 
REMARK    4  A    between atoms: N1_9  and  C8_10 
REMARK    5  A    between atoms: C13_17  and  N4_18 
REMARK    6  A    between atoms: N4_18  and  C14_19 
ROOT
HETATM    1  C8  UNL     1      23.986   3.297  52.767  1.00  0.00     0.029 A 
HETATM    2  C9  UNL     1      23.499   4.579  52.639  1.00  0.00     0.031 A 
HETATM    3  C10 UNL     1      22.166   4.793  52.367  1.00  0.00     0.035 A 
HETATM    4  C11 UNL     1      21.369   3.682  52.233  1.00  0.00     0.072 A 
HETATM    5  N2  UNL     1      20.083   3.853  51.982  1.00  0.00    -0.241 NA
HETATM    6  C12 UNL     1      19.213   2.847  51.839  1.00  0.00     0.235 A 
HETATM    7  N3  UNL     1      19.616   1.584  51.949  1.00  0.00    -0.224 NA
HETATM    8  C13 UNL     1      20.910   1.283  52.206  1.00  0.00     0.138 A 
HETATM    9  C19 UNL     1      21.763   2.355  52.344  1.00  0.00     0.041 A 
HETATM   10  C20 UNL     1      23.115   2.239  52.619  1.00  0.00     0.046 A 
ENDROOT
BRANCH   1  11
HETATM   11  N1  UNL     1      25.369   3.114  53.050  1.00  0.00    -0.386 N 
HETATM   12  H8  UNL     1      25.728   3.423  53.981  1.00  0.00     0.160 HD
BRANCH  11  13
HETATM   13  C7  UNL     1      26.190   2.500  52.009  1.00  0.00     0.161 C 
BRANCH  13  14
HETATM   14  C6  UNL     1      26.902   1.301  52.476  1.00  0.00    -0.007 A 
HETATM   15  C1  UNL     1      27.868   1.564  53.455  1.00  0.00     0.073 A 
HETATM   16  C2  UNL     1      28.643   0.573  54.022  1.00  0.00     0.037 A 
HETATM   17  C3  UNL     1      28.410  -0.707  53.563  1.00  0.00     0.003 A 
HETATM   18  C4  UNL     1      27.475  -1.041  52.601  1.00  0.00     0.001 A 
HETATM   19  C5  UNL     1      26.719  -0.007  52.058  1.00  0.00     0.011 A 
BRANCH  15  20
HETATM   20  O1  UNL     1      28.121   2.857  53.936  1.00  0.00    -0.360 OA
HETATM   21  H1  UNL     1      27.362   3.378  54.334  1.00  0.00     0.217 HD
ENDBRANCH  15  20
ENDBRANCH  13  14
ENDBRANCH  11  13
ENDBRANCH   1  11
BRANCH   8  22
HETATM   22  N4  UNL     1      21.403  -0.037  52.337  1.00  0.00    -0.363 N 
HETATM   23  H12 UNL     1      21.187  -0.521  51.414  1.00  0.00     0.162 HD
BRANCH  22  24
HETATM   24  C14 UNL     1      22.043  -1.118  53.017  1.00  0.00     0.131 A 
HETATM   25  C15 UNL     1      21.452  -1.416  54.366  1.00  0.00     0.004 A 
HETATM   26  C16 UNL     1      22.355  -1.362  55.310  1.00  0.00     0.022 A 
HETATM   27  C17 UNL     1      23.644  -1.025  54.717  1.00  0.00     0.032 A 
HETATM   28 CL1  UNL     1      25.270  -0.783  55.349  1.00  0.00    -0.085 Cl
HETATM   29  C18 UNL     1      23.454  -0.887  53.403  1.00  0.00     0.026 A 
ENDBRANCH  22  24
ENDBRANCH   8  22
TORSDOF 6
ENDMDL
MODEL 3
REMARK VINA RESULT:      -8.7      2.830      5.021
REMARK  6 active torsions:
REMARK  status: ('A' for Active; 'I' for Inactive)
REMARK    1  A    between atoms: O1_1  and  C1_2 
REMARK    2  A    between atoms: C6_7  and  C7_8 
REMARK    3  A    between atoms: C7_8  and  N1_9 
REMARK    4  A    between atoms: N1_9  and  C8_10 
REMARK    5  A    between atoms: C13_17  and  N4_18 
REMARK    6  A    between atoms: N4_18  and  C14_19 
ROOT
HETATM    1  C8  UNL     1      23.993  -0.404  53.718  1.00  0.00     0.029 A 
HETATM    2  C9  UNL     1      22.901  -0.873  54.414  1.00  0.00     0.031 A 
HETATM    3  C10 UNL     1      21.671  -0.270  54.270  1.00  0.00     0.035 A 
HETATM    4  C11 UNL     1      21.598   0.803  53.414  1.00  0.00     0.072 A 
HETATM    5  N2  UNL     1      20.431   1.399  53.245  1.00  0.00    -0.241 NA
HETATM    6  C12 UNL     1      20.239   2.444  52.434  1.00  0.00     0.235 A 
HETATM    7  N3  UNL     1      21.251   2.949  51.732  1.00  0.00    -0.224 NA
HETATM    8  C13 UNL     1      22.494   2.423  51.821  1.00  0.00     0.138 A 
HETATM    9  C19 UNL     1      22.636   1.348  52.670  1.00  0.00     0.041 A 
HETATM   10  C20 UNL     1      23.830   0.677  52.878  1.00  0.00     0.046 A 
ENDROOT
BRANCH   1  11
HETATM   11  N1  UNL     1      25.247  -1.053  53.891  1.00  0.00    -0.386 N 
HETATM   12  H8  UNL     1      25.470  -1.456  54.829  1.00  0.00     0.160 HD
BRANCH  11  13
HETATM   13  C7  UNL     1      26.138  -1.110  52.734  1.00  0.00     0.161 C 
BRANCH  13  14
HETATM   14  C6  UNL     1      27.516  -0.708  53.054  1.00  0.00    -0.007 A 
HETATM   15  C1  UNL     1      28.423  -1.775  53.083  1.00  0.00     0.073 A 
HETATM   16  C2  UNL     1      29.763  -1.605  53.363  1.00  0.00     0.037 A 
HETATM   17  C3  UNL     1      30.164  -0.309  53.615  1.00  0.00     0.003 A 
HETATM   18  C4  UNL     1      29.327   0.791  53.604  1.00  0.00     0.001 A 
HETATM   19  C5  UNL     1      27.984   0.569  53.318  1.00  0.00     0.011 A 
BRANCH  15  20
HETATM   20  O1  UNL     1      28.037  -3.098  52.829  1.00  0.00    -0.360 OA
HETATM   21  H1  UNL     1      28.728  -3.822  52.898  1.00  0.00     0.217 HD
ENDBRANCH  15  20
ENDBRANCH  13  14
ENDBRANCH  11  13
ENDBRANCH   1  11
BRANCH   8  22
HETATM   22  N4  UNL     1      23.612   2.910  51.102  1.00  0.00    -0.363 N 
HETATM   23  H12 UNL     1      23.993   3.723  51.673  1.00  0.00     0.162 HD
BRANCH  22  24
HETATM   24  C14 UNL     1      24.545   2.934  50.021  1.00  0.00     0.131 A 
HETATM   25  C15 UNL     1      25.964   2.672  50.442  1.00  0.00     0.004 A 
HETATM   26  C16 UNL     1      26.762   3.642  50.078  1.00  0.00     0.022 A 
HETATM   27  C17 UNL     1      25.986   4.659  49.378  1.00  0.00     0.032 A 
HETATM   28 CL1  UNL     1      26.368   6.204  48.624  1.00  0.00    -0.085 Cl
HETATM   29  C18 UNL     1      24.717   4.244  49.351  1.00  0.00     0.026 A 
ENDBRANCH  22  24
ENDBRANCH   8  22
TORSDOF 6
ENDMDL
MODEL 4
REMARK VINA RESULT:      -8.6      3.275      7.441
REMARK  6 active torsions:
REMARK  status: ('A' for Active; 'I' for Inactive)
REMARK    1  A    between atoms: O1_1  and  C1_2 
REMARK    2  A    between atoms: C6_7  and  C7_8 
REMARK    3  A    between atoms: C7_8  and  N1_9 
REMARK    4  A    between atoms: N1_9  and  C8_10 
REMARK    5  A    between atoms: C13_17  and  N4_18 
REMARK    6  A    between atoms: N4_18  and  C14_19 
ROOT
HETATM    1  C8  UNL     1      24.518   0.054  53.468  1.00  0.00     0.029 A 
HETATM    2  C9  UNL     1      25.018  -0.623  54.559  1.00  0.00     0.031 A 
HETATM    3  C10 UNL     1      26.289  -0.361  55.019  1.00  0.00     0.035 A 
HETATM    4  C11 UNL     1      27.014   0.592  54.343  1.00  0.00     0.072 A 
HETATM    5  N2  UNL     1      28.234   0.875  54.765  1.00  0.00    -0.241 NA
HETATM    6  C12 UNL     1      29.027   1.787  54.191  1.00  0.00     0.235 A 
HETATM    7  N3  UNL     1      28.607   2.477  53.133  1.00  0.00    -0.224 NA
HETATM    8  C13 UNL     1      27.376   2.275  52.610  1.00  0.00     0.138 A 
HETATM    9  C19 UNL     1      26.601   1.326  53.239  1.00  0.00     0.041 A 
HETATM   10  C20 UNL     1      25.314   0.995  52.850  1.00  0.00     0.046 A 
ENDROOT
BRANCH   1  11
HETATM   11  N1  UNL     1      23.201  -0.243  53.021  1.00  0.00    -0.386 N 
HETATM   12  H8  UNL     1      23.026  -1.175  52.582  1.00  0.00     0.160 HD
BRANCH  11  13
HETATM   13  C7  UNL     1      22.180   0.785  53.213  1.00  0.00     0.161 C 
BRANCH  13  14
HETATM   14  C6  UNL     1      20.834   0.331  52.832  1.00  0.00    -0.007 A 
HETATM   15  C1  UNL     1      20.279  -0.599  53.720  1.00  0.00     0.073 A 
HETATM   16  C2  UNL     1      19.025  -1.145  53.540  1.00  0.00     0.037 A 
HETATM   17  C3  UNL     1      18.340  -0.717  52.421  1.00  0.00     0.003 A 
HETATM   18  C4  UNL     1      18.823   0.196  51.503  1.00  0.00     0.001 A 
HETATM   19  C5  UNL     1      20.093   0.718  51.727  1.00  0.00     0.011 A 
BRANCH  15  20
HETATM   20  O1  UNL     1      20.958  -1.047  54.862  1.00  0.00    -0.360 OA
HETATM   21  H1  UNL     1      21.182  -0.382  55.580  1.00  0.00     0.217 HD
ENDBRANCH  15  20
ENDBRANCH  13  14
ENDBRANCH  11  13
ENDBRANCH   1  11
BRANCH   8  22
HETATM   22  N4  UNL     1      26.869   2.975  51.490  1.00  0.00    -0.363 N 
HETATM   23  H12 UNL     1      26.953   4.008  51.729  1.00  0.00     0.162 HD
BRANCH  22  24
HETATM   24  C14 UNL     1      26.296   3.090  50.186  1.00  0.00     0.131 A 
HETATM   25  C15 UNL     1      26.912   4.176  49.349  1.00  0.00     0.004 A 
HETATM   26  C16 UNL     1      26.014   5.028  48.929  1.00  0.00     0.022 A 
HETATM   27  C17 UNL     1      24.704   4.623  49.426  1.00  0.00     0.032 A 
HETATM   28 CL1  UNL     1      23.071   5.265  49.273  1.00  0.00    -0.085 Cl
HETATM   29  C18 UNL     1      24.876   3.512  50.144  1.00  0.00     0.026 A 
ENDBRANCH  22  24
ENDBRANCH   8  22
TORSDOF 6
ENDMDL
MODEL 5
REMARK VINA RESULT:      -8.6      2.863      5.851
REMARK  6 active torsions:
REMARK  status: ('A' for Active; 'I' for Inactive)
REMARK    1  A    between atoms: O1_1  and  C1_2 
REMARK    2  A    between atoms: C6_7  and  C7_8 
REMARK    3  A    between atoms: C7_8  and  N1_9 
REMARK    4  A    between atoms: N1_9  and  C8_10 
REMARK    5  A    between atoms: C13_17  and  N4_18 
REMARK    6  A    between atoms: N4_18  and  C14_19 
ROOT
HETATM    1  C8  UNL     1      26.768   2.230  52.230  1.00  0.00     0.029 A 
HETATM    2  C9  UNL     1      27.719   1.919  53.176  1.00  0.00     0.031 A 
HETATM    3  C10 UNL     1      27.442   1.003  54.167  1.00  0.00     0.035 A 
HETATM    4  C11 UNL     1      26.192   0.432  54.159  1.00  0.00     0.072 A 
HETATM    5  N2  UNL     1      25.898  -0.458  55.090  1.00  0.00    -0.241 NA
HETATM    6  C12 UNL     1      24.718  -1.083  55.176  1.00  0.00     0.235 A 
HETATM    7  N3  UNL     1      23.753  -0.828  54.295  1.00  0.00    -0.224 NA
HETATM    8  C13 UNL     1      23.937   0.065  53.296  1.00  0.00     0.138 A 
HETATM    9  C19 UNL     1      25.170   0.678  53.253  1.00  0.00     0.041 A 
HETATM   10  C20 UNL     1      25.539   1.609  52.296  1.00  0.00     0.046 A 
ENDROOT
BRANCH   1  11
HETATM   11  N1  UNL     1      27.089   3.180  51.221  1.00  0.00    -0.386 N 
HETATM   12  H8  UNL     1      27.760   3.946  51.458  1.00  0.00     0.160 HD
BRANCH  11  13
HETATM   13  C7  UNL     1      26.454   3.013  49.916  1.00  0.00     0.161 C 
BRANCH  13  14
HETATM   14  C6  UNL     1      25.928   4.274  49.371  1.00  0.00    -0.007 A 
HETATM   15  C1  UNL     1      26.924   5.189  49.004  1.00  0.00     0.073 A 
HETATM   16  C2  UNL     1      26.636   6.428  48.472  1.00  0.00     0.037 A 
HETATM   17  C3  UNL     1      25.296   6.720  48.319  1.00  0.00     0.003 A 
HETATM   18  C4  UNL     1      24.261   5.868  48.659  1.00  0.00     0.001 A 
HETATM   19  C5  UNL     1      24.601   4.629  49.193  1.00  0.00     0.011 A 
BRANCH  15  20
HETATM   20  O1  UNL     1      28.290   4.913  49.150  1.00  0.00    -0.360 OA
HETATM   21  H1  UNL     1      28.944   5.396  48.561  1.00  0.00     0.217 HD
ENDBRANCH  15  20
ENDBRANCH  13  14
ENDBRANCH  11  13
ENDBRANCH   1  11
BRANCH   8  22
HETATM   22  N4  UNL     1      22.955   0.380  52.327  1.00  0.00    -0.363 N 
HETATM   23  H12 UNL     1      22.712  -0.540  51.849  1.00  0.00     0.162 HD
BRANCH  22  24
HETATM   24  C14 UNL     1      22.079   1.248  51.606  1.00  0.00     0.131 A 
HETATM   25  C15 UNL     1      20.845   0.566  51.087  1.00  0.00     0.004 A 
HETATM   26  C16 UNL     1      20.724   0.707  49.793  1.00  0.00     0.022 A 
HETATM   27  C17 UNL     1      21.847   1.491  49.293  1.00  0.00     0.032 A 
HETATM   28 CL1  UNL     1      22.344   2.065  47.704  1.00  0.00    -0.085 Cl
HETATM   29  C18 UNL     1      22.618   1.796  50.339  1.00  0.00     0.026 A 
ENDBRANCH  22  24
ENDBRANCH   8  22
TORSDOF 6
ENDMDL
MODEL 6
REMARK VINA RESULT:      -8.5      2.542      4.870
REMARK  6 active torsions:
REMARK  status: ('A' for Active; 'I' for Inactive)
REMARK    1  A    between atoms: O1_1  and  C1_2 
REMARK    2  A    between atoms: C6_7  and  C7_8 
REMARK    3  A    between atoms: C7_8  and  N1_9 
REMARK    4  A    between atoms: N1_9  and  C8_10 
REMARK    5  A    between atoms: C13_17  and  N4_18 
REMARK    6  A    between atoms: N4_18  and  C14_19 
ROOT
HETATM    1  C8  UNL     1      23.653  -0.196  53.449  1.00  0.00     0.029 A 
HETATM    2  C9  UNL     1      23.218  -0.879  54.564  1.00  0.00     0.031 A 
HETATM    3  C10 UNL     1      21.883  -1.181  54.718  1.00  0.00     0.035 A 
HETATM    4  C11 UNL     1      21.030  -0.771  53.722  1.00  0.00     0.072 A 
HETATM    5  N2  UNL     1      19.744  -1.053  53.835  1.00  0.00    -0.241 NA
HETATM    6  C12 UNL     1      18.825  -0.711  52.926  1.00  0.00     0.235 A 
HETATM    7  N3  UNL     1      19.175  -0.048  51.826  1.00  0.00    -0.224 NA
HETATM    8  C13 UNL     1      20.464   0.296  51.600  1.00  0.00     0.138 A 
HETATM    9  C19 UNL     1      21.369  -0.081  52.566  1.00  0.00     0.041 A 
HETATM   10  C20 UNL     1      22.728   0.177  52.497  1.00  0.00     0.046 A 
ENDROOT
BRANCH   1  11
HETATM   11  N1  UNL     1      25.039   0.098  53.323  1.00  0.00    -0.386 N 
HETATM   12  H8  UNL     1      25.345   1.092  53.423  1.00  0.00     0.160 HD
BRANCH  11  13
HETATM   13  C7  UNL     1      25.941  -1.022  53.061  1.00  0.00     0.161 C 
BRANCH  13  14
HETATM   14  C6  UNL     1      27.355  -0.679  53.275  1.00  0.00    -0.007 A 
HETATM   15  C1  UNL     1      28.227  -1.764  53.125  1.00  0.00     0.073 A 
HETATM   16  C2  UNL     1      29.593  -1.649  53.284  1.00  0.00     0.037 A 
HETATM   17  C3  UNL     1      30.055  -0.389  53.604  1.00  0.00     0.003 A 
HETATM   18  C4  UNL     1      29.255   0.726  53.769  1.00  0.00     0.001 A 
HETATM   19  C5  UNL     1      27.884   0.560  53.599  1.00  0.00     0.011 A 
BRANCH  15  20
HETATM   20  O1  UNL     1      27.779  -3.052  52.800  1.00  0.00    -0.360 OA
HETATM   21  H1  UNL     1      28.113  -3.478  51.955  1.00  0.00     0.217 HD
ENDBRANCH  15  20
ENDBRANCH  13  14
ENDBRANCH  11  13
ENDBRANCH   1  11
BRANCH   8  22
HETATM   22  N4  UNL     1      20.903   0.998  50.452  1.00  0.00    -0.363 N 
HETATM   23  H12 UNL     1      21.239   0.256  49.767  1.00  0.00     0.162 HD
BRANCH  22  24
HETATM   24  C14 UNL     1      21.159   2.164  49.666  1.00  0.00     0.131 A 
HETATM   25  C15 UNL     1      21.466   1.865  48.225  1.00  0.00     0.004 A 
HETATM   26  C16 UNL     1      22.619   2.365  47.864  1.00  0.00     0.022 A 
HETATM   27  C17 UNL     1      23.217   3.052  49.004  1.00  0.00     0.032 A 
HETATM   28 CL1  UNL     1      24.716   3.936  49.266  1.00  0.00    -0.085 Cl
HETATM   29  C18 UNL     1      22.373   2.930  50.030  1.00  0.00     0.026 A 
ENDBRANCH  22  24
ENDBRANCH   8  22
TORSDOF 6
ENDMDL
MODEL 7
REMARK VINA RESULT:      -8.4      3.056      5.797
REMARK  6 active torsions:
REMARK  status: ('A' for Active; 'I' for Inactive)
REMARK    1  A    between atoms: O1_1  and  C1_2 
REMARK    2  A    between atoms: C6_7  and  C7_8 
REMARK    3  A    between atoms: C7_8  and  N1_9 
REMARK    4  A    between atoms: N1_9  and  C8_10 
REMARK    5  A    between atoms: C13_17  and  N4_18 
REMARK    6  A    between atoms: N4_18  and  C14_19 
ROOT
HETATM    1  C8  UNL     1      23.356   4.470  52.451  1.00  0.00     0.029 A 
HETATM    2  C9  UNL     1      22.004   4.454  52.191  1.00  0.00     0.031 A 
HETATM    3  C10 UNL     1      21.305   3.267  52.208  1.00  0.00     0.035 A 
HETATM    4  C11 UNL     1      22.017   2.126  52.493  1.00  0.00     0.072 A 
HETATM    5  N2  UNL     1      21.375   0.972  52.527  1.00  0.00    -0.241 NA
HETATM    6  C12 UNL     1      21.962  -0.198  52.800  1.00  0.00     0.235 A 
HETATM    7  N3  UNL     1      23.267  -0.255  53.059  1.00  0.00    -0.224 NA
HETATM    8  C13 UNL     1      24.030   0.861  53.054  1.00  0.00     0.138 A 
HETATM    9  C19 UNL     1      23.375   2.039  52.768  1.00  0.00     0.041 A 
HETATM   10  C20 UNL     1      23.992   3.278  52.728  1.00  0.00     0.046 A 
ENDROOT
BRANCH   1  11
HETATM   11  N1  UNL     1      24.045   5.714  52.425  1.00  0.00    -0.386 N 
HETATM   12  H8  UNL     1      24.584   5.998  53.274  1.00  0.00     0.160 HD
BRANCH  11  13
HETATM   13  C7  UNL     1      23.949   6.509  51.203  1.00  0.00     0.161 C 
BRANCH  13  14
HETATM   14  C6  UNL     1      25.097   6.316  50.304  1.00  0.00    -0.007 A 
HETATM   15  C1  UNL     1      25.790   7.498  50.013  1.00  0.00     0.073 A 
HETATM   16  C2  UNL     1      26.896   7.529  49.189  1.00  0.00     0.037 A 
HETATM   17  C3  UNL     1      27.285   6.314  48.662  1.00  0.00     0.003 A 
HETATM   18  C4  UNL     1      26.650   5.111  48.905  1.00  0.00     0.001 A 
HETATM   19  C5  UNL     1      25.539   5.131  49.741  1.00  0.00     0.011 A 
BRANCH  15  20
HETATM   20  O1  UNL     1      25.412   8.742  50.538  1.00  0.00    -0.360 OA
HETATM   21  H1  UNL     1      25.591   9.567  49.997  1.00  0.00     0.217 HD
ENDBRANCH  15  20
ENDBRANCH  13  14
ENDBRANCH  11  13
ENDBRANCH   1  11
BRANCH   8  22
HETATM   22  N4  UNL     1      25.419   0.870  53.323  1.00  0.00    -0.363 N 
HETATM   23  H12 UNL     1      25.893   0.561  52.421  1.00  0.00     0.162 HD
BRANCH  22  24
HETATM   24  C14 UNL     1      26.579   1.063  54.134  1.00  0.00     0.131 A 
HETATM   25  C15 UNL     1      27.449   2.203  53.682  1.00  0.00     0.004 A 
HETATM   26  C16 UNL     1      28.676   1.811  53.452  1.00  0.00     0.022 A 
HETATM   27  C17 UNL     1      28.776   0.381  53.719  1.00  0.00     0.032 A 
HETATM   28 CL1  UNL     1      30.076  -0.804  53.632  1.00  0.00    -0.085 Cl
HETATM   29  C18 UNL     1      27.571  -0.038  54.109  1.00  0.00     0.026 A 
ENDBRANCH  22  24
ENDBRANCH   8  22
TORSDOF 6
ENDMDL
MODEL 8
REMARK VINA RESULT:      -8.3      2.363      5.663
REMARK  6 active torsions:
REMARK  status: ('A' for Active; 'I' for Inactive)
REMARK    1  A    between atoms: O1_1  and  C1_2 
REMARK    2  A    between atoms: C6_7  and  C7_8 
REMARK    3  A    between atoms: C7_8  and  N1_9 
REMARK    4  A    between atoms: N1_9  and  C8_10 
REMARK    5  A    between atoms: C13_17  and  N4_18 
REMARK    6  A    between atoms: N4_18  and  C14_19 
ROOT
HETATM    1  C8  UNL     1      23.101   1.956  50.897  1.00  0.00     0.029 A 
HETATM    2  C9  UNL     1      21.760   1.698  50.722  1.00  0.00     0.031 A 
HETATM    3  C10 UNL     1      21.112   0.797  51.538  1.00  0.00     0.035 A 
HETATM    4  C11 UNL     1      21.862   0.184  52.513  1.00  0.00     0.072 A 
HETATM    5  N2  UNL     1      21.269  -0.679  53.319  1.00  0.00    -0.241 NA
HETATM    6  C12 UNL     1      21.896  -1.329  54.305  1.00  0.00     0.235 A 
HETATM    7  N3  UNL     1      23.193  -1.128  54.528  1.00  0.00    -0.224 NA
HETATM    8  C13 UNL     1      23.908  -0.267  53.768  1.00  0.00     0.138 A 
HETATM    9  C19 UNL     1      23.214   0.376  52.768  1.00  0.00     0.041 A 
HETATM   10  C20 UNL     1      23.778   1.297  51.901  1.00  0.00     0.046 A 
ENDROOT
BRANCH   1  11
HETATM   11  N1  UNL     1      23.737   2.894  50.037  1.00  0.00    -0.386 N 
HETATM   12  H8  UNL     1      23.825   2.654  49.023  1.00  0.00     0.160 HD
BRANCH  11  13
HETATM   13  C7  UNL     1      24.224   4.134  50.638  1.00  0.00     0.161 C 
BRANCH  13  14
HETATM   14  C6  UNL     1      25.251   4.800  49.823  1.00  0.00    -0.007 A 
HETATM   15  C1  UNL     1      26.407   4.032  49.635  1.00  0.00     0.073 A 
HETATM   16  C2  UNL     1      27.486   4.478  48.900  1.00  0.00     0.037 A 
HETATM   17  C3  UNL     1      27.359   5.739  48.354  1.00  0.00     0.003 A 
HETATM   18  C4  UNL     1      26.250   6.552  48.497  1.00  0.00     0.001 A 
HETATM   19  C5  UNL     1      25.188   6.058  49.248  1.00  0.00     0.011 A 
BRANCH  15  20
HETATM   20  O1  UNL     1      26.556   2.750  50.181  1.00  0.00    -0.360 OA
HETATM   21  H1  UNL     1      27.331   2.186  49.881  1.00  0.00     0.217 HD
ENDBRANCH  15  20
ENDBRANCH  13  14
ENDBRANCH  11  13
ENDBRANCH   1  11
BRANCH   8  22
HETATM   22  N4  UNL     1      25.287  -0.006  53.954  1.00  0.00    -0.363 N 
HETATM   23  H12 UNL     1      25.802  -0.740  53.381  1.00  0.00     0.162 HD
BRANCH  22  24
HETATM   24  C14 UNL     1      26.411   0.698  54.485  1.00  0.00     0.131 A 
HETATM   25  C15 UNL     1      26.758   1.944  53.720  1.00  0.00     0.004 A 
HETATM   26  C16 UNL     1      27.998   1.926  53.306  1.00  0.00     0.022 A 
HETATM   27  C17 UNL     1      28.625   0.682  53.736  1.00  0.00     0.032 A 
HETATM   28 CL1  UNL     1      30.228  -0.023  53.552  1.00  0.00    -0.085 Cl
HETATM   29  C18 UNL     1      27.708  -0.014  54.411  1.00  0.00     0.026 A 
ENDBRANCH  22  24
ENDBRANCH   8  22
TORSDOF 6
ENDMDL
MODEL 9
REMARK VINA RESULT:      -8.3      2.280      4.683
REMARK  6 active torsions:
REMARK  status: ('A' for Active; 'I' for Inactive)
REMARK    1  A    between atoms: O1_1  and  C1_2 
REMARK    2  A    between atoms: C6_7  and  C7_8 
REMARK    3  A    between atoms: C7_8  and  N1_9 
REMARK    4  A    between atoms: N1_9  and  C8_10 
REMARK    5  A    between atoms: C13_17  and  N4_18 
REMARK    6  A    between atoms: N4_18  and  C14_19 
ROOT
HETATM    1  C8  UNL     1      23.320  -0.502  53.909  1.00  0.00     0.029 A 
HETATM    2  C9  UNL     1      22.568  -1.257  54.781  1.00  0.00     0.031 A 
HETATM    3  C10 UNL     1      21.207  -1.377  54.603  1.00  0.00     0.035 A 
HETATM    4  C11 UNL     1      20.655  -0.715  53.532  1.00  0.00     0.072 A 
HETATM    5  N2  UNL     1      19.354  -0.816  53.328  1.00  0.00    -0.241 NA
HETATM    6  C12 UNL     1      18.711  -0.223  52.317  1.00  0.00     0.235 A 
HETATM    7  N3  UNL     1      19.377   0.524  51.438  1.00  0.00    -0.224 NA
HETATM    8  C13 UNL     1      20.713   0.702  51.544  1.00  0.00     0.138 A 
HETATM    9  C19 UNL     1      21.326   0.068  52.602  1.00  0.00     0.041 A 
HETATM   10  C20 UNL     1      22.685   0.129  52.860  1.00  0.00     0.046 A 
ENDROOT
BRANCH   1  11
HETATM   11  N1  UNL     1      24.723  -0.402  54.123  1.00  0.00    -0.386 N 
HETATM   12  H8  UNL     1      25.079  -0.457  55.104  1.00  0.00     0.160 HD
BRANCH  11  13
HETATM   13  C7  UNL     1      25.570  -0.229  52.945  1.00  0.00     0.161 C 
BRANCH  13  14
HETATM   14  C6  UNL     1      26.992  -0.483  53.222  1.00  0.00    -0.007 A 
HETATM   15  C1  UNL     1      27.617   0.539  53.947  1.00  0.00     0.073 A 
HETATM   16  C2  UNL     1      28.948   0.489  54.307  1.00  0.00     0.037 A 
HETATM   17  C3  UNL     1      29.636  -0.638  53.907  1.00  0.00     0.003 A 
HETATM   18  C4  UNL     1      29.086  -1.684  53.190  1.00  0.00     0.001 A 
HETATM   19  C5  UNL     1      27.741  -1.588  52.850  1.00  0.00     0.011 A 
BRANCH  15  20
HETATM   20  O1  UNL     1      26.937   1.691  54.363  1.00  0.00    -0.360 OA
HETATM   21  H1  UNL     1      27.339   2.250  55.094  1.00  0.00     0.217 HD
ENDBRANCH  15  20
ENDBRANCH  13  14
ENDBRANCH  11  13
ENDBRANCH   1  11
BRANCH   8  22
HETATM   22  N4  UNL     1      21.480   1.479  50.643  1.00  0.00    -0.363 N 
HETATM   23  H12 UNL     1      22.282   0.855  50.329  1.00  0.00     0.162 HD
BRANCH  22  24
HETATM   24  C14 UNL     1      21.800   2.654  49.895  1.00  0.00     0.131 A 
HETATM   25  C15 UNL     1      23.027   2.509  49.039  1.00  0.00     0.004 A 
HETATM   26  C16 UNL     1      23.915   3.429  49.311  1.00  0.00     0.022 A 
HETATM   27  C17 UNL     1      23.399   4.292  50.368  1.00  0.00     0.032 A 
HETATM   28 CL1  UNL     1      24.016   5.700  51.226  1.00  0.00    -0.085 Cl
HETATM   29  C18 UNL     1      22.187   3.839  50.695  1.00  0.00     0.026 A 
ENDBRANCH  22  24
ENDBRANCH   8  22
TORSDOF 6
ENDMDL
