MODEL 1
REMARK VINA RESULT:      -7.6      0.000      0.000
REMARK  8 active torsions:
REMARK  status: ('A' for Active; 'I' for Inactive)
REMARK    1  A    between atoms: O1_2  and  C2_3 
REMARK    2  A    between atoms: C2_3  and  C3_4 
REMARK    3  A    between atoms: C3_4  and  C4_5 
REMARK    4  A    between atoms: C7_8  and  N1_9 
REMARK    5  A    between atoms: N1_9  and  C8_10 
REMARK    6  A    between atoms: C12_14  and  O2_15 
REMARK    7  A    between atoms: O2_15  and  C13_16 
REMARK    8  A    between atoms: C13_16  and  O3_17 
ROOT
HETATM    1  C4  UNL     1      21.764   2.952  51.214  1.00  0.00     0.003 C 
HETATM    2  C5  UNL     1      22.942   3.614  51.039  1.00  0.00     0.024 C 
HETATM    3  C6  UNL     1      23.709   4.049  52.302  1.00  0.00     0.121 C 
HETATM    4  C7  UNL     1      24.518   2.694  52.368  1.00  0.00     0.184 C 
HETATM    5  N2  UNL     1      25.104   2.602  51.091  1.00  0.00    -0.245 NA
HETATM    6  C15 UNL     1      24.865   3.211  49.978  1.00  0.00     0.204 C 
HETATM    7  N3  UNL     1      23.576   3.890  49.760  1.00  0.00    -0.354 N 
HETATM    8  C16 UNL     1      23.357   1.753  52.657  1.00  0.00     0.131 C 
HETATM    9  C17 UNL     1      22.080   1.866  52.186  1.00  0.00     0.110 C 
HETATM   10  O4  UNL     1      20.935   1.131  52.442  1.00  0.00    -0.346 OA
HETATM   11  C18 UNL     1      21.120  -0.165  53.044  1.00  0.00     0.202 C 
HETATM   12  C19 UNL     1      22.620  -0.501  53.038  1.00  0.00     0.202 C 
HETATM   13  O5  UNL     1      23.383   0.612  53.451  1.00  0.00    -0.346 OA
HETATM   14  H19 UNL     1      22.868   4.438  49.192  1.00  0.00     0.166 HD
ENDROOT
BRANCH   4  15
HETATM   15  N1  UNL     1      25.382   2.669  53.488  1.00  0.00    -0.356 N 
HETATM   16  H10 UNL     1      25.109   3.257  54.323  1.00  0.00     0.162 HD
BRANCH  15  17
HETATM   17  C8  UNL     1      26.574   1.920  53.568  1.00  0.00     0.032 A 
HETATM   18  C9  UNL     1      27.809   2.525  53.614  1.00  0.00     0.029 A 
HETATM   19  C10 UNL     1      28.970   1.799  53.690  1.00  0.00     0.005 A 
HETATM   20  C11 UNL     1      28.909   0.422  53.723  1.00  0.00     0.037 A 
HETATM   21  C12 UNL     1      27.699  -0.246  53.681  1.00  0.00     0.073 A 
HETATM   22  C14 UNL     1      26.571   0.544  53.605  1.00  0.00     0.066 A 
BRANCH  21  23
HETATM   23  O2  UNL     1      27.499  -1.614  53.708  1.00  0.00    -0.326 OA
BRANCH  23  24
HETATM   24  C13 UNL     1      27.714  -2.487  52.642  1.00  0.00     0.341 C 
BRANCH  24  25
HETATM   25  O3  UNL     1      28.522  -3.523  53.056  1.00  0.00    -0.377 OA
HETATM   26  H16 UNL     1      28.202  -3.873  53.917  1.00  0.00     0.212 HD
ENDBRANCH  24  25
ENDBRANCH  23  24
ENDBRANCH  21  23
ENDBRANCH  15  17
ENDBRANCH   4  15
BRANCH   1  27
HETATM   27  C3  UNL     1      20.625   3.380  50.403  1.00  0.00     0.070 C 
BRANCH  27  28
HETATM   28  C2  UNL     1      19.656   4.265  51.112  1.00  0.00     0.171 C 
BRANCH  28  29
HETATM   29  O1  UNL     1      18.808   3.696  52.023  1.00  0.00    -0.396 OA
HETATM   30  C1  UNL     1      17.868   2.839  51.543  1.00  0.00     0.201 C 
ENDBRANCH  28  29
ENDBRANCH  27  28
ENDBRANCH   1  27
TORSDOF 8
ENDMDL
MODEL 2
REMARK VINA RESULT:      -7.4      3.689      5.873
REMARK  8 active torsions:
REMARK  status: ('A' for Active; 'I' for Inactive)
REMARK    1  A    between atoms: O1_2  and  C2_3 
REMARK    2  A    between atoms: C2_3  and  C3_4 
REMARK    3  A    between atoms: C3_4  and  C4_5 
REMARK    4  A    between atoms: C7_8  and  N1_9 
REMARK    5  A    between atoms: N1_9  and  C8_10 
REMARK    6  A    between atoms: C12_14  and  O2_15 
REMARK    7  A    between atoms: O2_15  and  C13_16 
REMARK    8  A    between atoms: C13_16  and  O3_17 
ROOT
HETATM    1  C4  UNL     1      22.384   1.137  51.435  1.00  0.00     0.003 C 
HETATM    2  C5  UNL     1      22.148   2.228  50.654  1.00  0.00     0.024 C 
HETATM    3  C6  UNL     1      22.544   3.606  51.216  1.00  0.00     0.121 C 
HETATM    4  C7  UNL     1      23.997   3.522  50.601  1.00  0.00     0.184 C 
HETATM    5  N2  UNL     1      23.759   3.274  49.236  1.00  0.00    -0.245 NA
HETATM    6  C15 UNL     1      22.712   2.876  48.593  1.00  0.00     0.204 C 
HETATM    7  N3  UNL     1      21.612   2.201  49.302  1.00  0.00    -0.354 N 
HETATM    8  C16 UNL     1      24.523   2.355  51.427  1.00  0.00     0.131 C 
HETATM    9  C17 UNL     1      23.806   1.277  51.862  1.00  0.00     0.110 C 
HETATM   10  O4  UNL     1      24.150   0.211  52.677  1.00  0.00    -0.346 OA
HETATM   11  C18 UNL     1      25.557  -0.027  52.871  1.00  0.00     0.202 C 
HETATM   12  C19 UNL     1      26.346   0.865  51.899  1.00  0.00     0.202 C 
HETATM   13  O5  UNL     1      25.822   2.176  51.887  1.00  0.00    -0.346 OA
HETATM   14  H19 UNL     1      20.678   1.702  49.365  1.00  0.00     0.166 HD
ENDROOT
BRANCH   4  15
HETATM   15  N1  UNL     1      24.760   4.665  50.935  1.00  0.00    -0.356 N 
HETATM   16  H10 UNL     1      24.599   5.092  51.889  1.00  0.00     0.162 HD
BRANCH  15  17
HETATM   17  C8  UNL     1      25.715   5.270  50.092  1.00  0.00     0.032 A 
HETATM   18  C9  UNL     1      26.620   4.526  49.371  1.00  0.00     0.029 A 
HETATM   19  C10 UNL     1      27.550   5.111  48.551  1.00  0.00     0.005 A 
HETATM   20  C11 UNL     1      27.588   6.485  48.439  1.00  0.00     0.037 A 
HETATM   21  C12 UNL     1      26.704   7.289  49.137  1.00  0.00     0.073 A 
HETATM   22  C14 UNL     1      25.795   6.636  49.942  1.00  0.00     0.066 A 
BRANCH  21  23
HETATM   23  O2  UNL     1      26.635   8.670  49.113  1.00  0.00    -0.326 OA
BRANCH  23  24
HETATM   24  C13 UNL     1      27.546   9.539  49.712  1.00  0.00     0.341 C 
BRANCH  24  25
HETATM   25  O3  UNL     1      27.497   9.381  51.080  1.00  0.00    -0.377 OA
HETATM   26  H16 UNL     1      28.082  10.040  51.514  1.00  0.00     0.212 HD
ENDBRANCH  24  25
ENDBRANCH  23  24
ENDBRANCH  21  23
ENDBRANCH  15  17
ENDBRANCH   4  15
BRANCH   1  27
HETATM   27  C3  UNL     1      21.310   0.153  51.560  1.00  0.00     0.070 C 
BRANCH  27  28
HETATM   28  C2  UNL     1      20.451   0.322  52.768  1.00  0.00     0.171 C 
BRANCH  28  29
HETATM   29  O1  UNL     1      21.041   0.231  53.999  1.00  0.00    -0.396 OA
HETATM   30  C1  UNL     1      21.312  -1.017  54.465  1.00  0.00     0.201 C 
ENDBRANCH  28  29
ENDBRANCH  27  28
ENDBRANCH   1  27
TORSDOF 8
ENDMDL
MODEL 3
REMARK VINA RESULT:      -7.4      3.240      5.511
REMARK  8 active torsions:
REMARK  status: ('A' for Active; 'I' for Inactive)
REMARK    1  A    between atoms: O1_2  and  C2_3 
REMARK    2  A    between atoms: C2_3  and  C3_4 
REMARK    3  A    between atoms: C3_4  and  C4_5 
REMARK    4  A    between atoms: C7_8  and  N1_9 
REMARK    5  A    between atoms: N1_9  and  C8_10 
REMARK    6  A    between atoms: C12_14  and  O2_15 
REMARK    7  A    between atoms: O2_15  and  C13_16 
REMARK    8  A    between atoms: C13_16  and  O3_17 
ROOT
HETATM    1  C4  UNL     1      23.269   0.358  52.897  1.00  0.00     0.003 C 
HETATM    2  C5  UNL     1      22.568   1.250  52.142  1.00  0.00     0.024 C 
HETATM    3  C6  UNL     1      22.703   2.743  52.496  1.00  0.00     0.121 C 
HETATM    4  C7  UNL     1      23.934   2.939  51.526  1.00  0.00     0.184 C 
HETATM    5  N2  UNL     1      23.452   2.469  50.289  1.00  0.00    -0.245 NA
HETATM    6  C15 UNL     1      22.428   1.750  49.971  1.00  0.00     0.204 C 
HETATM    7  N3  UNL     1      21.752   0.922  50.985  1.00  0.00    -0.354 N 
HETATM    8  C16 UNL     1      24.936   2.050  52.250  1.00  0.00     0.131 C 
HETATM    9  C17 UNL     1      24.661   0.894  52.924  1.00  0.00     0.110 C 
HETATM   10  O4  UNL     1      25.462   0.056  53.681  1.00  0.00    -0.346 OA
HETATM   11  C18 UNL     1      26.886   0.195  53.510  1.00  0.00     0.202 C 
HETATM   12  C19 UNL     1      27.150   1.122  52.313  1.00  0.00     0.202 C 
HETATM   13  O5  UNL     1      26.306   2.253  52.361  1.00  0.00    -0.346 OA
HETATM   14  H19 UNL     1      21.030   0.222  51.322  1.00  0.00     0.166 HD
ENDROOT
BRANCH   4  15
HETATM   15  N1  UNL     1      24.419   4.266  51.577  1.00  0.00    -0.356 N 
HETATM   16  H10 UNL     1      24.418   4.745  52.520  1.00  0.00     0.162 HD
BRANCH  15  17
HETATM   17  C8  UNL     1      24.902   4.991  50.467  1.00  0.00     0.032 A 
HETATM   18  C9  UNL     1      24.181   6.019  49.904  1.00  0.00     0.029 A 
HETATM   19  C10 UNL     1      24.646   6.724  48.824  1.00  0.00     0.005 A 
HETATM   20  C11 UNL     1      25.871   6.402  48.280  1.00  0.00     0.037 A 
HETATM   21  C12 UNL     1      26.644   5.380  48.801  1.00  0.00     0.073 A 
HETATM   22  C14 UNL     1      26.117   4.712  49.886  1.00  0.00     0.066 A 
BRANCH  21  23
HETATM   23  O2  UNL     1      27.883   4.959  48.352  1.00  0.00    -0.326 OA
BRANCH  23  24
HETATM   24  C13 UNL     1      29.026   5.752  48.260  1.00  0.00     0.341 C 
BRANCH  24  25
HETATM   25  O3  UNL     1      29.852   5.488  49.331  1.00  0.00    -0.377 OA
HETATM   26  H16 UNL     1      30.363   6.295  49.565  1.00  0.00     0.212 HD
ENDBRANCH  24  25
ENDBRANCH  23  24
ENDBRANCH  21  23
ENDBRANCH  15  17
ENDBRANCH   4  15
BRANCH   1  27
HETATM   27  C3  UNL     1      22.560  -0.835  53.360  1.00  0.00     0.070 C 
BRANCH  27  28
HETATM   28  C2  UNL     1      21.390  -0.557  54.242  1.00  0.00     0.171 C 
BRANCH  28  29
HETATM   29  O1  UNL     1      20.226  -1.235  54.005  1.00  0.00    -0.396 OA
HETATM   30  C1  UNL     1      19.284  -0.605  53.254  1.00  0.00     0.201 C 
ENDBRANCH  28  29
ENDBRANCH  27  28
ENDBRANCH   1  27
TORSDOF 8
ENDMDL
MODEL 4
REMARK VINA RESULT:      -7.2      1.683      7.737
REMARK  8 active torsions:
REMARK  status: ('A' for Active; 'I' for Inactive)
REMARK    1  A    between atoms: O1_2  and  C2_3 
REMARK    2  A    between atoms: C2_3  and  C3_4 
REMARK    3  A    between atoms: C3_4  and  C4_5 
REMARK    4  A    between atoms: C7_8  and  N1_9 
REMARK    5  A    between atoms: N1_9  and  C8_10 
REMARK    6  A    between atoms: C12_14  and  O2_15 
REMARK    7  A    between atoms: O2_15  and  C13_16 
REMARK    8  A    between atoms: C13_16  and  O3_17 
ROOT
HETATM    1  C4  UNL     1      24.722   0.946  53.281  1.00  0.00     0.003 C 
HETATM    2  C5  UNL     1      24.523   2.003  52.444  1.00  0.00     0.024 C 
HETATM    3  C6  UNL     1      23.751   1.739  51.137  1.00  0.00     0.121 C 
HETATM    4  C7  UNL     1      22.357   2.051  51.810  1.00  0.00     0.184 C 
HETATM    5  N2  UNL     1      22.541   3.332  52.364  1.00  0.00    -0.245 NA
HETATM    6  C15 UNL     1      23.600   4.028  52.613  1.00  0.00     0.204 C 
HETATM    7  N3  UNL     1      24.917   3.377  52.707  1.00  0.00    -0.354 N 
HETATM    8  C16 UNL     1      22.311   0.884  52.786  1.00  0.00     0.131 C 
HETATM    9  C17 UNL     1      23.375   0.326  53.438  1.00  0.00     0.110 C 
HETATM   10  O4  UNL     1      23.469  -0.775  54.273  1.00  0.00    -0.346 OA
HETATM   11  C18 UNL     1      22.237  -1.264  54.839  1.00  0.00     0.202 C 
HETATM   12  C19 UNL     1      21.120  -0.255  54.533  1.00  0.00     0.202 C 
HETATM   13  O5  UNL     1      21.187   0.174  53.190  1.00  0.00    -0.346 OA
HETATM   14  H19 UNL     1      25.964   3.356  52.876  1.00  0.00     0.166 HD
ENDROOT
BRANCH   4  15
HETATM   15  N1  UNL     1      21.296   1.883  50.889  1.00  0.00    -0.356 N 
HETATM   16  H10 UNL     1      21.299   1.003  50.303  1.00  0.00     0.162 HD
BRANCH  15  17
HETATM   17  C8  UNL     1      20.242   2.801  50.698  1.00  0.00     0.032 A 
HETATM   18  C9  UNL     1      20.270   3.736  49.688  1.00  0.00     0.029 A 
HETATM   19  C10 UNL     1      19.247   4.631  49.501  1.00  0.00     0.005 A 
HETATM   20  C11 UNL     1      18.156   4.601  50.344  1.00  0.00     0.037 A 
HETATM   21  C12 UNL     1      18.069   3.685  51.377  1.00  0.00     0.073 A 
HETATM   22  C14 UNL     1      19.130   2.815  51.508  1.00  0.00     0.066 A 
BRANCH  21  23
HETATM   23  O2  UNL     1      17.036   3.549  52.286  1.00  0.00    -0.326 OA
BRANCH  23  24
HETATM   24  C13 UNL     1      15.916   4.376  52.373  1.00  0.00     0.341 C 
BRANCH  24  25
HETATM   25  O3  UNL     1      15.487   4.426  53.681  1.00  0.00    -0.377 OA
HETATM   26  H16 UNL     1      14.531   4.204  53.728  1.00  0.00     0.212 HD
ENDBRANCH  24  25
ENDBRANCH  23  24
ENDBRANCH  21  23
ENDBRANCH  15  17
ENDBRANCH   4  15
BRANCH   1  27
HETATM   27  C3  UNL     1      26.064   0.770  53.834  1.00  0.00     0.070 C 
BRANCH  27  28
HETATM   28  C2  UNL     1      26.773  -0.456  53.365  1.00  0.00     0.171 C 
BRANCH  28  29
HETATM   29  O1  UNL     1      27.831  -0.914  54.100  1.00  0.00    -0.396 OA
HETATM   30  C1  UNL     1      28.669   0.019  54.626  1.00  0.00     0.201 C 
ENDBRANCH  28  29
ENDBRANCH  27  28
ENDBRANCH   1  27
TORSDOF 8
ENDMDL
MODEL 5
REMARK VINA RESULT:      -7.2      2.875      6.068
REMARK  8 active torsions:
REMARK  status: ('A' for Active; 'I' for Inactive)
REMARK    1  A    between atoms: O1_2  and  C2_3 
REMARK    2  A    between atoms: C2_3  and  C3_4 
REMARK    3  A    between atoms: C3_4  and  C4_5 
REMARK    4  A    between atoms: C7_8  and  N1_9 
REMARK    5  A    between atoms: N1_9  and  C8_10 
REMARK    6  A    between atoms: C12_14  and  O2_15 
REMARK    7  A    between atoms: O2_15  and  C13_16 
REMARK    8  A    between atoms: C13_16  and  O3_17 
ROOT
HETATM    1  C4  UNL     1      25.018   4.407  50.258  1.00  0.00     0.003 C 
HETATM    2  C5  UNL     1      23.669   4.450  50.075  1.00  0.00     0.024 C 
HETATM    3  C6  UNL     1      23.008   3.248  49.373  1.00  0.00     0.121 C 
HETATM    4  C7  UNL     1      22.765   2.490  50.738  1.00  0.00     0.184 C 
HETATM    5  N2  UNL     1      22.058   3.430  51.511  1.00  0.00    -0.245 NA
HETATM    6  C15 UNL     1      21.881   4.703  51.387  1.00  0.00     0.204 C 
HETATM    7  N3  UNL     1      22.784   5.504  50.543  1.00  0.00    -0.354 N 
HETATM    8  C16 UNL     1      24.218   2.245  51.121  1.00  0.00     0.131 C 
HETATM    9  C17 UNL     1      25.276   3.075  50.877  1.00  0.00     0.110 C 
HETATM   10  O4  UNL     1      26.634   2.925  51.100  1.00  0.00    -0.346 OA
HETATM   11  C18 UNL     1      27.028   1.889  52.020  1.00  0.00     0.202 C 
HETATM   12  C19 UNL     1      25.771   1.346  52.717  1.00  0.00     0.202 C 
HETATM   13  O5  UNL     1      24.733   1.137  51.784  1.00  0.00    -0.346 OA
HETATM   14  H19 UNL     1      23.146   6.405  50.116  1.00  0.00     0.166 HD
ENDROOT
BRANCH   4  15
HETATM   15  N1  UNL     1      22.158   1.231  50.523  1.00  0.00    -0.356 N 
HETATM   16  H10 UNL     1      22.411   0.718  49.633  1.00  0.00     0.162 HD
BRANCH  15  17
HETATM   17  C8  UNL     1      21.246   0.615  51.405  1.00  0.00     0.032 A 
HETATM   18  C9  UNL     1      19.897   0.568  51.135  1.00  0.00     0.029 A 
HETATM   19  C10 UNL     1      19.008  -0.029  51.991  1.00  0.00     0.005 A 
HETATM   20  C11 UNL     1      19.468  -0.601  53.159  1.00  0.00     0.037 A 
HETATM   21  C12 UNL     1      20.812  -0.587  53.486  1.00  0.00     0.073 A 
HETATM   22  C14 UNL     1      21.651   0.028  52.581  1.00  0.00     0.066 A 
BRANCH  21  23
HETATM   23  O2  UNL     1      21.400  -1.122  54.617  1.00  0.00    -0.326 OA
BRANCH  23  24
HETATM   24  C13 UNL     1      22.772  -1.229  54.846  1.00  0.00     0.341 C 
BRANCH  24  25
HETATM   25  O3  UNL     1      22.987  -1.933  56.010  1.00  0.00    -0.377 OA
HETATM   26  H16 UNL     1      23.521  -1.393  56.634  1.00  0.00     0.212 HD
ENDBRANCH  24  25
ENDBRANCH  23  24
ENDBRANCH  21  23
ENDBRANCH  15  17
ENDBRANCH   4  15
BRANCH   1  27
HETATM   27  C3  UNL     1      25.781   5.609  49.922  1.00  0.00     0.070 C 
BRANCH  27  28
HETATM   28  C2  UNL     1      26.461   5.560  48.594  1.00  0.00     0.171 C 
BRANCH  28  29
HETATM   29  O1  UNL     1      27.628   4.856  48.490  1.00  0.00    -0.396 OA
HETATM   30  C1  UNL     1      28.775   5.574  48.358  1.00  0.00     0.201 C 
ENDBRANCH  28  29
ENDBRANCH  27  28
ENDBRANCH   1  27
TORSDOF 8
ENDMDL
MODEL 6
REMARK VINA RESULT:      -7.2      2.012      3.117
REMARK  8 active torsions:
REMARK  status: ('A' for Active; 'I' for Inactive)
REMARK    1  A    between atoms: O1_2  and  C2_3 
REMARK    2  A    between atoms: C2_3  and  C3_4 
REMARK    3  A    between atoms: C3_4  and  C4_5 
REMARK    4  A    between atoms: C7_8  and  N1_9 
REMARK    5  A    between atoms: N1_9  and  C8_10 
REMARK    6  A    between atoms: C12_14  and  O2_15 
REMARK    7  A    between atoms: O2_15  and  C13_16 
REMARK    8  A    between atoms: C13_16  and  O3_17 
ROOT
HETATM    1  C4  UNL     1      20.727   2.265  51.951  1.00  0.00     0.003 C 
HETATM    2  C5  UNL     1      21.331   1.074  52.220  1.00  0.00     0.024 C 
HETATM    3  C6  UNL     1      22.458   0.618  51.272  1.00  0.00     0.121 C 
HETATM    4  C7  UNL     1      23.571   1.339  52.129  1.00  0.00     0.184 C 
HETATM    5  N2  UNL     1      23.378   0.816  53.422  1.00  0.00    -0.245 NA
HETATM    6  C15 UNL     1      22.397   0.175  53.963  1.00  0.00     0.204 C 
HETATM    7  N3  UNL     1      21.052   0.222  53.364  1.00  0.00    -0.354 N 
HETATM    8  C16 UNL     1      23.133   2.779  51.901  1.00  0.00     0.131 C 
HETATM    9  C17 UNL     1      21.850   3.229  51.769  1.00  0.00     0.110 C 
HETATM   10  O4  UNL     1      21.338   4.483  51.481  1.00  0.00    -0.346 OA
HETATM   11  C18 UNL     1      22.233   5.600  51.648  1.00  0.00     0.202 C 
HETATM   12  C19 UNL     1      23.508   5.109  52.350  1.00  0.00     0.202 C 
HETATM   13  O5  UNL     1      23.954   3.894  51.784  1.00  0.00    -0.346 OA
HETATM   14  H19 UNL     1      20.016  -0.001  53.320  1.00  0.00     0.166 HD
ENDROOT
BRANCH   4  15
HETATM   15  N1  UNL     1      24.849   1.180  51.543  1.00  0.00    -0.356 N 
HETATM   16  H10 UNL     1      24.891   1.091  50.490  1.00  0.00     0.162 HD
BRANCH  15  17
HETATM   17  C8  UNL     1      26.063   1.132  52.260  1.00  0.00     0.032 A 
HETATM   18  C9  UNL     1      26.795   2.268  52.521  1.00  0.00     0.029 A 
HETATM   19  C10 UNL     1      27.977   2.225  53.216  1.00  0.00     0.005 A 
HETATM   20  C11 UNL     1      28.453   1.013  53.671  1.00  0.00     0.037 A 
HETATM   21  C12 UNL     1      27.763  -0.163  53.442  1.00  0.00     0.073 A 
HETATM   22  C14 UNL     1      26.583  -0.049  52.738  1.00  0.00     0.066 A 
BRANCH  21  23
HETATM   23  O2  UNL     1      28.127  -1.436  53.843  1.00  0.00    -0.326 OA
BRANCH  23  24
HETATM   24  C13 UNL     1      29.028  -2.269  53.182  1.00  0.00     0.341 C 
BRANCH  24  25
HETATM   25  O3  UNL     1      28.406  -3.458  52.869  1.00  0.00    -0.377 OA
HETATM   26  H16 UNL     1      28.908  -4.210  53.255  1.00  0.00     0.212 HD
ENDBRANCH  24  25
ENDBRANCH  23  24
ENDBRANCH  21  23
ENDBRANCH  15  17
ENDBRANCH   4  15
BRANCH   1  27
HETATM   27  C3  UNL     1      19.265   2.304  52.003  1.00  0.00     0.070 C 
BRANCH  27  28
HETATM   28  C2  UNL     1      18.588   1.204  51.256  1.00  0.00     0.171 C 
BRANCH  28  29
HETATM   29  O1  UNL     1      17.550   0.554  51.863  1.00  0.00    -0.396 OA
HETATM   30  C1  UNL     1      17.726  -0.765  52.145  1.00  0.00     0.201 C 
ENDBRANCH  28  29
ENDBRANCH  27  28
ENDBRANCH   1  27
TORSDOF 8
ENDMDL
MODEL 7
REMARK VINA RESULT:      -7.2      2.285      7.105
REMARK  8 active torsions:
REMARK  status: ('A' for Active; 'I' for Inactive)
REMARK    1  A    between atoms: O1_2  and  C2_3 
REMARK    2  A    between atoms: C2_3  and  C3_4 
REMARK    3  A    between atoms: C3_4  and  C4_5 
REMARK    4  A    between atoms: C7_8  and  N1_9 
REMARK    5  A    between atoms: N1_9  and  C8_10 
REMARK    6  A    between atoms: C12_14  and  O2_15 
REMARK    7  A    between atoms: O2_15  and  C13_16 
REMARK    8  A    between atoms: C13_16  and  O3_17 
ROOT
HETATM    1  C4  UNL     1      25.353   1.691  53.206  1.00  0.00     0.003 C 
HETATM    2  C5  UNL     1      24.669   2.428  52.286  1.00  0.00     0.024 C 
HETATM    3  C6  UNL     1      24.134   1.693  51.041  1.00  0.00     0.121 C 
HETATM    4  C7  UNL     1      22.761   1.351  51.742  1.00  0.00     0.184 C 
HETATM    5  N2  UNL     1      22.291   2.607  52.170  1.00  0.00    -0.245 NA
HETATM    6  C15 UNL     1      22.872   3.752  52.310  1.00  0.00     0.204 C 
HETATM    7  N3  UNL     1      24.339   3.838  52.407  1.00  0.00    -0.354 N 
HETATM    8  C16 UNL     1      23.285   0.413  52.820  1.00  0.00     0.131 C 
HETATM    9  C17 UNL     1      24.481   0.512  53.474  1.00  0.00     0.110 C 
HETATM   10  O4  UNL     1      25.095  -0.314  54.401  1.00  0.00    -0.346 OA
HETATM   11  C18 UNL     1      24.256  -1.282  55.060  1.00  0.00     0.202 C 
HETATM   12  C19 UNL     1      22.790  -0.982  54.712  1.00  0.00     0.202 C 
HETATM   13  O5  UNL     1      22.648  -0.710  53.334  1.00  0.00    -0.346 OA
HETATM   14  H19 UNL     1      25.261   4.347  52.533  1.00  0.00     0.166 HD
ENDROOT
BRANCH   4  15
HETATM   15  N1  UNL     1      21.925   0.597  50.885  1.00  0.00    -0.356 N 
HETATM   16  H10 UNL     1      22.367  -0.212  50.367  1.00  0.00     0.162 HD
BRANCH  15  17
HETATM   17  C8  UNL     1      20.552   0.846  50.676  1.00  0.00     0.032 A 
HETATM   18  C9  UNL     1      20.112   1.663  49.659  1.00  0.00     0.029 A 
HETATM   19  C10 UNL     1      18.778   1.909  49.453  1.00  0.00     0.005 A 
HETATM   20  C11 UNL     1      17.844   1.326  50.283  1.00  0.00     0.037 A 
HETATM   21  C12 UNL     1      18.223   0.494  51.322  1.00  0.00     0.073 A 
HETATM   22  C14 UNL     1      19.578   0.289  51.472  1.00  0.00     0.066 A 
BRANCH  21  23
HETATM   23  O2  UNL     1      17.393  -0.151  52.220  1.00  0.00    -0.326 OA
BRANCH  23  24
HETATM   24  C13 UNL     1      17.627  -1.403  52.788  1.00  0.00     0.341 C 
BRANCH  24  25
HETATM   25  O3  UNL     1      17.586  -1.296  54.161  1.00  0.00    -0.377 OA
HETATM   26  H16 UNL     1      18.457  -1.547  54.541  1.00  0.00     0.212 HD
ENDBRANCH  24  25
ENDBRANCH  23  24
ENDBRANCH  21  23
ENDBRANCH  15  17
ENDBRANCH   4  15
BRANCH   1  27
HETATM   27  C3  UNL     1      26.606   2.248  53.715  1.00  0.00     0.070 C 
BRANCH  27  28
HETATM   28  C2  UNL     1      27.835   1.704  53.068  1.00  0.00     0.171 C 
BRANCH  28  29
HETATM   29  O1  UNL     1      28.268   0.462  53.441  1.00  0.00    -0.396 OA
HETATM   30  C1  UNL     1      28.588   0.285  54.751  1.00  0.00     0.201 C 
ENDBRANCH  28  29
ENDBRANCH  27  28
ENDBRANCH   1  27
TORSDOF 8
ENDMDL
MODEL 8
REMARK VINA RESULT:      -7.2      2.456      3.916
REMARK  8 active torsions:
REMARK  status: ('A' for Active; 'I' for Inactive)
REMARK    1  A    between atoms: O1_2  and  C2_3 
REMARK    2  A    between atoms: C2_3  and  C3_4 
REMARK    3  A    between atoms: C3_4  and  C4_5 
REMARK    4  A    between atoms: C7_8  and  N1_9 
REMARK    5  A    between atoms: N1_9  and  C8_10 
REMARK    6  A    between atoms: C12_14  and  O2_15 
REMARK    7  A    between atoms: O2_15  and  C13_16 
REMARK    8  A    between atoms: C13_16  and  O3_17 
ROOT
HETATM    1  C4  UNL     1      19.466   0.234  51.938  1.00  0.00     0.003 C 
HETATM    2  C5  UNL     1      19.805   1.137  50.976  1.00  0.00     0.024 C 
HETATM    3  C6  UNL     1      20.419   2.473  51.438  1.00  0.00     0.121 C 
HETATM    4  C7  UNL     1      21.891   1.902  51.374  1.00  0.00     0.184 C 
HETATM    5  N2  UNL     1      21.993   1.408  50.060  1.00  0.00    -0.245 NA
HETATM    6  C15 UNL     1      21.106   1.134  49.162  1.00  0.00     0.204 C 
HETATM    7  N3  UNL     1      19.698   0.926  49.541  1.00  0.00    -0.354 N 
HETATM    8  C16 UNL     1      21.781   0.869  52.487  1.00  0.00     0.131 C 
HETATM    9  C17 UNL     1      20.678   0.125  52.800  1.00  0.00     0.110 C 
HETATM   10  O4  UNL     1      20.434  -0.772  53.826  1.00  0.00    -0.346 OA
HETATM   11  C18 UNL     1      21.586  -1.289  54.521  1.00  0.00     0.202 C 
HETATM   12  C19 UNL     1      22.851  -0.863  53.760  1.00  0.00     0.202 C 
HETATM   13  O5  UNL     1      22.774   0.495  53.383  1.00  0.00    -0.346 OA
HETATM   14  H19 UNL     1      18.681   0.694  49.353  1.00  0.00     0.166 HD
ENDROOT
BRANCH   4  15
HETATM   15  N1  UNL     1      22.834   2.875  51.782  1.00  0.00    -0.356 N 
HETATM   16  H10 UNL     1      22.567   3.495  52.596  1.00  0.00     0.162 HD
BRANCH  15  17
HETATM   17  C8  UNL     1      24.096   3.073  51.184  1.00  0.00     0.032 A 
HETATM   18  C9  UNL     1      24.232   3.726  49.980  1.00  0.00     0.029 A 
HETATM   19  C10 UNL     1      25.457   3.920  49.395  1.00  0.00     0.005 A 
HETATM   20  C11 UNL     1      26.591   3.451  50.023  1.00  0.00     0.037 A 
HETATM   21  C12 UNL     1      26.521   2.788  51.235  1.00  0.00     0.073 A 
HETATM   22  C14 UNL     1      25.259   2.628  51.768  1.00  0.00     0.066 A 
BRANCH  21  23
HETATM   23  O2  UNL     1      27.575   2.272  51.967  1.00  0.00    -0.326 OA
BRANCH  23  24
HETATM   24  C13 UNL     1      27.513   1.849  53.294  1.00  0.00     0.341 C 
BRANCH  24  25
HETATM   25  O3  UNL     1      28.050   2.822  54.108  1.00  0.00    -0.377 OA
HETATM   26  H16 UNL     1      29.031   2.801  54.052  1.00  0.00     0.212 HD
ENDBRANCH  24  25
ENDBRANCH  23  24
ENDBRANCH  21  23
ENDBRANCH  15  17
ENDBRANCH   4  15
BRANCH   1  27
HETATM   27  C3  UNL     1      18.156  -0.407  51.828  1.00  0.00     0.070 C 
BRANCH  27  28
HETATM   28  C2  UNL     1      17.018   0.537  51.634  1.00  0.00     0.171 C 
BRANCH  28  29
HETATM   29  O1  UNL     1      16.546   0.730  50.365  1.00  0.00    -0.396 OA
HETATM   30  C1  UNL     1      15.495   1.580  50.217  1.00  0.00     0.201 C 
ENDBRANCH  28  29
ENDBRANCH  27  28
ENDBRANCH   1  27
TORSDOF 8
ENDMDL
MODEL 9
REMARK VINA RESULT:      -7.0      2.505      6.939
REMARK  8 active torsions:
REMARK  status: ('A' for Active; 'I' for Inactive)
REMARK    1  A    between atoms: O1_2  and  C2_3 
REMARK    2  A    between atoms: C2_3  and  C3_4 
REMARK    3  A    between atoms: C3_4  and  C4_5 
REMARK    4  A    between atoms: C7_8  and  N1_9 
REMARK    5  A    between atoms: N1_9  and  C8_10 
REMARK    6  A    between atoms: C12_14  and  O2_15 
REMARK    7  A    between atoms: O2_15  and  C13_16 
REMARK    8  A    between atoms: C13_16  and  O3_17 
ROOT
HETATM    1  C4  UNL     1      24.506   0.130  53.536  1.00  0.00     0.003 C 
HETATM    2  C5  UNL     1      24.800   1.306  52.914  1.00  0.00     0.024 C 
HETATM    3  C6  UNL     1      24.204   1.538  51.512  1.00  0.00     0.121 C 
HETATM    4  C7  UNL     1      22.899   2.210  52.096  1.00  0.00     0.184 C 
HETATM    5  N2  UNL     1      23.401   3.241  52.912  1.00  0.00    -0.245 NA
HETATM    6  C15 UNL     1      24.574   3.474  53.398  1.00  0.00     0.204 C 
HETATM    7  N3  UNL     1      25.574   2.396  53.485  1.00  0.00    -0.354 N 
HETATM    8  C16 UNL     1      22.320   0.995  52.808  1.00  0.00     0.131 C 
HETATM    9  C17 UNL     1      23.024   0.005  53.434  1.00  0.00     0.110 C 
HETATM   10  O4  UNL     1      22.619  -1.174  54.035  1.00  0.00    -0.346 OA
HETATM   11  C18 UNL     1      21.221  -1.283  54.369  1.00  0.00     0.202 C 
HETATM   12  C19 UNL     1      20.559   0.089  54.167  1.00  0.00     0.202 C 
HETATM   13  O5  UNL     1      20.976   0.671  52.950  1.00  0.00    -0.346 OA
HETATM   14  H19 UNL     1      26.515   1.983  53.747  1.00  0.00     0.166 HD
ENDROOT
BRANCH   4  15
HETATM   15  N1  UNL     1      22.004   2.570  51.062  1.00  0.00    -0.356 N 
HETATM   16  H10 UNL     1      21.088   2.043  51.009  1.00  0.00     0.162 HD
BRANCH  15  17
HETATM   17  C8  UNL     1      22.244   3.576  50.104  1.00  0.00     0.032 A 
HETATM   18  C9  UNL     1      22.479   3.276  48.781  1.00  0.00     0.029 A 
HETATM   19  C10 UNL     1      22.714   4.252  47.847  1.00  0.00     0.005 A 
HETATM   20  C11 UNL     1      22.717   5.576  48.234  1.00  0.00     0.037 A 
HETATM   21  C12 UNL     1      22.486   5.942  49.547  1.00  0.00     0.073 A 
HETATM   22  C14 UNL     1      22.256   4.912  50.434  1.00  0.00     0.066 A 
BRANCH  21  23
HETATM   23  O2  UNL     1      22.460   7.225  50.063  1.00  0.00    -0.326 OA
BRANCH  23  24
HETATM   24  C13 UNL     1      23.577   8.005  50.360  1.00  0.00     0.341 C 
BRANCH  24  25
HETATM   25  O3  UNL     1      24.049   7.669  51.610  1.00  0.00    -0.377 OA
HETATM   26  H16 UNL     1      23.935   8.428  52.225  1.00  0.00     0.212 HD
ENDBRANCH  24  25
ENDBRANCH  23  24
ENDBRANCH  21  23
ENDBRANCH  15  17
ENDBRANCH   4  15
BRANCH   1  27
HETATM   27  C3  UNL     1      25.611  -0.589  54.169  1.00  0.00     0.070 C 
BRANCH  27  28
HETATM   28  C2  UNL     1      26.732  -0.940  53.249  1.00  0.00     0.171 C 
BRANCH  28  29
HETATM   29  O1  UNL     1      27.956  -1.210  53.794  1.00  0.00    -0.396 OA
HETATM   30  C1  UNL     1      28.697  -0.148  54.210  1.00  0.00     0.201 C 
ENDBRANCH  28  29
ENDBRANCH  27  28
ENDBRANCH   1  27
TORSDOF 8
ENDMDL
