MODEL 1
REMARK VINA RESULT:      -8.3      0.000      0.000
REMARK  7 active torsions:
REMARK  status: ('A' for Active; 'I' for Inactive)
REMARK    1  A    between atoms: C4_5  and  C5_6 
REMARK    2  A    between atoms: C5_6  and  O1_7 
REMARK    3  A    between atoms: C5_6  and  C6_8 
REMARK    4  A    between atoms: C7_9  and  C8_10 
REMARK    5  A    between atoms: C12_14  and  O2_15 
REMARK    6  A    between atoms: C17_21  and  O4_22 
REMARK    7  A    between atoms: O4_22  and  O5_23 
ROOT
HETATM    1  C6  UNL     1      24.218   3.236  52.427  1.00  0.00     0.008 C 
HETATM    2  C7  UNL     1      24.954   2.845  53.453  1.00  0.00     0.035 C 
ENDROOT
BRANCH   1   3
HETATM    3  C5  UNL     1      23.401   4.465  52.529  1.00  0.00     0.147 C 
BRANCH   3   4
HETATM    4  C4  UNL     1      23.595   5.217  51.228  1.00  0.00     0.053 C 
HETATM    5  C3  UNL     1      23.642   4.275  50.041  1.00  0.00     0.040 C 
HETATM    6  C2  UNL     1      23.435   5.170  48.813  1.00  0.00     0.272 C 
HETATM    7  N1  UNL     1      22.035   5.503  48.780  1.00  0.00     0.086 N 
HETATM    8  C1  UNL     1      21.323   4.340  48.240  1.00  0.00     0.310 C 
HETATM    9  C18 UNL     1      21.465   5.811  50.068  1.00  0.00     0.307 C 
HETATM   10  C17 UNL     1      22.488   6.229  51.099  1.00  0.00     0.195 C 
BRANCH  10  11
HETATM   11  O4  UNL     1      23.049   7.462  50.784  1.00  0.00    -0.236 OA
BRANCH  11  12
HETATM   12  O5  UNL     1      24.065   7.647  51.626  1.00  0.00    -0.250 OA
HETATM   13  H21 UNL     1      23.832   7.253  52.507  1.00  0.00     0.253 HD
ENDBRANCH  11  12
ENDBRANCH  10  11
ENDBRANCH   3   4
BRANCH   3  14
HETATM   14  O1  UNL     1      23.820   5.264  53.615  1.00  0.00    -0.391 OA
HETATM   15  H10 UNL     1      23.209   5.048  54.380  1.00  0.00     0.210 HD
ENDBRANCH   3  14
ENDBRANCH   1   3
BRANCH   2  16
HETATM   16  C8  UNL     1      25.757   1.632  53.343  1.00  0.00     0.072 A 
HETATM   17  C9  UNL     1      25.206   0.472  53.024  1.00  0.00     0.015 A 
HETATM   18  C10 UNL     1      25.865  -0.849  52.870  1.00  0.00     0.074 A 
HETATM   19  C11 UNL     1      27.312  -0.665  53.141  1.00  0.00     0.012 A 
HETATM   20  C12 UNL     1      28.156  -1.758  53.060  1.00  0.00     0.075 A 
HETATM   21  C16 UNL     1      27.917   0.524  53.473  1.00  0.00     0.085 A 
HETATM   22  C13 UNL     1      29.511  -1.678  53.294  1.00  0.00     0.037 A 
HETATM   23  C14 UNL     1      30.058  -0.451  53.625  1.00  0.00     0.005 A 
HETATM   24  C15 UNL     1      29.253   0.689  53.721  1.00  0.00     0.038 A 
HETATM   25  O3  UNL     1      27.127   1.656  53.569  1.00  0.00    -0.311 OA
BRANCH  20  26
HETATM   26  O2  UNL     1      27.605  -2.983  52.729  1.00  0.00    -0.360 OA
HETATM   27  H16 UNL     1      27.240  -3.625  53.423  1.00  0.00     0.217 HD
ENDBRANCH  20  26
ENDBRANCH   2  16
TORSDOF 7
ENDMDL
MODEL 2
REMARK VINA RESULT:      -8.2      4.855      7.896
REMARK  7 active torsions:
REMARK  status: ('A' for Active; 'I' for Inactive)
REMARK    1  A    between atoms: C4_5  and  C5_6 
REMARK    2  A    between atoms: C5_6  and  O1_7 
REMARK    3  A    between atoms: C5_6  and  C6_8 
REMARK    4  A    between atoms: C7_9  and  C8_10 
REMARK    5  A    between atoms: C12_14  and  O2_15 
REMARK    6  A    between atoms: C17_21  and  O4_22 
REMARK    7  A    between atoms: O4_22  and  O5_23 
ROOT
HETATM    1  C6  UNL     1      23.683   1.699  53.084  1.00  0.00     0.008 C 
HETATM    2  C7  UNL     1      22.663   1.794  52.248  1.00  0.00     0.035 C 
ENDROOT
BRANCH   1   3
HETATM    3  C5  UNL     1      24.903   2.503  52.855  1.00  0.00     0.147 C 
BRANCH   3   4
HETATM    4  C4  UNL     1      25.962   1.949  53.786  1.00  0.00     0.053 C 
HETATM    5  C3  UNL     1      25.670   0.510  54.169  1.00  0.00     0.040 C 
HETATM    6  C2  UNL     1      26.985  -0.021  54.753  1.00  0.00     0.272 C 
HETATM    7  N1  UNL     1      27.862  -0.260  53.637  1.00  0.00     0.086 N 
HETATM    8  C1  UNL     1      27.448  -1.525  53.020  1.00  0.00     0.310 C 
HETATM    9  C18 UNL     1      27.823   0.761  52.619  1.00  0.00     0.307 C 
HETATM   10  C17 UNL     1      27.302   2.091  53.115  1.00  0.00     0.195 C 
BRANCH  10  11
HETATM   11  O4  UNL     1      28.188   2.678  54.011  1.00  0.00    -0.236 OA
BRANCH  11  12
HETATM   12  O5  UNL     1      29.339   2.842  53.359  1.00  0.00    -0.250 OA
HETATM   13  H21 UNL     1      29.772   1.956  53.239  1.00  0.00     0.253 HD
ENDBRANCH  11  12
ENDBRANCH  10  11
ENDBRANCH   3   4
BRANCH   3  14
HETATM   14  O1  UNL     1      24.674   3.866  53.144  1.00  0.00    -0.391 OA
HETATM   15  H10 UNL     1      24.348   3.905  54.092  1.00  0.00     0.210 HD
ENDBRANCH   3  14
ENDBRANCH   1   3
BRANCH   2  16
HETATM   16  C8  UNL     1      21.463   0.997  52.482  1.00  0.00     0.072 A 
HETATM   17  C9  UNL     1      21.367   0.196  53.530  1.00  0.00     0.015 A 
HETATM   18  C10 UNL     1      20.232  -0.678  53.919  1.00  0.00     0.074 A 
HETATM   19  C11 UNL     1      19.165  -0.510  52.902  1.00  0.00     0.012 A 
HETATM   20  C12 UNL     1      17.987  -1.224  53.038  1.00  0.00     0.075 A 
HETATM   21  C16 UNL     1      19.233   0.313  51.803  1.00  0.00     0.085 A 
HETATM   22  C13 UNL     1      16.946  -1.130  52.143  1.00  0.00     0.037 A 
HETATM   23  C14 UNL     1      17.076  -0.282  51.056  1.00  0.00     0.005 A 
HETATM   24  C15 UNL     1      18.244   0.465  50.868  1.00  0.00     0.038 A 
HETATM   25  O3  UNL     1      20.384   1.055  51.611  1.00  0.00    -0.311 OA
BRANCH  20  26
HETATM   26  O2  UNL     1      17.860  -2.070  54.125  1.00  0.00    -0.360 OA
HETATM   27  H16 UNL     1      18.659  -2.473  54.602  1.00  0.00     0.217 HD
ENDBRANCH  20  26
ENDBRANCH   2  16
TORSDOF 7
ENDMDL
MODEL 3
REMARK VINA RESULT:      -8.0      4.994      8.476
REMARK  7 active torsions:
REMARK  status: ('A' for Active; 'I' for Inactive)
REMARK    1  A    between atoms: C4_5  and  C5_6 
REMARK    2  A    between atoms: C5_6  and  O1_7 
REMARK    3  A    between atoms: C5_6  and  C6_8 
REMARK    4  A    between atoms: C7_9  and  C8_10 
REMARK    5  A    between atoms: C12_14  and  O2_15 
REMARK    6  A    between atoms: C17_21  and  O4_22 
REMARK    7  A    between atoms: O4_22  and  O5_23 
ROOT
HETATM    1  C6  UNL     1      23.609   1.258  53.024  1.00  0.00     0.008 C 
HETATM    2  C7  UNL     1      22.971   0.585  52.082  1.00  0.00     0.035 C 
ENDROOT
BRANCH   1   3
HETATM    3  C5  UNL     1      25.038   1.596  52.852  1.00  0.00     0.147 C 
BRANCH   3   4
HETATM    4  C4  UNL     1      25.810   0.307  53.046  1.00  0.00     0.053 C 
HETATM    5  C3  UNL     1      27.121   0.322  52.284  1.00  0.00     0.040 C 
HETATM    6  C2  UNL     1      27.943  -0.827  52.883  1.00  0.00     0.272 C 
HETATM    7  N1  UNL     1      28.420  -0.367  54.161  1.00  0.00     0.086 N 
HETATM    8  C1  UNL     1      29.561   0.518  53.907  1.00  0.00     0.310 C 
HETATM    9  C18 UNL     1      27.449   0.373  54.928  1.00  0.00     0.307 C 
HETATM   10  C17 UNL     1      26.019   0.099  54.522  1.00  0.00     0.195 C 
BRANCH  10  11
HETATM   11  O4  UNL     1      25.642  -1.199  54.845  1.00  0.00    -0.236 OA
BRANCH  11  12
HETATM   12  O5  UNL     1      25.260  -1.180  56.122  1.00  0.00    -0.250 OA
HETATM   13  H21 UNL     1      24.367  -0.750  56.187  1.00  0.00     0.253 HD
ENDBRANCH  11  12
ENDBRANCH  10  11
ENDBRANCH   3   4
BRANCH   3  14
HETATM   14  O1  UNL     1      25.452   2.553  53.805  1.00  0.00    -0.391 OA
HETATM   15  H10 UNL     1      26.440   2.670  53.680  1.00  0.00     0.210 HD
ENDBRANCH   3  14
ENDBRANCH   1   3
BRANCH   2  16
HETATM   16  C8  UNL     1      21.561   0.256  52.260  1.00  0.00     0.072 A 
HETATM   17  C9  UNL     1      21.119  -0.278  53.387  1.00  0.00     0.015 A 
HETATM   18  C10 UNL     1      19.732  -0.673  53.737  1.00  0.00     0.074 A 
HETATM   19  C11 UNL     1      18.867  -0.360  52.572  1.00  0.00     0.012 A 
HETATM   20  C12 UNL     1      17.513  -0.635  52.646  1.00  0.00     0.075 A 
HETATM   21  C16 UNL     1      19.293   0.196  51.389  1.00  0.00     0.085 A 
HETATM   22  C13 UNL     1      16.638  -0.377  51.615  1.00  0.00     0.037 A 
HETATM   23  C14 UNL     1      17.130   0.184  50.449  1.00  0.00     0.005 A 
HETATM   24  C15 UNL     1      18.490   0.483  50.318  1.00  0.00     0.038 A 
HETATM   25  O3  UNL     1      20.636   0.495  51.253  1.00  0.00    -0.311 OA
BRANCH  20  26
HETATM   26  O2  UNL     1      17.025  -1.195  53.813  1.00  0.00    -0.360 OA
HETATM   27  H16 UNL     1      16.034  -1.277  54.009  1.00  0.00     0.217 HD
ENDBRANCH  20  26
ENDBRANCH   2  16
TORSDOF 7
ENDMDL
MODEL 4
REMARK VINA RESULT:      -8.0      0.989      1.068
REMARK  7 active torsions:
REMARK  status: ('A' for Active; 'I' for Inactive)
REMARK    1  A    between atoms: C4_5  and  C5_6 
REMARK    2  A    between atoms: C5_6  and  O1_7 
REMARK    3  A    between atoms: C5_6  and  C6_8 
REMARK    4  A    between atoms: C7_9  and  C8_10 
REMARK    5  A    between atoms: C12_14  and  O2_15 
REMARK    6  A    between atoms: C17_21  and  O4_22 
REMARK    7  A    between atoms: O4_22  and  O5_23 
ROOT
HETATM    1  C6  UNL     1      23.995   3.066  52.726  1.00  0.00     0.008 C 
HETATM    2  C7  UNL     1      25.048   2.879  53.503  1.00  0.00     0.035 C 
ENDROOT
BRANCH   1   3
HETATM    3  C5  UNL     1      23.200   4.307  52.844  1.00  0.00     0.147 C 
BRANCH   3   4
HETATM    4  C4  UNL     1      22.987   4.815  51.432  1.00  0.00     0.053 C 
HETATM    5  C3  UNL     1      23.684   3.935  50.412  1.00  0.00     0.040 C 
HETATM    6  C2  UNL     1      23.062   4.320  49.064  1.00  0.00     0.272 C 
HETATM    7  N1  UNL     1      21.756   3.715  49.027  1.00  0.00     0.086 N 
HETATM    8  C1  UNL     1      21.943   2.296  48.708  1.00  0.00     0.310 C 
HETATM    9  C18 UNL     1      21.027   3.796  50.268  1.00  0.00     0.307 C 
HETATM   10  C17 UNL     1      21.506   4.902  51.181  1.00  0.00     0.195 C 
BRANCH  10  11
HETATM   11  O4  UNL     1      21.218   6.155  50.651  1.00  0.00    -0.236 OA
BRANCH  11  12
HETATM   12  O5  UNL     1      21.924   7.040  51.355  1.00  0.00    -0.250 OA
HETATM   13  H21 UNL     1      21.379   7.350  52.126  1.00  0.00     0.253 HD
ENDBRANCH  11  12
ENDBRANCH  10  11
ENDBRANCH   3   4
BRANCH   3  14
HETATM   14  O1  UNL     1      23.885   5.278  53.607  1.00  0.00    -0.391 OA
HETATM   15  H10 UNL     1      23.620   6.171  53.235  1.00  0.00     0.210 HD
ENDBRANCH   3  14
ENDBRANCH   1   3
BRANCH   2  16
HETATM   16  C8  UNL     1      25.826   1.651  53.380  1.00  0.00     0.072 A 
HETATM   17  C9  UNL     1      25.254   0.509  53.036  1.00  0.00     0.015 A 
HETATM   18  C10 UNL     1      25.887  -0.823  52.865  1.00  0.00     0.074 A 
HETATM   19  C11 UNL     1      27.335  -0.674  53.151  1.00  0.00     0.012 A 
HETATM   20  C12 UNL     1      28.156  -1.784  53.059  1.00  0.00     0.075 A 
HETATM   21  C16 UNL     1      27.961   0.496  53.510  1.00  0.00     0.085 A 
HETATM   22  C13 UNL     1      29.510  -1.737  53.307  1.00  0.00     0.037 A 
HETATM   23  C14 UNL     1      30.080  -0.527  53.664  1.00  0.00     0.005 A 
HETATM   24  C15 UNL     1      29.298   0.628  53.772  1.00  0.00     0.038 A 
HETATM   25  O3  UNL     1      27.194   1.642  53.618  1.00  0.00    -0.311 OA
BRANCH  20  26
HETATM   26  O2  UNL     1      27.583  -2.990  52.702  1.00  0.00    -0.360 OA
HETATM   27  H16 UNL     1      27.031  -3.547  53.345  1.00  0.00     0.217 HD
ENDBRANCH  20  26
ENDBRANCH   2  16
TORSDOF 7
ENDMDL
MODEL 5
REMARK VINA RESULT:      -7.9      3.300      7.538
REMARK  7 active torsions:
REMARK  status: ('A' for Active; 'I' for Inactive)
REMARK    1  A    between atoms: C4_5  and  C5_6 
REMARK    2  A    between atoms: C5_6  and  O1_7 
REMARK    3  A    between atoms: C5_6  and  C6_8 
REMARK    4  A    between atoms: C7_9  and  C8_10 
REMARK    5  A    between atoms: C12_14  and  O2_15 
REMARK    6  A    between atoms: C17_21  and  O4_22 
REMARK    7  A    between atoms: O4_22  and  O5_23 
ROOT
HETATM    1  C6  UNL     1      24.205   1.595  52.345  1.00  0.00     0.008 C 
HETATM    2  C7  UNL     1      23.659   2.799  52.347  1.00  0.00     0.035 C 
ENDROOT
BRANCH   1   3
HETATM    3  C5  UNL     1      23.614   0.514  53.162  1.00  0.00     0.147 C 
BRANCH   3   4
HETATM    4  C4  UNL     1      24.724  -0.486  53.419  1.00  0.00     0.053 C 
HETATM    5  C3  UNL     1      25.854  -0.332  52.418  1.00  0.00     0.040 C 
HETATM    6  C2  UNL     1      27.034  -1.098  53.030  1.00  0.00     0.272 C 
HETATM    7  N1  UNL     1      27.556  -0.271  54.087  1.00  0.00     0.086 N 
HETATM    8  C1  UNL     1      28.365   0.779  53.460  1.00  0.00     0.310 C 
HETATM    9  C18 UNL     1      26.547   0.372  54.893  1.00  0.00     0.307 C 
HETATM   10  C17 UNL     1      25.199  -0.310  54.836  1.00  0.00     0.195 C 
BRANCH  10  11
HETATM   11  O4  UNL     1      25.238  -1.558  55.449  1.00  0.00    -0.236 OA
BRANCH  11  12
HETATM   12  O5  UNL     1      25.216  -1.339  56.763  1.00  0.00    -0.250 OA
HETATM   13  H21 UNL     1      26.149  -1.240  57.091  1.00  0.00     0.253 HD
ENDBRANCH  11  12
ENDBRANCH  10  11
ENDBRANCH   3   4
BRANCH   3  14
HETATM   14  O1  UNL     1      22.549  -0.114  52.480  1.00  0.00    -0.391 OA
HETATM   15  H10 UNL     1      22.871  -1.031  52.232  1.00  0.00     0.210 HD
ENDBRANCH   3  14
ENDBRANCH   1   3
BRANCH   2  16
HETATM   16  C8  UNL     1      24.249   3.860  51.538  1.00  0.00     0.072 A 
HETATM   17  C9  UNL     1      23.741   5.081  51.533  1.00  0.00     0.015 A 
HETATM   18  C10 UNL     1      24.208   6.270  50.777  1.00  0.00     0.074 A 
HETATM   19  C11 UNL     1      25.394   5.862  49.985  1.00  0.00     0.012 A 
HETATM   20  C12 UNL     1      26.024   6.800  49.185  1.00  0.00     0.075 A 
HETATM   21  C16 UNL     1      25.947   4.604  49.966  1.00  0.00     0.085 A 
HETATM   22  C13 UNL     1      27.129   6.508  48.418  1.00  0.00     0.037 A 
HETATM   23  C14 UNL     1      27.638   5.222  48.444  1.00  0.00     0.005 A 
HETATM   24  C15 UNL     1      27.042   4.232  49.233  1.00  0.00     0.038 A 
HETATM   25  O3  UNL     1      25.363   3.621  50.745  1.00  0.00    -0.311 OA
BRANCH  20  26
HETATM   26  O2  UNL     1      25.513   8.084  49.162  1.00  0.00    -0.360 OA
HETATM   27  H16 UNL     1      25.447   8.633  48.312  1.00  0.00     0.217 HD
ENDBRANCH  20  26
ENDBRANCH   2  16
TORSDOF 7
ENDMDL
MODEL 6
REMARK VINA RESULT:      -7.9      1.665      2.162
REMARK  7 active torsions:
REMARK  status: ('A' for Active; 'I' for Inactive)
REMARK    1  A    between atoms: C4_5  and  C5_6 
REMARK    2  A    between atoms: C5_6  and  O1_7 
REMARK    3  A    between atoms: C5_6  and  C6_8 
REMARK    4  A    between atoms: C7_9  and  C8_10 
REMARK    5  A    between atoms: C12_14  and  O2_15 
REMARK    6  A    between atoms: C17_21  and  O4_22 
REMARK    7  A    between atoms: O4_22  and  O5_23 
ROOT
HETATM    1  C6  UNL     1      24.569   3.102  52.554  1.00  0.00     0.008 C 
HETATM    2  C7  UNL     1      24.411   1.969  53.217  1.00  0.00     0.035 C 
ENDROOT
BRANCH   1   3
HETATM    3  C5  UNL     1      23.503   4.127  52.580  1.00  0.00     0.147 C 
BRANCH   3   4
HETATM    4  C4  UNL     1      23.311   4.581  51.147  1.00  0.00     0.053 C 
HETATM    5  C3  UNL     1      22.613   5.926  51.077  1.00  0.00     0.040 C 
HETATM    6  C2  UNL     1      22.849   6.423  49.645  1.00  0.00     0.272 C 
HETATM    7  N1  UNL     1      24.214   6.876  49.589  1.00  0.00     0.086 N 
HETATM    8  C1  UNL     1      24.261   8.199  50.219  1.00  0.00     0.310 C 
HETATM    9  C18 UNL     1      25.153   6.026  50.279  1.00  0.00     0.307 C 
HETATM   10  C17 UNL     1      24.658   4.611  50.476  1.00  0.00     0.195 C 
BRANCH  10  11
HETATM   11  O4  UNL     1      24.566   3.934  49.265  1.00  0.00    -0.236 OA
BRANCH  11  12
HETATM   12  O5  UNL     1      23.592   3.034  49.402  1.00  0.00    -0.250 OA
HETATM   13  H21 UNL     1      22.721   3.507  49.468  1.00  0.00     0.253 HD
ENDBRANCH  11  12
ENDBRANCH  10  11
ENDBRANCH   3   4
BRANCH   3  14
HETATM   14  O1  UNL     1      23.874   5.225  53.386  1.00  0.00    -0.391 OA
HETATM   15  H10 UNL     1      23.677   4.961  54.334  1.00  0.00     0.210 HD
ENDBRANCH   3  14
ENDBRANCH   1   3
BRANCH   2  16
HETATM   16  C8  UNL     1      25.467   0.963  53.186  1.00  0.00     0.072 A 
HETATM   17  C9  UNL     1      25.197  -0.307  52.934  1.00  0.00     0.015 A 
HETATM   18  C10 UNL     1      26.138  -1.453  52.866  1.00  0.00     0.074 A 
HETATM   19  C11 UNL     1      27.501  -0.932  53.134  1.00  0.00     0.012 A 
HETATM   20  C12 UNL     1      28.571  -1.811  53.126  1.00  0.00     0.075 A 
HETATM   21  C16 UNL     1      27.817   0.379  53.399  1.00  0.00     0.085 A 
HETATM   22  C13 UNL     1      29.868  -1.415  53.365  1.00  0.00     0.037 A 
HETATM   23  C14 UNL     1      30.119  -0.079  53.625  1.00  0.00     0.005 A 
HETATM   24  C15 UNL     1      29.077   0.854  53.646  1.00  0.00     0.038 A 
HETATM   25  O3  UNL     1      26.792   1.307  53.420  1.00  0.00    -0.311 OA
BRANCH  20  26
HETATM   26  O2  UNL     1      28.316  -3.145  52.866  1.00  0.00    -0.360 OA
HETATM   27  H16 UNL     1      27.667  -3.696  53.417  1.00  0.00     0.217 HD
ENDBRANCH  20  26
ENDBRANCH   2  16
TORSDOF 7
ENDMDL
MODEL 7
REMARK VINA RESULT:      -7.8      4.591      8.303
REMARK  7 active torsions:
REMARK  status: ('A' for Active; 'I' for Inactive)
REMARK    1  A    between atoms: C4_5  and  C5_6 
REMARK    2  A    between atoms: C5_6  and  O1_7 
REMARK    3  A    between atoms: C5_6  and  C6_8 
REMARK    4  A    between atoms: C7_9  and  C8_10 
REMARK    5  A    between atoms: C12_14  and  O2_15 
REMARK    6  A    between atoms: C17_21  and  O4_22 
REMARK    7  A    between atoms: O4_22  and  O5_23 
ROOT
HETATM    1  C6  UNL     1      24.144   1.278  52.657  1.00  0.00     0.008 C 
HETATM    2  C7  UNL     1      23.672   1.431  51.432  1.00  0.00     0.035 C 
ENDROOT
BRANCH   1   3
HETATM    3  C5  UNL     1      25.571   1.551  52.938  1.00  0.00     0.147 C 
BRANCH   3   4
HETATM    4  C4  UNL     1      26.177   0.238  53.391  1.00  0.00     0.053 C 
HETATM    5  C3  UNL     1      27.241  -0.247  52.425  1.00  0.00     0.040 C 
HETATM    6  C2  UNL     1      28.017  -1.322  53.195  1.00  0.00     0.272 C 
HETATM    7  N1  UNL     1      28.863  -0.627  54.130  1.00  0.00     0.086 N 
HETATM    8  C1  UNL     1      30.015  -0.117  53.380  1.00  0.00     0.310 C 
HETATM    9  C18 UNL     1      28.232   0.492  54.785  1.00  0.00     0.307 C 
HETATM   10  C17 UNL     1      26.722   0.425  54.781  1.00  0.00     0.195 C 
BRANCH  10  11
HETATM   11  O4  UNL     1      26.260  -0.614  55.582  1.00  0.00    -0.236 OA
BRANCH  11  12
HETATM   12  O5  UNL     1      25.121  -1.041  55.037  1.00  0.00    -0.250 OA
HETATM   13  H21 UNL     1      24.857  -0.418  54.309  1.00  0.00     0.253 HD
ENDBRANCH  11  12
ENDBRANCH  10  11
ENDBRANCH   3   4
BRANCH   3  14
HETATM   14  O1  UNL     1      25.712   2.522  53.953  1.00  0.00    -0.391 OA
HETATM   15  H10 UNL     1      25.605   2.039  54.826  1.00  0.00     0.210 HD
ENDBRANCH   3  14
ENDBRANCH   1   3
BRANCH   2  16
HETATM   16  C8  UNL     1      22.263   1.160  51.164  1.00  0.00     0.072 A 
HETATM   17  C9  UNL     1      21.706   1.503  50.014  1.00  0.00     0.015 A 
HETATM   18  C10 UNL     1      20.302   1.306  49.576  1.00  0.00     0.074 A 
HETATM   19  C11 UNL     1      19.576   0.631  50.681  1.00  0.00     0.012 A 
HETATM   20  C12 UNL     1      18.235   0.332  50.520  1.00  0.00     0.075 A 
HETATM   21  C16 UNL     1      20.124   0.262  51.886  1.00  0.00     0.085 A 
HETATM   22  C13 UNL     1      17.485  -0.293  51.492  1.00  0.00     0.037 A 
HETATM   23  C14 UNL     1      18.096  -0.639  52.684  1.00  0.00     0.005 A 
HETATM   24  C15 UNL     1      19.450  -0.361  52.902  1.00  0.00     0.038 A 
HETATM   25  O3  UNL     1      21.461   0.533  52.108  1.00  0.00    -0.311 OA
BRANCH  20  26
HETATM   26  O2  UNL     1      17.628   0.679  49.327  1.00  0.00    -0.360 OA
HETATM   27  H16 UNL     1      16.883   0.132  48.911  1.00  0.00     0.217 HD
ENDBRANCH  20  26
ENDBRANCH   2  16
TORSDOF 7
ENDMDL
MODEL 8
REMARK VINA RESULT:      -7.8      3.534      4.464
REMARK  7 active torsions:
REMARK  status: ('A' for Active; 'I' for Inactive)
REMARK    1  A    between atoms: C4_5  and  C5_6 
REMARK    2  A    between atoms: C5_6  and  O1_7 
REMARK    3  A    between atoms: C5_6  and  C6_8 
REMARK    4  A    between atoms: C7_9  and  C8_10 
REMARK    5  A    between atoms: C12_14  and  O2_15 
REMARK    6  A    between atoms: C17_21  and  O4_22 
REMARK    7  A    between atoms: O4_22  and  O5_23 
ROOT
HETATM    1  C6  UNL     1      22.507   0.453  53.629  1.00  0.00     0.008 C 
HETATM    2  C7  UNL     1      23.468  -0.353  53.210  1.00  0.00     0.035 C 
ENDROOT
BRANCH   1   3
HETATM    3  C5  UNL     1      21.097   0.011  53.576  1.00  0.00     0.147 C 
BRANCH   3   4
HETATM    4  C4  UNL     1      20.387   0.955  52.627  1.00  0.00     0.053 C 
HETATM    5  C3  UNL     1      21.107   2.285  52.522  1.00  0.00     0.040 C 
HETATM    6  C2  UNL     1      20.529   2.953  51.268  1.00  0.00     0.272 C 
HETATM    7  N1  UNL     1      21.122   2.288  50.138  1.00  0.00     0.086 N 
HETATM    8  C1  UNL     1      22.479   2.821  49.982  1.00  0.00     0.310 C 
HETATM    9  C18 UNL     1      21.224   0.856  50.277  1.00  0.00     0.307 C 
HETATM   10  C17 UNL     1      20.264   0.275  51.290  1.00  0.00     0.195 C 
BRANCH  10  11
HETATM   11  O4  UNL     1      18.947   0.382  50.857  1.00  0.00    -0.236 OA
BRANCH  11  12
HETATM   12  O5  UNL     1      18.175   0.150  51.919  1.00  0.00    -0.250 OA
HETATM   13  H21 UNL     1      17.639  -0.671  51.757  1.00  0.00     0.253 HD
ENDBRANCH  11  12
ENDBRANCH  10  11
ENDBRANCH   3   4
BRANCH   3  14
HETATM   14  O1  UNL     1      20.498   0.071  54.853  1.00  0.00    -0.391 OA
HETATM   15  H10 UNL     1      19.848  -0.691  54.898  1.00  0.00     0.210 HD
ENDBRANCH   3  14
ENDBRANCH   1   3
BRANCH   2  16
HETATM   16  C8  UNL     1      24.857   0.092  53.266  1.00  0.00     0.072 A 
HETATM   17  C9  UNL     1      25.163   1.378  53.315  1.00  0.00     0.015 A 
HETATM   18  C10 UNL     1      26.508   2.003  53.375  1.00  0.00     0.074 A 
HETATM   19  C11 UNL     1      27.512   0.911  53.373  1.00  0.00     0.012 A 
HETATM   20  C12 UNL     1      28.857   1.234  53.425  1.00  0.00     0.075 A 
HETATM   21  C16 UNL     1      27.229  -0.433  53.324  1.00  0.00     0.085 A 
HETATM   22  C13 UNL     1      29.855   0.286  53.427  1.00  0.00     0.037 A 
HETATM   23  C14 UNL     1      29.504  -1.052  53.376  1.00  0.00     0.005 A 
HETATM   24  C15 UNL     1      28.160  -1.437  53.322  1.00  0.00     0.038 A 
HETATM   25  O3  UNL     1      25.903  -0.821  53.271  1.00  0.00    -0.311 OA
BRANCH  20  26
HETATM   26  O2  UNL     1      29.204   2.571  53.476  1.00  0.00    -0.360 OA
HETATM   27  H16 UNL     1      29.171   3.178  52.664  1.00  0.00     0.217 HD
ENDBRANCH  20  26
ENDBRANCH   2  16
TORSDOF 7
ENDMDL
MODEL 9
REMARK VINA RESULT:      -7.6      2.380      3.173
REMARK  7 active torsions:
REMARK  status: ('A' for Active; 'I' for Inactive)
REMARK    1  A    between atoms: C4_5  and  C5_6 
REMARK    2  A    between atoms: C5_6  and  O1_7 
REMARK    3  A    between atoms: C5_6  and  C6_8 
REMARK    4  A    between atoms: C7_9  and  C8_10 
REMARK    5  A    between atoms: C12_14  and  O2_15 
REMARK    6  A    between atoms: C17_21  and  O4_22 
REMARK    7  A    between atoms: O4_22  and  O5_23 
ROOT
HETATM    1  C6  UNL     1      23.084   1.715  52.265  1.00  0.00     0.008 C 
HETATM    2  C7  UNL     1      23.644   0.785  53.021  1.00  0.00     0.035 C 
ENDROOT
BRANCH   1   3
HETATM    3  C5  UNL     1      21.620   1.717  52.058  1.00  0.00     0.147 C 
BRANCH   3   4
HETATM    4  C4  UNL     1      21.201   3.170  51.973  1.00  0.00     0.053 C 
HETATM    5  C3  UNL     1      22.394   4.101  52.070  1.00  0.00     0.040 C 
HETATM    6  C2  UNL     1      21.881   5.459  51.575  1.00  0.00     0.272 C 
HETATM    7  N1  UNL     1      21.787   5.364  50.142  1.00  0.00     0.086 N 
HETATM    8  C1  UNL     1      23.144   5.511  49.605  1.00  0.00     0.310 C 
HETATM    9  C18 UNL     1      21.255   4.113  49.662  1.00  0.00     0.307 C 
HETATM   10  C17 UNL     1      20.437   3.367  50.691  1.00  0.00     0.195 C 
BRANCH  10  11
HETATM   11  O4  UNL     1      19.253   4.037  50.978  1.00  0.00    -0.236 OA
BRANCH  11  12
HETATM   12  O5  UNL     1      18.842   3.596  52.167  1.00  0.00    -0.250 OA
HETATM   13  H21 UNL     1      19.448   3.949  52.871  1.00  0.00     0.253 HD
ENDBRANCH  11  12
ENDBRANCH  10  11
ENDBRANCH   3   4
BRANCH   3  14
HETATM   14  O1  UNL     1      20.955   1.085  53.131  1.00  0.00    -0.391 OA
HETATM   15  H10 UNL     1      20.113   0.693  52.752  1.00  0.00     0.210 HD
ENDBRANCH   3  14
ENDBRANCH   1   3
BRANCH   2  16
HETATM   16  C8  UNL     1      25.089   0.792  53.220  1.00  0.00     0.072 A 
HETATM   17  C9  UNL     1      25.729   1.900  53.560  1.00  0.00     0.015 A 
HETATM   18  C10 UNL     1      27.181   2.087  53.801  1.00  0.00     0.074 A 
HETATM   19  C11 UNL     1      27.845   0.776  53.594  1.00  0.00     0.012 A 
HETATM   20  C12 UNL     1      29.215   0.682  53.761  1.00  0.00     0.075 A 
HETATM   21  C16 UNL     1      27.211  -0.392  53.242  1.00  0.00     0.085 A 
HETATM   22  C13 UNL     1      29.912  -0.493  53.589  1.00  0.00     0.037 A 
HETATM   23  C14 UNL     1      29.215  -1.635  53.235  1.00  0.00     0.005 A 
HETATM   24  C15 UNL     1      27.829  -1.599  53.052  1.00  0.00     0.038 A 
HETATM   25  O3  UNL     1      25.841  -0.364  53.061  1.00  0.00    -0.311 OA
BRANCH  20  26
HETATM   26  O2  UNL     1      29.908   1.825  54.115  1.00  0.00    -0.360 OA
HETATM   27  H16 UNL     1      29.465   2.615  54.572  1.00  0.00     0.217 HD
ENDBRANCH  20  26
ENDBRANCH   2  16
TORSDOF 7
ENDMDL
