MODEL 1
REMARK VINA RESULT:      -8.6      0.000      0.000
REMARK  0 active torsions:
REMARK  status: ('A' for Active; 'I' for Inactive)
ROOT
HETATM    1  C1  UNL     1      18.217   1.468  51.216  1.00  0.00    -0.003 A 
HETATM    2  C2  UNL     1      17.553   0.536  51.879  1.00  0.00    -0.026 A 
HETATM    3  C3  UNL     1      18.067  -0.561  52.713  1.00  0.00     0.032 A 
HETATM    4  C4  UNL     1      19.547  -0.638  52.830  1.00  0.00     0.043 A 
HETATM    5  C5  UNL     1      20.232   0.428  52.068  1.00  0.00    -0.050 A 
HETATM    6  C6  UNL     1      21.677   0.496  52.075  1.00  0.00    -0.026 C 
HETATM    7  C7  UNL     1      22.881   0.930  51.799  1.00  0.00     0.056 C 
HETATM    8  C8  UNL     1      23.487   2.039  51.005  1.00  0.00     0.001 C 
HETATM    9  C9  UNL     1      24.800   1.952  51.095  1.00  0.00     0.085 C 
HETATM   10  N1  UNL     1      25.910   1.261  51.618  1.00  0.00    -0.367 N 
HETATM   11  C10 UNL     1      26.750   1.135  52.742  1.00  0.00     0.043 C 
HETATM   12  C11 UNL     1      26.824   0.127  53.630  1.00  0.00     0.098 C 
HETATM   13  C12 UNL     1      27.678  -0.012  54.781  1.00  0.00     0.149 C 
HETATM   14  N2  UNL     1      28.640   0.744  55.133  1.00  0.00    -0.271 NA
HETATM   15  C13 UNL     1      29.168   1.914  54.543  1.00  0.00     0.112 C 
HETATM   16  C14 UNL     1      28.641   2.537  53.521  1.00  0.00    -0.002 C 
HETATM   17  C15 UNL     1      27.483   2.416  52.614  1.00  0.00     0.088 C 
HETATM   18  N3  UNL     1      25.864  -0.847  53.240  1.00  0.00    -0.239 NA
HETATM   19  C16 UNL     1      24.622  -0.822  53.495  1.00  0.00     0.233 C 
HETATM   20  N4  UNL     1      23.213  -1.122  53.590  1.00  0.00    -0.254 NA
HETATM   21  C17 UNL     1      22.335  -0.465  52.948  1.00  0.00     0.126 C 
HETATM   22  C18 UNL     1      19.677   1.382  51.339  1.00  0.00     0.007 A 
HETATM   23  H10 UNL     1      26.465   0.497  51.124  1.00  0.00     0.165 HD
ENDROOT
TORSDOF 0
ENDMDL
MODEL 2
REMARK VINA RESULT:      -8.5      3.372      5.813
REMARK  0 active torsions:
REMARK  status: ('A' for Active; 'I' for Inactive)
ROOT
HETATM    1  C1  UNL     1      22.094  -0.891  54.851  1.00  0.00    -0.003 A 
HETATM    2  C2  UNL     1      23.097  -1.426  55.529  1.00  0.00    -0.026 A 
HETATM    3  C3  UNL     1      24.545  -1.268  55.332  1.00  0.00     0.032 A 
HETATM    4  C4  UNL     1      24.946  -0.381  54.208  1.00  0.00     0.043 A 
HETATM    5  C5  UNL     1      23.785   0.185  53.490  1.00  0.00    -0.050 A 
HETATM    6  C6  UNL     1      24.001   1.069  52.366  1.00  0.00    -0.026 C 
HETATM    7  C7  UNL     1      23.718   1.859  51.361  1.00  0.00     0.056 C 
HETATM    8  C8  UNL     1      22.489   2.384  50.697  1.00  0.00     0.001 C 
HETATM    9  C9  UNL     1      22.852   3.153  49.687  1.00  0.00     0.085 C 
HETATM   10  N1  UNL     1      23.907   3.709  48.940  1.00  0.00    -0.367 N 
HETATM   11  C10 UNL     1      24.823   4.778  48.879  1.00  0.00     0.043 C 
HETATM   12  C11 UNL     1      26.153   4.761  49.081  1.00  0.00     0.098 C 
HETATM   13  C12 UNL     1      27.098   5.845  49.021  1.00  0.00     0.149 C 
HETATM   14  N2  UNL     1      26.888   7.041  48.637  1.00  0.00    -0.271 NA
HETATM   15  C13 UNL     1      25.716   7.674  48.163  1.00  0.00     0.112 C 
HETATM   16  C14 UNL     1      24.527   7.130  48.153  1.00  0.00    -0.002 C 
HETATM   17  C15 UNL     1      23.874   5.861  48.530  1.00  0.00     0.088 C 
HETATM   18  N3  UNL     1      26.514   3.420  49.390  1.00  0.00    -0.239 NA
HETATM   19  C16 UNL     1      26.416   2.858  50.523  1.00  0.00     0.233 C 
HETATM   20  N4  UNL     1      26.449   1.920  51.621  1.00  0.00    -0.254 NA
HETATM   21  C17 UNL     1      25.392   1.411  52.109  1.00  0.00     0.126 C 
HETATM   22  C18 UNL     1      22.503  -0.017  53.744  1.00  0.00     0.007 A 
HETATM   23  H10 UNL     1      24.319   3.311  48.041  1.00  0.00     0.165 HD
ENDROOT
TORSDOF 0
ENDMDL
MODEL 3
REMARK VINA RESULT:      -8.4      2.178      4.261
REMARK  0 active torsions:
REMARK  status: ('A' for Active; 'I' for Inactive)
ROOT
HETATM    1  C1  UNL     1      16.547  -3.726  53.494  1.00  0.00    -0.003 A 
HETATM    2  C2  UNL     1      15.551  -3.153  52.838  1.00  0.00    -0.026 A 
HETATM    3  C3  UNL     1      15.504  -1.843  52.173  1.00  0.00     0.032 A 
HETATM    4  C4  UNL     1      16.755  -1.042  52.246  1.00  0.00     0.043 A 
HETATM    5  C5  UNL     1      17.829  -1.734  52.990  1.00  0.00    -0.050 A 
HETATM    6  C6  UNL     1      19.113  -1.090  53.155  1.00  0.00    -0.026 C 
HETATM    7  C7  UNL     1      20.354  -0.918  53.538  1.00  0.00     0.056 C 
HETATM    8  C8  UNL     1      21.378  -1.690  54.301  1.00  0.00     0.001 C 
HETATM    9  C9  UNL     1      22.478  -0.965  54.381  1.00  0.00     0.085 C 
HETATM   10  N1  UNL     1      23.128   0.242  54.060  1.00  0.00    -0.367 N 
HETATM   11  C10 UNL     1      23.865   0.912  53.063  1.00  0.00     0.043 C 
HETATM   12  C11 UNL     1      23.485   1.940  52.282  1.00  0.00     0.098 C 
HETATM   13  C12 UNL     1      24.228   2.631  51.261  1.00  0.00     0.149 C 
HETATM   14  N2  UNL     1      25.459   2.493  50.966  1.00  0.00    -0.271 NA
HETATM   15  C13 UNL     1      26.460   1.660  51.513  1.00  0.00     0.112 C 
HETATM   16  C14 UNL     1      26.248   0.726  52.404  1.00  0.00    -0.002 C 
HETATM   17  C15 UNL     1      25.127   0.144  53.168  1.00  0.00     0.088 C 
HETATM   18  N3  UNL     1      22.145   2.262  52.634  1.00  0.00    -0.239 NA
HETATM   19  C16 UNL     1      21.099   1.672  52.227  1.00  0.00     0.233 C 
HETATM   20  N4  UNL     1      19.736   1.260  51.987  1.00  0.00    -0.254 NA
HETATM   21  C17 UNL     1      19.262   0.178  52.457  1.00  0.00     0.126 C 
HETATM   22  C18 UNL     1      17.776  -2.926  53.559  1.00  0.00     0.007 A 
HETATM   23  H10 UNL     1      23.198   1.104  54.684  1.00  0.00     0.165 HD
ENDROOT
TORSDOF 0
ENDMDL
MODEL 4
REMARK VINA RESULT:      -8.3      1.804      3.711
REMARK  0 active torsions:
REMARK  status: ('A' for Active; 'I' for Inactive)
ROOT
HETATM    1  C1  UNL     1      16.176  -2.407  52.827  1.00  0.00    -0.003 A 
HETATM    2  C2  UNL     1      15.480  -1.640  52.005  1.00  0.00    -0.026 A 
HETATM    3  C3  UNL     1      15.880  -0.402  51.319  1.00  0.00     0.032 A 
HETATM    4  C4  UNL     1      17.268   0.058  51.587  1.00  0.00     0.043 A 
HETATM    5  C5  UNL     1      17.995  -0.838  52.511  1.00  0.00    -0.050 A 
HETATM    6  C6  UNL     1      19.360  -0.533  52.878  1.00  0.00    -0.026 C 
HETATM    7  C7  UNL     1      20.526  -0.658  53.460  1.00  0.00     0.056 C 
HETATM    8  C8  UNL     1      21.182  -1.619  54.396  1.00  0.00     0.001 C 
HETATM    9  C9  UNL     1      22.405  -1.193  54.647  1.00  0.00     0.085 C 
HETATM   10  N1  UNL     1      23.389  -0.212  54.420  1.00  0.00    -0.367 N 
HETATM   11  C10 UNL     1      24.421   0.189  53.549  1.00  0.00     0.043 C 
HETATM   12  C11 UNL     1      24.450   1.232  52.699  1.00  0.00     0.098 C 
HETATM   13  C12 UNL     1      25.498   1.651  51.806  1.00  0.00     0.149 C 
HETATM   14  N2  UNL     1      26.681   1.188  51.722  1.00  0.00    -0.271 NA
HETATM   15  C13 UNL     1      27.332   0.161  52.442  1.00  0.00     0.112 C 
HETATM   16  C14 UNL     1      26.747  -0.634  53.300  1.00  0.00    -0.002 C 
HETATM   17  C15 UNL     1      25.408  -0.866  53.876  1.00  0.00     0.088 C 
HETATM   18  N3  UNL     1      23.201   1.903  52.817  1.00  0.00    -0.239 NA
HETATM   19  C16 UNL     1      22.115   1.576  52.251  1.00  0.00     0.233 C 
HETATM   20  N4  UNL     1      20.747   1.509  51.792  1.00  0.00    -0.254 NA
HETATM   21  C17 UNL     1      19.941   0.613  52.194  1.00  0.00     0.126 C 
HETATM   22  C18 UNL     1      17.545  -1.942  53.083  1.00  0.00     0.007 A 
HETATM   23  H10 UNL     1      23.581   0.639  55.032  1.00  0.00     0.165 HD
ENDROOT
TORSDOF 0
ENDMDL
MODEL 5
REMARK VINA RESULT:      -8.3      1.583      2.848
REMARK  0 active torsions:
REMARK  status: ('A' for Active; 'I' for Inactive)
ROOT
HETATM    1  C1  UNL     1      18.500   0.267  51.426  1.00  0.00    -0.003 A 
HETATM    2  C2  UNL     1      18.104   1.444  50.969  1.00  0.00    -0.026 A 
HETATM    3  C3  UNL     1      18.815   2.730  50.961  1.00  0.00     0.032 A 
HETATM    4  C4  UNL     1      20.179   2.712  51.554  1.00  0.00     0.043 A 
HETATM    5  C5  UNL     1      20.565   1.372  52.046  1.00  0.00    -0.050 A 
HETATM    6  C6  UNL     1      21.863   1.181  52.655  1.00  0.00    -0.026 C 
HETATM    7  C7  UNL     1      22.860   0.565  53.238  1.00  0.00     0.056 C 
HETATM    8  C8  UNL     1      23.165  -0.819  53.706  1.00  0.00     0.001 C 
HETATM    9  C9  UNL     1      24.367  -0.824  54.250  1.00  0.00     0.085 C 
HETATM   10  N1  UNL     1      25.515  -0.086  54.596  1.00  0.00    -0.367 N 
HETATM   11  C10 UNL     1      26.747   0.401  54.114  1.00  0.00     0.043 C 
HETATM   12  C11 UNL     1      27.100   1.668  53.833  1.00  0.00     0.098 C 
HETATM   13  C12 UNL     1      28.353   2.178  53.342  1.00  0.00     0.149 C 
HETATM   14  N2  UNL     1      29.445   1.541  53.185  1.00  0.00    -0.271 NA
HETATM   15  C13 UNL     1      29.777   0.189  53.430  1.00  0.00     0.112 C 
HETATM   16  C14 UNL     1      28.922  -0.739  53.771  1.00  0.00    -0.002 C 
HETATM   17  C15 UNL     1      27.477  -0.886  54.034  1.00  0.00     0.088 C 
HETATM   18  N3  UNL     1      25.971   2.489  54.107  1.00  0.00    -0.239 NA
HETATM   19  C16 UNL     1      24.979   2.682  53.342  1.00  0.00     0.233 C 
HETATM   20  N4  UNL     1      23.732   3.122  52.760  1.00  0.00    -0.254 NA
HETATM   21  C17 UNL     1      22.735   2.346  52.626  1.00  0.00     0.126 C 
HETATM   22  C18 UNL     1      19.848   0.262  52.008  1.00  0.00     0.007 A 
HETATM   23  H10 UNL     1      25.713   0.362  55.542  1.00  0.00     0.165 HD
ENDROOT
TORSDOF 0
ENDMDL
MODEL 6
REMARK VINA RESULT:      -8.2      2.227      7.600
REMARK  0 active torsions:
REMARK  status: ('A' for Active; 'I' for Inactive)
ROOT
HETATM    1  C1  UNL     1      28.685   2.198  53.467  1.00  0.00    -0.003 A 
HETATM    2  C2  UNL     1      29.093   1.034  53.947  1.00  0.00    -0.026 A 
HETATM    3  C3  UNL     1      28.305  -0.155  54.302  1.00  0.00     0.032 A 
HETATM    4  C4  UNL     1      26.837  -0.038  54.095  1.00  0.00     0.043 A 
HETATM    5  C5  UNL     1      26.444   1.283  53.559  1.00  0.00    -0.050 A 
HETATM    6  C6  UNL     1      25.049   1.564  53.302  1.00  0.00    -0.026 C 
HETATM    7  C7  UNL     1      23.985   2.232  52.937  1.00  0.00     0.056 C 
HETATM    8  C8  UNL     1      23.680   3.590  52.395  1.00  0.00     0.001 C 
HETATM    9  C9  UNL     1      22.375   3.696  52.235  1.00  0.00     0.085 C 
HETATM   10  N1  UNL     1      21.112   3.084  52.352  1.00  0.00    -0.367 N 
HETATM   11  C10 UNL     1      20.191   2.234  51.707  1.00  0.00     0.043 C 
HETATM   12  C11 UNL     1      19.847   0.971  52.021  1.00  0.00     0.098 C 
HETATM   13  C12 UNL     1      18.909   0.095  51.370  1.00  0.00     0.149 C 
HETATM   14  N2  UNL     1      18.106   0.378  50.423  1.00  0.00    -0.271 NA
HETATM   15  C13 UNL     1      17.876   1.586  49.728  1.00  0.00     0.112 C 
HETATM   16  C14 UNL     1      18.590   2.673  49.866  1.00  0.00    -0.002 C 
HETATM   17  C15 UNL     1      19.755   3.156  50.633  1.00  0.00     0.088 C 
HETATM   18  N3  UNL     1      20.605   0.602  53.167  1.00  0.00    -0.239 NA
HETATM   19  C16 UNL     1      21.804   0.190  53.174  1.00  0.00     0.233 C 
HETATM   20  N4  UNL     1      23.110  -0.293  53.559  1.00  0.00    -0.254 NA
HETATM   21  C17 UNL     1      24.147   0.440  53.505  1.00  0.00     0.126 C 
HETATM   22  C18 UNL     1      27.235   2.302  53.267  1.00  0.00     0.007 A 
HETATM   23  H10 UNL     1      20.443   3.175  53.176  1.00  0.00     0.165 HD
ENDROOT
TORSDOF 0
ENDMDL
MODEL 7
REMARK VINA RESULT:      -7.9      4.199      9.484
REMARK  0 active torsions:
REMARK  status: ('A' for Active; 'I' for Inactive)
ROOT
HETATM    1  C1  UNL     1      23.767  -0.602  53.476  1.00  0.00    -0.003 A 
HETATM    2  C2  UNL     1      24.564   0.446  53.344  1.00  0.00    -0.026 A 
HETATM    3  C3  UNL     1      24.237   1.822  52.942  1.00  0.00     0.032 A 
HETATM    4  C4  UNL     1      22.804   2.077  52.636  1.00  0.00     0.043 A 
HETATM    5  C5  UNL     1      21.966   0.871  52.801  1.00  0.00    -0.050 A 
HETATM    6  C6  UNL     1      20.545   0.946  52.540  1.00  0.00    -0.026 C 
HETATM    7  C7  UNL     1      19.301   0.555  52.428  1.00  0.00     0.056 C 
HETATM    8  C8  UNL     1      18.533  -0.711  52.620  1.00  0.00     0.001 C 
HETATM    9  C9  UNL     1      17.267  -0.483  52.326  1.00  0.00     0.085 C 
HETATM   10  N1  UNL     1      16.297   0.444  51.900  1.00  0.00    -0.367 N 
HETATM   11  C10 UNL     1      15.418   1.457  52.333  1.00  0.00     0.043 C 
HETATM   12  C11 UNL     1      15.495   2.784  52.126  1.00  0.00     0.098 C 
HETATM   13  C12 UNL     1      14.605   3.828  52.563  1.00  0.00     0.149 C 
HETATM   14  N2  UNL     1      13.476   3.698  53.139  1.00  0.00    -0.271 NA
HETATM   15  C13 UNL     1      12.754   2.546  53.522  1.00  0.00     0.112 C 
HETATM   16  C14 UNL     1      13.212   1.322  53.456  1.00  0.00    -0.002 C 
HETATM   17  C15 UNL     1      14.437   0.607  53.047  1.00  0.00     0.088 C 
HETATM   18  N3  UNL     1      16.672   3.023  51.364  1.00  0.00    -0.239 NA
HETATM   19  C16 UNL     1      17.855   3.106  51.814  1.00  0.00     0.233 C 
HETATM   20  N4  UNL     1      19.284   3.258  51.957  1.00  0.00    -0.254 NA
HETATM   21  C17 UNL     1      20.045   2.278  52.232  1.00  0.00     0.126 C 
HETATM   22  C18 UNL     1      22.356  -0.337  53.172  1.00  0.00     0.007 A 
HETATM   23  H10 UNL     1      15.962   0.588  50.899  1.00  0.00     0.165 HD
ENDROOT
TORSDOF 0
ENDMDL
MODEL 8
REMARK VINA RESULT:      -7.8      2.277      7.916
REMARK  0 active torsions:
REMARK  status: ('A' for Active; 'I' for Inactive)
ROOT
HETATM    1  C1  UNL     1      27.998   0.199  54.986  1.00  0.00    -0.003 A 
HETATM    2  C2  UNL     1      28.904   1.070  54.571  1.00  0.00    -0.026 A 
HETATM    3  C3  UNL     1      28.808   2.080  53.507  1.00  0.00     0.032 A 
HETATM    4  C4  UNL     1      27.507   2.135  52.791  1.00  0.00     0.043 A 
HETATM    5  C5  UNL     1      26.537   1.140  53.299  1.00  0.00    -0.050 A 
HETATM    6  C6  UNL     1      25.220   1.059  52.707  1.00  0.00    -0.026 C 
HETATM    7  C7  UNL     1      23.997   0.641  52.502  1.00  0.00     0.056 C 
HETATM    8  C8  UNL     1      23.084  -0.391  53.078  1.00  0.00     0.001 C 
HETATM    9  C9  UNL     1      21.939  -0.352  52.423  1.00  0.00     0.085 C 
HETATM   10  N1  UNL     1      21.179   0.243  51.398  1.00  0.00    -0.367 N 
HETATM   11  C10 UNL     1      20.332   1.325  51.086  1.00  0.00     0.043 C 
HETATM   12  C11 UNL     1      20.582   2.393  50.307  1.00  0.00     0.098 C 
HETATM   13  C12 UNL     1      19.726   3.503  49.981  1.00  0.00     0.149 C 
HETATM   14  N2  UNL     1      18.494   3.647  50.267  1.00  0.00    -0.271 NA
HETATM   15  C13 UNL     1      17.596   2.806  50.963  1.00  0.00     0.112 C 
HETATM   16  C14 UNL     1      17.934   1.708  51.587  1.00  0.00    -0.002 C 
HETATM   17  C15 UNL     1      19.142   0.904  51.861  1.00  0.00     0.088 C 
HETATM   18  N3  UNL     1      21.913   2.257  49.822  1.00  0.00    -0.239 NA
HETATM   19  C16 UNL     1      22.974   2.565  50.445  1.00  0.00     0.233 C 
HETATM   20  N4  UNL     1      24.347   2.790  50.832  1.00  0.00    -0.254 NA
HETATM   21  C17 UNL     1      24.932   2.073  51.704  1.00  0.00     0.126 C 
HETATM   22  C18 UNL     1      26.718   0.263  54.271  1.00  0.00     0.007 A 
HETATM   23  H10 UNL     1      21.082  -0.115  50.399  1.00  0.00     0.165 HD
ENDROOT
TORSDOF 0
ENDMDL
MODEL 9
REMARK VINA RESULT:      -7.8      3.733      5.565
REMARK  0 active torsions:
REMARK  status: ('A' for Active; 'I' for Inactive)
ROOT
HETATM    1  C1  UNL     1      21.147   3.978  45.109  1.00  0.00    -0.003 A 
HETATM    2  C2  UNL     1      21.585   5.191  44.812  1.00  0.00    -0.026 A 
HETATM    3  C3  UNL     1      22.359   6.131  45.636  1.00  0.00     0.032 A 
HETATM    4  C4  UNL     1      22.701   5.654  47.002  1.00  0.00     0.043 A 
HETATM    5  C5  UNL     1      22.186   4.295  47.274  1.00  0.00    -0.050 A 
HETATM    6  C6  UNL     1      22.430   3.682  48.561  1.00  0.00    -0.026 C 
HETATM    7  C7  UNL     1      22.401   2.781  49.511  1.00  0.00     0.056 C 
HETATM    8  C8  UNL     1      21.846   1.408  49.697  1.00  0.00     0.001 C 
HETATM    9  C9  UNL     1      22.133   0.999  50.918  1.00  0.00     0.085 C 
HETATM   10  N1  UNL     1      22.744   1.291  52.152  1.00  0.00    -0.367 N 
HETATM   11  C10 UNL     1      23.967   1.272  52.853  1.00  0.00     0.043 C 
HETATM   12  C11 UNL     1      24.734   2.309  53.236  1.00  0.00     0.098 C 
HETATM   13  C12 UNL     1      25.983   2.303  53.953  1.00  0.00     0.149 C 
HETATM   14  N2  UNL     1      26.568   1.307  54.489  1.00  0.00    -0.271 NA
HETATM   15  C13 UNL     1      26.207  -0.057  54.560  1.00  0.00     0.112 C 
HETATM   16  C14 UNL     1      25.192  -0.594  53.932  1.00  0.00    -0.002 C 
HETATM   17  C15 UNL     1      24.104  -0.193  53.018  1.00  0.00     0.088 C 
HETATM   18  N3  UNL     1      24.087   3.496  52.793  1.00  0.00    -0.239 NA
HETATM   19  C16 UNL     1      24.142   3.992  51.628  1.00  0.00     0.233 C 
HETATM   20  N4  UNL     1      23.976   4.819  50.456  1.00  0.00    -0.254 NA
HETATM   21  C17 UNL     1      23.281   4.450  49.458  1.00  0.00     0.126 C 
HETATM   22  C18 UNL     1      21.491   3.519  46.460  1.00  0.00     0.007 A 
HETATM   23  H10 UNL     1      22.261   1.689  53.014  1.00  0.00     0.165 HD
ENDROOT
TORSDOF 0
ENDMDL
