MODEL 1
REMARK VINA RESULT:      -9.5      0.000      0.000
REMARK  2 active torsions:
REMARK  status: ('A' for Active; 'I' for Inactive)
REMARK    1  A    between atoms: C5_5  and  C6_6 
REMARK    2  A    between atoms: C6_6  and  C7_7 
ROOT
HETATM    1  C7  UNL     1      23.945   0.628  52.739  1.00  0.00    -0.061 C 
HETATM    2  C8  UNL     1      24.112   1.907  52.450  1.00  0.00     0.021 C 
HETATM    3  C9  UNL     1      23.333   3.068  52.033  1.00  0.00     0.028 A 
HETATM    4  C10 UNL     1      24.141   3.989  51.413  1.00  0.00     0.135 A 
HETATM    5  N1  UNL     1      23.449   5.082  51.012  1.00  0.00    -0.230 NA
HETATM    6  C11 UNL     1      22.121   5.230  51.208  1.00  0.00     0.224 A 
HETATM    7 CL1  UNL     1      21.305   6.691  50.650  1.00  0.00    -0.041 Cl
HETATM    8  N2  UNL     1      21.359   4.282  51.831  1.00  0.00    -0.200 NA
HETATM    9  C12 UNL     1      21.956   3.144  52.274  1.00  0.00     0.142 A 
HETATM   10  N3  UNL     1      21.070   2.222  52.909  1.00  0.00    -0.343 N 
HETATM   11  C13 UNL     1      21.488   0.874  53.161  1.00  0.00     0.022 A 
HETATM   12  C14 UNL     1      20.764   0.173  54.061  1.00  0.00     0.026 A 
HETATM   13  C15 UNL     1      21.335  -1.164  54.184  1.00  0.00    -0.001 A 
HETATM   14  C16 UNL     1      22.369  -1.203  53.356  1.00  0.00    -0.011 A 
HETATM   15  C17 UNL     1      22.573   0.068  52.631  1.00  0.00     0.087 A 
HETATM   16  H10 UNL     1      20.139   2.619  53.153  1.00  0.00     0.167 HD
ENDROOT
BRANCH   1  17
HETATM   17  C6  UNL     1      24.813  -0.457  53.153  1.00  0.00     0.071 C 
BRANCH  17  18
HETATM   18  C5  UNL     1      26.040  -0.213  53.877  1.00  0.00    -0.054 A 
HETATM   19  C4  UNL     1      26.656   0.193  54.965  1.00  0.00     0.005 A 
HETATM   20  C3  UNL     1      28.102   0.152  54.982  1.00  0.00     0.004 A 
HETATM   21  C2  UNL     1      28.429  -0.323  53.798  1.00  0.00    -0.061 A 
HETATM   22  C1  UNL     1      29.758  -0.590  53.227  1.00  0.00     0.045 C 
HETATM   23  C18 UNL     1      27.218  -0.592  52.997  1.00  0.00     0.140 A 
HETATM   24 CL2  UNL     1      27.181  -2.354  52.695  1.00  0.00    -0.115 Cl
ENDBRANCH  17  18
ENDBRANCH   1  17
TORSDOF 2
ENDMDL
MODEL 2
REMARK VINA RESULT:      -9.2      2.945      5.662
REMARK  2 active torsions:
REMARK  status: ('A' for Active; 'I' for Inactive)
REMARK    1  A    between atoms: C5_5  and  C6_6 
REMARK    2  A    between atoms: C6_6  and  C7_7 
ROOT
HETATM    1  C7  UNL     1      23.749   1.633  52.488  1.00  0.00    -0.061 C 
HETATM    2  C8  UNL     1      23.829   2.515  51.507  1.00  0.00     0.021 C 
HETATM    3  C9  UNL     1      24.834   3.255  50.751  1.00  0.00     0.028 A 
HETATM    4  C10 UNL     1      24.283   4.387  50.203  1.00  0.00     0.135 A 
HETATM    5  N1  UNL     1      25.189   5.100  49.492  1.00  0.00    -0.230 NA
HETATM    6  C11 UNL     1      26.478   4.724  49.350  1.00  0.00     0.224 A 
HETATM    7 CL1  UNL     1      27.588   5.718  48.404  1.00  0.00    -0.041 Cl
HETATM    8  N2  UNL     1      26.980   3.587  49.916  1.00  0.00    -0.200 NA
HETATM    9  C12 UNL     1      26.153   2.797  50.652  1.00  0.00     0.142 A 
HETATM   10  N3  UNL     1      26.778   1.635  51.197  1.00  0.00    -0.343 N 
HETATM   11  C13 UNL     1      26.121   0.874  52.219  1.00  0.00     0.022 A 
HETATM   12  C14 UNL     1      26.582  -0.378  52.434  1.00  0.00     0.026 A 
HETATM   13  C15 UNL     1      25.799  -0.992  53.500  1.00  0.00    -0.001 A 
HETATM   14  C16 UNL     1      24.909  -0.083  53.875  1.00  0.00    -0.011 A 
HETATM   15  C17 UNL     1      25.018   1.177  53.113  1.00  0.00     0.087 A 
HETATM   16  H10 UNL     1      27.711   1.418  50.790  1.00  0.00     0.167 HD
ENDROOT
BRANCH   1  17
HETATM   17  C6  UNL     1      22.671   0.950  53.174  1.00  0.00     0.071 C 
BRANCH  17  18
HETATM   18  C5  UNL     1      21.433   0.620  52.503  1.00  0.00    -0.054 A 
HETATM   19  C4  UNL     1      20.686   0.641  51.423  1.00  0.00     0.005 A 
HETATM   20  C3  UNL     1      19.373   0.035  51.493  1.00  0.00     0.004 A 
HETATM   21  C2  UNL     1      19.284  -0.408  52.729  1.00  0.00    -0.061 A 
HETATM   22  C1  UNL     1      18.181  -1.117  53.396  1.00  0.00     0.045 C 
HETATM   23  C18 UNL     1      20.518  -0.100  53.479  1.00  0.00     0.140 A 
HETATM   24 CL2  UNL     1      21.255  -1.667  53.926  1.00  0.00    -0.115 Cl
ENDBRANCH  17  18
ENDBRANCH   1  17
TORSDOF 2
ENDMDL
MODEL 3
REMARK VINA RESULT:      -9.1      2.645      4.363
REMARK  2 active torsions:
REMARK  status: ('A' for Active; 'I' for Inactive)
REMARK    1  A    between atoms: C5_5  and  C6_6 
REMARK    2  A    between atoms: C6_6  and  C7_7 
ROOT
HETATM    1  C7  UNL     1      24.126   0.601  53.414  1.00  0.00    -0.061 C 
HETATM    2  C8  UNL     1      23.168  -0.287  53.615  1.00  0.00     0.021 C 
HETATM    3  C9  UNL     1      21.737  -0.455  53.384  1.00  0.00     0.028 A 
HETATM    4  C10 UNL     1      21.216  -1.375  54.260  1.00  0.00     0.135 A 
HETATM    5  N1  UNL     1      19.887  -1.558  54.072  1.00  0.00    -0.230 NA
HETATM    6  C11 UNL     1      19.176  -0.903  53.129  1.00  0.00     0.224 A 
HETATM    7 CL1  UNL     1      17.446  -1.207  52.959  1.00  0.00    -0.041 Cl
HETATM    8  N2  UNL     1      19.742   0.005  52.280  1.00  0.00    -0.200 NA
HETATM    9  C12 UNL     1      21.073   0.263  52.383  1.00  0.00     0.142 A 
HETATM   10  N3  UNL     1      21.560   1.226  51.449  1.00  0.00    -0.343 N 
HETATM   11  C13 UNL     1      22.859   1.810  51.623  1.00  0.00     0.022 A 
HETATM   12  C14 UNL     1      23.397   2.424  50.547  1.00  0.00     0.026 A 
HETATM   13  C15 UNL     1      24.707   2.951  50.914  1.00  0.00    -0.001 A 
HETATM   14  C16 UNL     1      24.892   2.631  52.187  1.00  0.00    -0.011 A 
HETATM   15  C17 UNL     1      23.755   1.884  52.762  1.00  0.00     0.087 A 
HETATM   16  H10 UNL     1      20.903   1.443  50.671  1.00  0.00     0.167 HD
ENDROOT
BRANCH   1  17
HETATM   17  C6  UNL     1      25.547   0.663  53.692  1.00  0.00     0.071 C 
BRANCH  17  18
HETATM   18  C5  UNL     1      26.447  -0.394  53.288  1.00  0.00    -0.054 A 
HETATM   19  C4  UNL     1      26.658  -1.525  52.654  1.00  0.00     0.005 A 
HETATM   20  C3  UNL     1      27.997  -2.075  52.674  1.00  0.00     0.004 A 
HETATM   21  C2  UNL     1      28.693  -1.214  53.386  1.00  0.00    -0.061 A 
HETATM   22  C1  UNL     1      30.117  -1.232  53.754  1.00  0.00     0.045 C 
HETATM   23  C18 UNL     1      27.832  -0.103  53.839  1.00  0.00     0.140 A 
HETATM   24 CL2  UNL     1      28.466   1.385  53.077  1.00  0.00    -0.115 Cl
ENDBRANCH  17  18
ENDBRANCH   1  17
TORSDOF 2
ENDMDL
MODEL 4
REMARK VINA RESULT:      -9.1      1.617      1.805
REMARK  2 active torsions:
REMARK  status: ('A' for Active; 'I' for Inactive)
REMARK    1  A    between atoms: C5_5  and  C6_6 
REMARK    2  A    between atoms: C6_6  and  C7_7 
ROOT
HETATM    1  C7  UNL     1      24.185   0.596  52.897  1.00  0.00    -0.061 C 
HETATM    2  C8  UNL     1      24.253   1.599  52.039  1.00  0.00     0.021 C 
HETATM    3  C9  UNL     1      23.411   2.306  51.079  1.00  0.00     0.028 A 
HETATM    4  C10 UNL     1      24.184   2.931  50.134  1.00  0.00     0.135 A 
HETATM    5  N1  UNL     1      23.433   3.600  49.225  1.00  0.00    -0.230 NA
HETATM    6  C11 UNL     1      22.084   3.634  49.263  1.00  0.00     0.224 A 
HETATM    7 CL1  UNL     1      21.190   4.532  48.036  1.00  0.00    -0.041 Cl
HETATM    8  N2  UNL     1      21.358   2.993  50.227  1.00  0.00    -0.200 NA
HETATM    9  C12 UNL     1      22.015   2.292  51.189  1.00  0.00     0.142 A 
HETATM   10  N3  UNL     1      21.162   1.663  52.146  1.00  0.00    -0.343 N 
HETATM   11  C13 UNL     1      21.684   0.665  53.033  1.00  0.00     0.022 A 
HETATM   12  C14 UNL     1      20.941   0.374  54.123  1.00  0.00     0.026 A 
HETATM   13  C15 UNL     1      21.627  -0.654  54.899  1.00  0.00    -0.001 A 
HETATM   14  C16 UNL     1      22.744  -0.931  54.241  1.00  0.00    -0.011 A 
HETATM   15  C17 UNL     1      22.896  -0.135  53.006  1.00  0.00     0.087 A 
HETATM   16  H10 UNL     1      20.175   1.993  52.125  1.00  0.00     0.167 HD
ENDROOT
BRANCH   1  17
HETATM   17  C6  UNL     1      25.108  -0.034  53.821  1.00  0.00     0.071 C 
BRANCH  17  18
HETATM   18  C5  UNL     1      26.223  -0.829  53.356  1.00  0.00    -0.054 A 
HETATM   19  C4  UNL     1      26.679  -1.866  52.691  1.00  0.00     0.005 A 
HETATM   20  C3  UNL     1      28.112  -2.065  52.644  1.00  0.00     0.004 A 
HETATM   21  C2  UNL     1      28.604  -1.064  53.343  1.00  0.00    -0.061 A 
HETATM   22  C1  UNL     1      30.003  -0.730  53.650  1.00  0.00     0.045 C 
HETATM   23  C18 UNL     1      27.515  -0.208  53.855  1.00  0.00     0.140 A 
HETATM   24 CL2  UNL     1      27.723   1.399  53.099  1.00  0.00    -0.115 Cl
ENDBRANCH  17  18
ENDBRANCH   1  17
TORSDOF 2
ENDMDL
MODEL 5
REMARK VINA RESULT:      -9.0      3.004      6.227
REMARK  2 active torsions:
REMARK  status: ('A' for Active; 'I' for Inactive)
REMARK    1  A    between atoms: C5_5  and  C6_6 
REMARK    2  A    between atoms: C6_6  and  C7_7 
ROOT
HETATM    1  C7  UNL     1      22.744   0.862  52.100  1.00  0.00    -0.061 C 
HETATM    2  C8  UNL     1      24.057   0.847  51.944  1.00  0.00     0.021 C 
HETATM    3  C9  UNL     1      25.269   0.576  52.710  1.00  0.00     0.028 A 
HETATM    4  C10 UNL     1      26.345   1.213  52.144  1.00  0.00     0.135 A 
HETATM    5  N1  UNL     1      27.490   0.982  52.831  1.00  0.00    -0.230 NA
HETATM    6  C11 UNL     1      27.545   0.213  53.939  1.00  0.00     0.224 A 
HETATM    7 CL1  UNL     1      29.083  -0.032  54.768  1.00  0.00    -0.041 Cl
HETATM    8  N2  UNL     1      26.443  -0.401  54.465  1.00  0.00    -0.200 NA
HETATM    9  C12 UNL     1      25.241  -0.235  53.851  1.00  0.00     0.142 A 
HETATM   10  N3  UNL     1      24.158  -0.918  54.482  1.00  0.00    -0.343 N 
HETATM   11  C13 UNL     1      22.804  -0.607  54.128  1.00  0.00     0.022 A 
HETATM   12  C14 UNL     1      21.862  -1.509  54.482  1.00  0.00     0.026 A 
HETATM   13  C15 UNL     1      20.558  -1.025  54.043  1.00  0.00    -0.001 A 
HETATM   14  C16 UNL     1      20.777   0.140  53.450  1.00  0.00    -0.011 A 
HETATM   15  C17 UNL     1      22.204   0.522  53.442  1.00  0.00     0.087 A 
HETATM   16  H10 UNL     1      24.449  -1.627  55.186  1.00  0.00     0.167 HD
ENDROOT
BRANCH   1  17
HETATM   17  C6  UNL     1      21.609   1.153  51.248  1.00  0.00     0.071 C 
BRANCH  17  18
HETATM   18  C5  UNL     1      21.778   1.572  49.874  1.00  0.00    -0.054 A 
HETATM   19  C4  UNL     1      21.715   1.303  48.590  1.00  0.00     0.005 A 
HETATM   20  C3  UNL     1      22.084   2.348  47.659  1.00  0.00     0.004 A 
HETATM   21  C2  UNL     1      22.410   3.368  48.426  1.00  0.00    -0.061 A 
HETATM   22  C1  UNL     1      22.868   4.715  48.054  1.00  0.00     0.045 C 
HETATM   23  C18 UNL     1      22.264   3.010  49.851  1.00  0.00     0.140 A 
HETATM   24 CL2  UNL     1      20.991   4.070  50.522  1.00  0.00    -0.115 Cl
ENDBRANCH  17  18
ENDBRANCH   1  17
TORSDOF 2
ENDMDL
MODEL 6
REMARK VINA RESULT:      -8.8      2.875      6.933
REMARK  2 active torsions:
REMARK  status: ('A' for Active; 'I' for Inactive)
REMARK    1  A    between atoms: C5_5  and  C6_6 
REMARK    2  A    between atoms: C6_6  and  C7_7 
ROOT
HETATM    1  C7  UNL     1      23.632   1.826  52.400  1.00  0.00    -0.061 C 
HETATM    2  C8  UNL     1      24.522   1.290  53.217  1.00  0.00     0.021 C 
HETATM    3  C9  UNL     1      25.947   0.981  53.268  1.00  0.00     0.028 A 
HETATM    4  C10 UNL     1      26.187  -0.023  54.174  1.00  0.00     0.135 A 
HETATM    5  N1  UNL     1      27.503  -0.336  54.247  1.00  0.00    -0.230 NA
HETATM    6  C11 UNL     1      28.452   0.279  53.509  1.00  0.00     0.224 A 
HETATM    7 CL1  UNL     1      30.143  -0.196  53.673  1.00  0.00    -0.041 Cl
HETATM    8  N2  UNL     1      28.162   1.275  52.619  1.00  0.00    -0.200 NA
HETATM    9  C12 UNL     1      26.869   1.666  52.468  1.00  0.00     0.142 A 
HETATM   10  N3  UNL     1      26.677   2.712  51.515  1.00  0.00    -0.343 N 
HETATM   11  C13 UNL     1      25.361   3.024  51.039  1.00  0.00     0.022 A 
HETATM   12  C14 UNL     1      25.204   4.221  50.433  1.00  0.00     0.026 A 
HETATM   13  C15 UNL     1      23.811   4.360  50.020  1.00  0.00    -0.001 A 
HETATM   14  C16 UNL     1      23.202   3.244  50.395  1.00  0.00    -0.011 A 
HETATM   15  C17 UNL     1      24.107   2.293  51.071  1.00  0.00     0.087 A 
HETATM   16  H10 UNL     1      27.553   3.193  51.222  1.00  0.00     0.167 HD
ENDROOT
BRANCH   1  17
HETATM   17  C6  UNL     1      22.208   2.089  52.456  1.00  0.00     0.071 C 
BRANCH  17  18
HETATM   18  C5  UNL     1      21.264   1.071  52.861  1.00  0.00    -0.054 A 
HETATM   19  C4  UNL     1      20.896   0.135  53.705  1.00  0.00     0.005 A 
HETATM   20  C3  UNL     1      19.661  -0.572  53.440  1.00  0.00     0.004 A 
HETATM   21  C2  UNL     1      19.209  -0.033  52.327  1.00  0.00    -0.061 A 
HETATM   22  C1  UNL     1      17.990  -0.337  51.563  1.00  0.00     0.045 C 
HETATM   23  C18 UNL     1      20.131   1.018  51.851  1.00  0.00     0.140 A 
HETATM   24 CL2  UNL     1      19.227   2.559  51.902  1.00  0.00    -0.115 Cl
ENDBRANCH  17  18
ENDBRANCH   1  17
TORSDOF 2
ENDMDL
MODEL 7
REMARK VINA RESULT:      -8.5      2.630      3.701
REMARK  2 active torsions:
REMARK  status: ('A' for Active; 'I' for Inactive)
REMARK    1  A    between atoms: C5_5  and  C6_6 
REMARK    2  A    between atoms: C6_6  and  C7_7 
ROOT
HETATM    1  C7  UNL     1      25.841   2.515  50.884  1.00  0.00    -0.061 C 
HETATM    2  C8  UNL     1      26.479   3.525  50.318  1.00  0.00     0.021 C 
HETATM    3  C9  UNL     1      26.194   4.750  49.577  1.00  0.00     0.028 A 
HETATM    4  C10 UNL     1      27.284   5.119  48.828  1.00  0.00     0.135 A 
HETATM    5  N1  UNL     1      27.055   6.256  48.126  1.00  0.00    -0.230 NA
HETATM    6  C11 UNL     1      25.887   6.930  48.172  1.00  0.00     0.224 A 
HETATM    7 CL1  UNL     1      25.681   8.403  47.223  1.00  0.00    -0.041 Cl
HETATM    8  N2  UNL     1      24.830   6.521  48.935  1.00  0.00    -0.200 NA
HETATM    9  C12 UNL     1      24.954   5.390  49.680  1.00  0.00     0.142 A 
HETATM   10  N3  UNL     1      23.792   5.053  50.438  1.00  0.00    -0.343 N 
HETATM   11  C13 UNL     1      23.669   3.755  51.033  1.00  0.00     0.022 A 
HETATM   12  C14 UNL     1      22.745   3.620  52.009  1.00  0.00     0.026 A 
HETATM   13  C15 UNL     1      22.764   2.242  52.489  1.00  0.00    -0.001 A 
HETATM   14  C16 UNL     1      23.695   1.617  51.781  1.00  0.00    -0.011 A 
HETATM   15  C17 UNL     1      24.357   2.498  50.797  1.00  0.00     0.087 A 
HETATM   16  H10 UNL     1      23.086   5.815  50.505  1.00  0.00     0.167 HD
ENDROOT
BRANCH   1  17
HETATM   17  C6  UNL     1      26.235   1.324  51.610  1.00  0.00     0.071 C 
BRANCH  17  18
HETATM   18  C5  UNL     1      27.304   1.348  52.584  1.00  0.00    -0.054 A 
HETATM   19  C4  UNL     1      28.003   1.998  53.487  1.00  0.00     0.005 A 
HETATM   20  C3  UNL     1      29.073   1.290  54.156  1.00  0.00     0.004 A 
HETATM   21  C2  UNL     1      29.048   0.085  53.626  1.00  0.00    -0.061 A 
HETATM   22  C1  UNL     1      29.899  -1.083  53.904  1.00  0.00     0.045 C 
HETATM   23  C18 UNL     1      27.977  -0.012  52.614  1.00  0.00     0.140 A 
HETATM   24 CL2  UNL     1      26.812  -1.230  53.210  1.00  0.00    -0.115 Cl
ENDBRANCH  17  18
ENDBRANCH   1  17
TORSDOF 2
ENDMDL
MODEL 8
REMARK VINA RESULT:      -8.5      3.318      6.553
REMARK  2 active torsions:
REMARK  status: ('A' for Active; 'I' for Inactive)
REMARK    1  A    between atoms: C5_5  and  C6_6 
REMARK    2  A    between atoms: C6_6  and  C7_7 
ROOT
HETATM    1  C7  UNL     1      23.525   1.761  52.095  1.00  0.00    -0.061 C 
HETATM    2  C8  UNL     1      24.829   1.664  51.903  1.00  0.00     0.021 C 
HETATM    3  C9  UNL     1      25.997   1.012  52.486  1.00  0.00     0.028 A 
HETATM    4  C10 UNL     1      27.142   1.690  52.150  1.00  0.00     0.135 A 
HETATM    5  N1  UNL     1      28.249   1.111  52.674  1.00  0.00    -0.230 NA
HETATM    6  C11 UNL     1      28.209  -0.003  53.436  1.00  0.00     0.224 A 
HETATM    7 CL1  UNL     1      29.704  -0.687  54.077  1.00  0.00    -0.041 Cl
HETATM    8  N2  UNL     1      27.042  -0.643  53.745  1.00  0.00    -0.200 NA
HETATM    9  C12 UNL     1      25.871  -0.144  53.267  1.00  0.00     0.142 A 
HETATM   10  N3  UNL     1      24.714  -0.888  53.648  1.00  0.00    -0.343 N 
HETATM   11  C13 UNL     1      23.405  -0.331  53.469  1.00  0.00     0.022 A 
HETATM   12  C14 UNL     1      22.367  -1.194  53.510  1.00  0.00     0.026 A 
HETATM   13  C15 UNL     1      21.128  -0.451  53.311  1.00  0.00    -0.001 A 
HETATM   14  C16 UNL     1      21.478   0.819  53.163  1.00  0.00    -0.011 A 
HETATM   15  C17 UNL     1      22.939   1.026  53.246  1.00  0.00     0.087 A 
HETATM   16  H10 UNL     1      24.919  -1.828  54.046  1.00  0.00     0.167 HD
ENDROOT
BRANCH   1  17
HETATM   17  C6  UNL     1      22.436   2.454  51.437  1.00  0.00     0.071 C 
BRANCH  17  18
HETATM   18  C5  UNL     1      22.417   2.651  50.004  1.00  0.00    -0.054 A 
HETATM   19  C4  UNL     1      23.062   2.812  48.871  1.00  0.00     0.005 A 
HETATM   20  C3  UNL     1      22.283   2.973  47.663  1.00  0.00     0.004 A 
HETATM   21  C2  UNL     1      21.032   2.909  48.070  1.00  0.00    -0.061 A 
HETATM   22  C1  UNL     1      19.785   3.008  47.296  1.00  0.00     0.045 C 
HETATM   23  C18 UNL     1      20.975   2.712  49.532  1.00  0.00     0.140 A 
HETATM   24 CL2  UNL     1      20.201   1.124  49.808  1.00  0.00    -0.115 Cl
ENDBRANCH  17  18
ENDBRANCH   1  17
TORSDOF 2
ENDMDL
MODEL 9
REMARK VINA RESULT:      -8.4      3.796      5.855
REMARK  2 active torsions:
REMARK  status: ('A' for Active; 'I' for Inactive)
REMARK    1  A    between atoms: C5_5  and  C6_6 
REMARK    2  A    between atoms: C6_6  and  C7_7 
ROOT
HETATM    1  C7  UNL     1      21.784   0.421  51.912  1.00  0.00    -0.061 C 
HETATM    2  C8  UNL     1      20.510   0.613  51.615  1.00  0.00     0.021 C 
HETATM    3  C9  UNL     1      19.202   0.023  51.881  1.00  0.00     0.028 A 
HETATM    4  C10 UNL     1      18.312   0.369  50.894  1.00  0.00     0.135 A 
HETATM    5  N1  UNL     1      17.084  -0.161  51.109  1.00  0.00    -0.230 NA
HETATM    6  C11 UNL     1      16.790  -0.936  52.175  1.00  0.00     0.224 A 
HETATM    7 CL1  UNL     1      15.161  -1.583  52.372  1.00  0.00    -0.041 Cl
HETATM    8  N2  UNL     1      17.712  -1.253  53.132  1.00  0.00    -0.200 NA
HETATM    9  C12 UNL     1      18.978  -0.770  53.012  1.00  0.00     0.142 A 
HETATM   10  N3  UNL     1      19.860  -1.161  54.065  1.00  0.00    -0.343 N 
HETATM   11  C13 UNL     1      21.275  -0.977  53.927  1.00  0.00     0.022 A 
HETATM   12  C14 UNL     1      22.006  -1.028  55.062  1.00  0.00     0.026 A 
HETATM   13  C15 UNL     1      23.411  -0.823  54.726  1.00  0.00    -0.001 A 
HETATM   14  C16 UNL     1      23.457  -0.659  53.411  1.00  0.00    -0.011 A 
HETATM   15  C17 UNL     1      22.126  -0.739  52.775  1.00  0.00     0.087 A 
HETATM   16  H10 UNL     1      19.384  -1.570  54.895  1.00  0.00     0.167 HD
ENDROOT
BRANCH   1  17
HETATM   17  C6  UNL     1      23.029   1.087  51.584  1.00  0.00     0.071 C 
BRANCH  17  18
HETATM   18  C5  UNL     1      23.120   2.035  50.496  1.00  0.00    -0.054 A 
HETATM   19  C4  UNL     1      22.656   2.511  49.363  1.00  0.00     0.005 A 
HETATM   20  C3  UNL     1      23.352   3.628  48.761  1.00  0.00     0.004 A 
HETATM   21  C2  UNL     1      24.344   3.879  49.588  1.00  0.00    -0.061 A 
HETATM   22  C1  UNL     1      25.397   4.904  49.511  1.00  0.00     0.045 C 
HETATM   23  C18 UNL     1      24.317   2.940  50.728  1.00  0.00     0.140 A 
HETATM   24 CL2  UNL     1      24.036   3.920  52.196  1.00  0.00    -0.115 Cl
ENDBRANCH  17  18
ENDBRANCH   1  17
TORSDOF 2
ENDMDL
