MODEL 1
REMARK VINA RESULT:      -8.5      0.000      0.000
REMARK  6 active torsions:
REMARK  status: ('A' for Active; 'I' for Inactive)
REMARK    1  A    between atoms: O1_2  and  C2_3 
REMARK    2  A    between atoms: C6_9  and  N3_10 
REMARK    3  A    between atoms: N3_10  and  C7_11 
REMARK    4  A    between atoms: C7_11  and  C8_12 
REMARK    5  A    between atoms: C7_11  and  C11_16 
REMARK    6  A    between atoms: C8_12  and  C9_13 
ROOT
HETATM    1  C2  UNL     1      20.543   0.583  52.086  1.00  0.00     0.104 A 
HETATM    2  C3  UNL     1      20.484  -0.350  53.084  1.00  0.00     0.072 A 
HETATM    3  C4  UNL     1      21.642  -0.573  53.800  1.00  0.00     0.075 A 
HETATM    4  N1  UNL     1      21.592  -1.549  54.732  1.00  0.00    -0.241 NA
HETATM    5  C5  UNL     1      22.700  -1.868  55.406  1.00  0.00     0.235 A 
HETATM    6  N2  UNL     1      23.851  -1.196  55.132  1.00  0.00    -0.229 NA
HETATM    7  C6  UNL     1      23.859  -0.223  54.192  1.00  0.00     0.122 A 
HETATM    8  C14 UNL     1      22.776   0.145  53.487  1.00  0.00     0.043 A 
HETATM    9  C15 UNL     1      22.876   1.105  52.487  1.00  0.00    -0.004 A 
HETATM   10  C16 UNL     1      21.700   1.286  51.790  1.00  0.00     0.109 A 
HETATM   11  O2  UNL     1      21.486   2.115  50.777  1.00  0.00    -0.348 OA
HETATM   12  C17 UNL     1      21.007   2.028  49.461  1.00  0.00     0.177 C 
HETATM   13  C18 UNL     1      21.073   3.524  48.917  1.00  0.00     0.056 C 
HETATM   14  C19 UNL     1      22.566   3.771  49.182  1.00  0.00     0.272 C 
HETATM   15  N4  UNL     1      23.005   5.103  49.251  1.00  0.00     0.085 N 
HETATM   16  C20 UNL     1      24.468   5.036  49.352  1.00  0.00     0.295 C 
HETATM   17  C21 UNL     1      24.912   4.176  50.527  1.00  0.00     0.197 C 
HETATM   18  O3  UNL     1      24.623   2.834  50.261  1.00  0.00    -0.389 OA
HETATM   19  C22 UNL     1      24.939   1.949  51.253  1.00  0.00     0.172 C 
HETATM   20  C23 UNL     1      24.132   1.864  52.468  1.00  0.00     0.068 C 
HETATM   21  H17 UNL     1      22.795   5.688  48.423  1.00  0.00     0.315 HD
ENDROOT
BRANCH   7  22
HETATM   22  N3  UNL     1      25.167   0.108  54.153  1.00  0.00    -0.242 NA
HETATM   23  H6  UNL     1      25.308   0.202  55.234  1.00  0.00     0.135 HD
BRANCH  22  24
HETATM   24  C7  UNL     1      26.454   0.463  54.347  1.00  0.00     0.025 C 
BRANCH  24  25
HETATM   25  C8  UNL     1      27.674   0.677  54.419  1.00  0.00     0.027 C 
BRANCH  25  26
HETATM   26  C9  UNL     1      28.971   0.928  54.395  1.00  0.00     0.030 C 
HETATM   27  C10 UNL     1      29.897   0.226  53.796  1.00  0.00     0.400 C 
HETATM   28  F1  UNL     1      30.292  -0.847  53.030  1.00  0.00    -0.430 F 
ENDBRANCH  25  26
ENDBRANCH  24  25
BRANCH  24  29
HETATM   29  C11 UNL     1      26.437  -0.798  53.368  1.00  0.00    -0.003 A 
HETATM   30  C12 UNL     1      26.821  -0.868  52.049  1.00  0.00    -0.012 A 
HETATM   31  C13 UNL     1      26.415  -1.958  52.488  1.00  0.00     0.027 A 
ENDBRANCH  24  29
ENDBRANCH  22  24
ENDBRANCH   7  22
BRANCH   1  32
HETATM   32  O1  UNL     1      19.358   0.785  51.381  1.00  0.00    -0.353 OA
HETATM   33  C1  UNL     1      18.302  -0.158  51.465  1.00  0.00     0.210 C 
ENDBRANCH   1  32
TORSDOF 6
ENDMDL
MODEL 2
REMARK VINA RESULT:      -7.8      2.238      3.336
REMARK  6 active torsions:
REMARK  status: ('A' for Active; 'I' for Inactive)
REMARK    1  A    between atoms: O1_2  and  C2_3 
REMARK    2  A    between atoms: C6_9  and  N3_10 
REMARK    3  A    between atoms: N3_10  and  C7_11 
REMARK    4  A    between atoms: C7_11  and  C8_12 
REMARK    5  A    between atoms: C7_11  and  C11_16 
REMARK    6  A    between atoms: C8_12  and  C9_13 
ROOT
HETATM    1  C2  UNL     1      19.618  -0.779  53.400  1.00  0.00     0.104 A 
HETATM    2  C3  UNL     1      20.369  -1.364  54.382  1.00  0.00     0.072 A 
HETATM    3  C4  UNL     1      21.707  -1.032  54.426  1.00  0.00     0.075 A 
HETATM    4  N1  UNL     1      22.453  -1.673  55.352  1.00  0.00    -0.241 NA
HETATM    5  C5  UNL     1      23.771  -1.456  55.395  1.00  0.00     0.235 A 
HETATM    6  N2  UNL     1      24.323  -0.591  54.502  1.00  0.00    -0.229 NA
HETATM    7  C6  UNL     1      23.540   0.033  53.592  1.00  0.00     0.122 A 
HETATM    8  C14 UNL     1      22.211  -0.142  53.503  1.00  0.00     0.043 A 
HETATM    9  C15 UNL     1      21.481   0.480  52.496  1.00  0.00    -0.004 A 
HETATM   10  C16 UNL     1      20.153   0.110  52.483  1.00  0.00     0.109 A 
HETATM   11  O2  UNL     1      19.214   0.518  51.638  1.00  0.00    -0.348 OA
HETATM   12  C17 UNL     1      18.286  -0.075  50.769  1.00  0.00     0.177 C 
HETATM   13  C18 UNL     1      17.520   1.156  50.111  1.00  0.00     0.056 C 
HETATM   14  C19 UNL     1      18.750   1.885  49.549  1.00  0.00     0.272 C 
HETATM   15  N4  UNL     1      18.617   3.248  49.241  1.00  0.00     0.085 N 
HETATM   16  C20 UNL     1      19.874   3.634  48.587  1.00  0.00     0.295 C 
HETATM   17  C21 UNL     1      21.082   3.310  49.455  1.00  0.00     0.197 C 
HETATM   18  O3  UNL     1      21.254   1.924  49.520  1.00  0.00    -0.389 OA
HETATM   19  C22 UNL     1      22.288   1.488  50.299  1.00  0.00     0.172 C 
HETATM   20  C23 UNL     1      22.197   1.527  51.758  1.00  0.00     0.068 C 
HETATM   21  H17 UNL     1      17.857   3.487  48.578  1.00  0.00     0.315 HD
ENDROOT
BRANCH   7  22
HETATM   22  N3  UNL     1      24.456   0.698  52.855  1.00  0.00    -0.242 NA
HETATM   23  H6  UNL     1      23.955   1.670  52.875  1.00  0.00     0.135 HD
BRANCH  22  24
HETATM   24  C7  UNL     1      25.222   1.543  52.136  1.00  0.00     0.025 C 
BRANCH  24  25
HETATM   25  C8  UNL     1      26.023   2.196  51.449  1.00  0.00     0.027 C 
BRANCH  25  26
HETATM   26  C9  UNL     1      26.794   2.946  50.683  1.00  0.00     0.030 C 
HETATM   27  C10 UNL     1      26.409   3.761  49.735  1.00  0.00     0.400 C 
HETATM   28  F1  UNL     1      25.423   4.352  48.979  1.00  0.00    -0.430 F 
ENDBRANCH  25  26
ENDBRANCH  24  25
BRANCH  24  29
HETATM   29  C11 UNL     1      25.974   0.136  52.200  1.00  0.00    -0.003 A 
HETATM   30  C12 UNL     1      27.246  -0.140  52.642  1.00  0.00    -0.012 A 
HETATM   31  C13 UNL     1      26.645  -1.156  52.251  1.00  0.00     0.027 A 
ENDBRANCH  24  29
ENDBRANCH  22  24
ENDBRANCH   7  22
BRANCH   1  32
HETATM   32  O1  UNL     1      18.270  -1.134  53.382  1.00  0.00    -0.353 OA
HETATM   33  C1  UNL     1      17.879  -2.478  53.609  1.00  0.00     0.210 C 
ENDBRANCH   1  32
TORSDOF 6
ENDMDL
MODEL 3
REMARK VINA RESULT:      -7.7      2.279      5.997
REMARK  6 active torsions:
REMARK  status: ('A' for Active; 'I' for Inactive)
REMARK    1  A    between atoms: O1_2  and  C2_3 
REMARK    2  A    between atoms: C6_9  and  N3_10 
REMARK    3  A    between atoms: N3_10  and  C7_11 
REMARK    4  A    between atoms: C7_11  and  C8_12 
REMARK    5  A    between atoms: C7_11  and  C11_16 
REMARK    6  A    between atoms: C8_12  and  C9_13 
ROOT
HETATM    1  C2  UNL     1      20.379   0.204  52.016  1.00  0.00     0.104 A 
HETATM    2  C3  UNL     1      19.635   0.765  51.016  1.00  0.00     0.072 A 
HETATM    3  C4  UNL     1      20.272   1.679  50.201  1.00  0.00     0.075 A 
HETATM    4  N1  UNL     1      19.508   2.281  49.265  1.00  0.00    -0.241 NA
HETATM    5  C5  UNL     1      20.043   3.233  48.495  1.00  0.00     0.235 A 
HETATM    6  N2  UNL     1      21.350   3.567  48.680  1.00  0.00    -0.229 NA
HETATM    7  C6  UNL     1      22.081   2.938  49.627  1.00  0.00     0.122 A 
HETATM    8  C14 UNL     1      21.600   1.971  50.426  1.00  0.00     0.043 A 
HETATM    9  C15 UNL     1      22.392   1.418  51.426  1.00  0.00    -0.004 A 
HETATM   10  C16 UNL     1      21.712   0.521  52.221  1.00  0.00     0.109 A 
HETATM   11  O2  UNL     1      22.189  -0.154  53.260  1.00  0.00    -0.348 OA
HETATM   12  C17 UNL     1      21.854  -0.333  54.610  1.00  0.00     0.177 C 
HETATM   13  C18 UNL     1      22.971  -1.324  55.165  1.00  0.00     0.056 C 
HETATM   14  C19 UNL     1      24.198  -0.485  54.778  1.00  0.00     0.272 C 
HETATM   15  N4  UNL     1      25.436  -1.142  54.688  1.00  0.00     0.085 N 
HETATM   16  C20 UNL     1      26.432  -0.086  54.463  1.00  0.00     0.295 C 
HETATM   17  C21 UNL     1      26.090   0.758  53.245  1.00  0.00     0.197 C 
HETATM   18  O3  UNL     1      24.962   1.539  53.517  1.00  0.00    -0.389 OA
HETATM   19  C22 UNL     1      24.521   2.327  52.492  1.00  0.00     0.172 C 
HETATM   20  C23 UNL     1      23.820   1.746  51.347  1.00  0.00     0.068 C 
HETATM   21  H17 UNL     1      25.736  -1.651  55.539  1.00  0.00     0.315 HD
ENDROOT
BRANCH   7  22
HETATM   22  N3  UNL     1      23.251   3.610  49.559  1.00  0.00    -0.242 NA
HETATM   23  H6  UNL     1      23.257   3.746  48.474  1.00  0.00     0.135 HD
BRANCH  22  24
HETATM   24  C7  UNL     1      24.387   4.272  49.259  1.00  0.00     0.025 C 
BRANCH  24  25
HETATM   25  C8  UNL     1      25.379   4.994  49.080  1.00  0.00     0.027 C 
BRANCH  25  26
HETATM   26  C9  UNL     1      26.370   5.842  48.869  1.00  0.00     0.030 C 
HETATM   27  C10 UNL     1      27.595   5.549  48.517  1.00  0.00     0.400 C 
HETATM   28  F1  UNL     1      28.571   4.635  48.191  1.00  0.00    -0.430 F 
ENDBRANCH  25  26
ENDBRANCH  24  25
BRANCH  24  29
HETATM   29  C11 UNL     1      23.500   5.219  50.189  1.00  0.00    -0.003 A 
HETATM   30  C12 UNL     1      23.774   5.682  51.454  1.00  0.00    -0.012 A 
HETATM   31  C13 UNL     1      22.678   6.084  51.024  1.00  0.00     0.027 A 
ENDBRANCH  24  29
ENDBRANCH  22  24
ENDBRANCH   7  22
BRANCH   1  32
HETATM   32  O1  UNL     1      19.707  -0.714  52.822  1.00  0.00    -0.353 OA
HETATM   33  C1  UNL     1      18.294  -0.817  52.769  1.00  0.00     0.210 C 
ENDBRANCH   1  32
TORSDOF 6
ENDMDL
MODEL 4
REMARK VINA RESULT:      -7.7      3.246      7.634
REMARK  6 active torsions:
REMARK  status: ('A' for Active; 'I' for Inactive)
REMARK    1  A    between atoms: O1_2  and  C2_3 
REMARK    2  A    between atoms: C6_9  and  N3_10 
REMARK    3  A    between atoms: N3_10  and  C7_11 
REMARK    4  A    between atoms: C7_11  and  C8_12 
REMARK    5  A    between atoms: C7_11  and  C11_16 
REMARK    6  A    between atoms: C8_12  and  C9_13 
ROOT
HETATM    1  C2  UNL     1      25.488   1.158  53.227  1.00  0.00     0.104 A 
HETATM    2  C3  UNL     1      26.448   1.904  52.600  1.00  0.00     0.072 A 
HETATM    3  C4  UNL     1      26.070   2.572  51.454  1.00  0.00     0.075 A 
HETATM    4  N1  UNL     1      27.044   3.244  50.803  1.00  0.00    -0.241 NA
HETATM    5  C5  UNL     1      26.762   3.847  49.645  1.00  0.00     0.235 A 
HETATM    6  N2  UNL     1      25.495   3.765  49.154  1.00  0.00    -0.229 NA
HETATM    7  C6  UNL     1      24.548   3.084  49.838  1.00  0.00     0.122 A 
HETATM    8  C14 UNL     1      24.770   2.463  51.008  1.00  0.00     0.043 A 
HETATM    9  C15 UNL     1      23.765   1.723  51.619  1.00  0.00    -0.004 A 
HETATM   10  C16 UNL     1      24.190   1.064  52.753  1.00  0.00     0.109 A 
HETATM   11  O2  UNL     1      23.471   0.272  53.539  1.00  0.00    -0.348 OA
HETATM   12  C17 UNL     1      23.560  -1.037  54.036  1.00  0.00     0.177 C 
HETATM   13  C18 UNL     1      22.253  -1.208  54.931  1.00  0.00     0.056 C 
HETATM   14  C19 UNL     1      21.219  -0.860  53.849  1.00  0.00     0.272 C 
HETATM   15  N4  UNL     1      19.939  -0.466  54.272  1.00  0.00     0.085 N 
HETATM   16  C20 UNL     1      19.132  -0.353  53.050  1.00  0.00     0.295 C 
HETATM   17  C21 UNL     1      19.769   0.593  52.043  1.00  0.00     0.197 C 
HETATM   18  O3  UNL     1      20.927   0.010  51.519  1.00  0.00    -0.389 OA
HETATM   19  C22 UNL     1      21.622   0.769  50.621  1.00  0.00     0.172 C 
HETATM   20  C23 UNL     1      22.420   1.912  51.063  1.00  0.00     0.068 C 
HETATM   21  H17 UNL     1      19.444  -1.136  54.889  1.00  0.00     0.315 HD
ENDROOT
BRANCH   7  22
HETATM   22  N3  UNL     1      23.498   3.153  48.991  1.00  0.00    -0.242 NA
HETATM   23  H6  UNL     1      24.067   3.005  48.069  1.00  0.00     0.135 HD
BRANCH  22  24
HETATM   24  C7  UNL     1      22.611   3.206  47.976  1.00  0.00     0.025 C 
BRANCH  24  25
HETATM   25  C8  UNL     1      21.760   3.400  47.095  1.00  0.00     0.027 C 
BRANCH  25  26
HETATM   26  C9  UNL     1      20.929   3.650  46.099  1.00  0.00     0.030 C 
HETATM   27  C10 UNL     1      21.135   4.446  45.082  1.00  0.00     0.400 C 
HETATM   28  F1  UNL     1      21.926   5.327  44.380  1.00  0.00    -0.430 F 
ENDBRANCH  25  26
ENDBRANCH  24  25
BRANCH  24  29
HETATM   29  C11 UNL     1      22.450   4.541  48.836  1.00  0.00    -0.003 A 
HETATM   30  C12 UNL     1      22.608   5.847  48.434  1.00  0.00    -0.012 A 
HETATM   31  C13 UNL     1      22.299   5.750  49.634  1.00  0.00     0.027 A 
ENDBRANCH  24  29
ENDBRANCH  22  24
ENDBRANCH   7  22
BRANCH   1  32
HETATM   32  O1  UNL     1      25.901   0.496  54.382  1.00  0.00    -0.353 OA
HETATM   33  C1  UNL     1      27.279   0.264  54.624  1.00  0.00     0.210 C 
ENDBRANCH   1  32
TORSDOF 6
ENDMDL
MODEL 5
REMARK VINA RESULT:      -7.1      3.593      6.722
REMARK  6 active torsions:
REMARK  status: ('A' for Active; 'I' for Inactive)
REMARK    1  A    between atoms: O1_2  and  C2_3 
REMARK    2  A    between atoms: C6_9  and  N3_10 
REMARK    3  A    between atoms: N3_10  and  C7_11 
REMARK    4  A    between atoms: C7_11  and  C8_12 
REMARK    5  A    between atoms: C7_11  and  C11_16 
REMARK    6  A    between atoms: C8_12  and  C9_13 
ROOT
HETATM    1  C2  UNL     1      24.549  -0.072  52.968  1.00  0.00     0.104 A 
HETATM    2  C3  UNL     1      23.749  -0.979  53.606  1.00  0.00     0.072 A 
HETATM    3  C4  UNL     1      22.386  -0.805  53.482  1.00  0.00     0.075 A 
HETATM    4  N1  UNL     1      21.607  -1.661  54.177  1.00  0.00    -0.241 NA
HETATM    5  C5  UNL     1      20.281  -1.499  54.163  1.00  0.00     0.235 A 
HETATM    6  N2  UNL     1      19.753  -0.471  53.444  1.00  0.00    -0.229 NA
HETATM    7  C6  UNL     1      20.568   0.363  52.759  1.00  0.00     0.122 A 
HETATM    8  C14 UNL     1      21.907   0.248  52.732  1.00  0.00     0.043 A 
HETATM    9  C15 UNL     1      22.685   1.185  52.063  1.00  0.00    -0.004 A 
HETATM   10  C16 UNL     1      24.039   0.979  52.224  1.00  0.00     0.109 A 
HETATM   11  O2  UNL     1      25.027   1.710  51.725  1.00  0.00    -0.348 OA
HETATM   12  C17 UNL     1      26.153   2.389  52.215  1.00  0.00     0.177 C 
HETATM   13  C18 UNL     1      26.826   3.024  50.919  1.00  0.00     0.056 C 
HETATM   14  C19 UNL     1      25.605   3.812  50.421  1.00  0.00     0.272 C 
HETATM   15  N4  UNL     1      25.586   4.203  49.073  1.00  0.00     0.085 N 
HETATM   16  C20 UNL     1      24.401   5.058  48.922  1.00  0.00     0.295 C 
HETATM   17  C21 UNL     1      23.135   4.349  49.378  1.00  0.00     0.197 C 
HETATM   18  O3  UNL     1      23.155   4.201  50.769  1.00  0.00    -0.389 OA
HETATM   19  C22 UNL     1      22.088   3.547  51.314  1.00  0.00     0.172 C 
HETATM   20  C23 UNL     1      21.948   2.097  51.180  1.00  0.00     0.068 C 
HETATM   21  H17 UNL     1      26.396   4.767  48.757  1.00  0.00     0.315 HD
ENDROOT
BRANCH   7  22
HETATM   22  N3  UNL     1      19.690   1.273  52.285  1.00  0.00    -0.242 NA
HETATM   23  H6  UNL     1      19.947   2.075  52.983  1.00  0.00     0.135 HD
BRANCH  22  24
HETATM   24  C7  UNL     1      18.887   2.315  51.988  1.00  0.00     0.025 C 
BRANCH  24  25
HETATM   25  C8  UNL     1      18.067   3.172  51.624  1.00  0.00     0.027 C 
BRANCH  25  26
HETATM   26  C9  UNL     1      17.139   4.061  51.321  1.00  0.00     0.030 C 
HETATM   27  C10 UNL     1      16.092   4.382  52.036  1.00  0.00     0.400 C 
HETATM   28  F1  UNL     1      15.309   4.242  53.159  1.00  0.00    -0.430 F 
ENDBRANCH  25  26
ENDBRANCH  24  25
BRANCH  24  29
HETATM   29  C11 UNL     1      18.414   1.068  51.111  1.00  0.00    -0.003 A 
HETATM   30  C12 UNL     1      17.198   0.427  51.114  1.00  0.00    -0.012 A 
HETATM   31  C13 UNL     1      17.998  -0.070  50.303  1.00  0.00     0.027 A 
ENDBRANCH  24  29
ENDBRANCH  22  24
ENDBRANCH   7  22
BRANCH   1  32
HETATM   32  O1  UNL     1      25.921  -0.275  53.112  1.00  0.00    -0.353 OA
HETATM   33  C1  UNL     1      26.535  -1.436  52.579  1.00  0.00     0.210 C 
ENDBRANCH   1  32
TORSDOF 6
ENDMDL
MODEL 6
REMARK VINA RESULT:      -7.0      3.212      7.954
REMARK  6 active torsions:
REMARK  status: ('A' for Active; 'I' for Inactive)
REMARK    1  A    between atoms: O1_2  and  C2_3 
REMARK    2  A    between atoms: C6_9  and  N3_10 
REMARK    3  A    between atoms: N3_10  and  C7_11 
REMARK    4  A    between atoms: C7_11  and  C8_12 
REMARK    5  A    between atoms: C7_11  and  C11_16 
REMARK    6  A    between atoms: C8_12  and  C9_13 
ROOT
HETATM    1  C2  UNL     1      26.556   1.872  52.122  1.00  0.00     0.104 A 
HETATM    2  C3  UNL     1      26.976   2.858  51.272  1.00  0.00     0.072 A 
HETATM    3  C4  UNL     1      25.999   3.557  50.594  1.00  0.00     0.075 A 
HETATM    4  N1  UNL     1      26.429   4.476  49.704  1.00  0.00    -0.241 NA
HETATM    5  C5  UNL     1      25.536   5.132  48.957  1.00  0.00     0.235 A 
HETATM    6  N2  UNL     1      24.214   4.852  49.119  1.00  0.00    -0.229 NA
HETATM    7  C6  UNL     1      23.825   3.925  50.024  1.00  0.00     0.122 A 
HETATM    8  C14 UNL     1      24.675   3.238  50.805  1.00  0.00     0.043 A 
HETATM    9  C15 UNL     1      24.206   2.250  51.663  1.00  0.00    -0.004 A 
HETATM   10  C16 UNL     1      25.217   1.571  52.310  1.00  0.00     0.109 A 
HETATM   11  O2  UNL     1      25.089   0.571  53.173  1.00  0.00    -0.348 OA
HETATM   12  C17 UNL     1      25.571  -0.740  53.306  1.00  0.00     0.177 C 
HETATM   13  C18 UNL     1      24.917  -1.265  54.660  1.00  0.00     0.056 C 
HETATM   14  C19 UNL     1      23.447  -1.015  54.287  1.00  0.00     0.272 C 
HETATM   15  N4  UNL     1      22.513  -0.934  55.332  1.00  0.00     0.085 N 
HETATM   16  C20 UNL     1      21.197  -0.852  54.685  1.00  0.00     0.295 C 
HETATM   17  C21 UNL     1      21.126   0.305  53.700  1.00  0.00     0.197 C 
HETATM   18  O3  UNL     1      21.929   0.025  52.590  1.00  0.00    -0.389 OA
HETATM   19  C22 UNL     1      21.985   1.001  51.635  1.00  0.00     0.172 C 
HETATM   20  C23 UNL     1      22.752   2.226  51.858  1.00  0.00     0.068 C 
HETATM   21  H17 UNL     1      22.477  -1.752  55.967  1.00  0.00     0.315 HD
ENDROOT
BRANCH   7  22
HETATM   22  N3  UNL     1      22.493   3.875  49.806  1.00  0.00    -0.242 NA
HETATM   23  H6  UNL     1      22.279   4.912  50.078  1.00  0.00     0.135 HD
BRANCH  22  24
HETATM   24  C7  UNL     1      21.161   4.043  49.671  1.00  0.00     0.025 C 
BRANCH  24  25
HETATM   25  C8  UNL     1      19.946   4.091  49.429  1.00  0.00     0.027 C 
BRANCH  25  26
HETATM   26  C9  UNL     1      18.675   4.179  49.078  1.00  0.00     0.030 C 
HETATM   27  C10 UNL     1      17.658   4.437  49.858  1.00  0.00     0.400 C 
HETATM   28  F1  UNL     1      17.129   4.718  51.097  1.00  0.00    -0.430 F 
ENDBRANCH  25  26
ENDBRANCH  24  25
BRANCH  24  29
HETATM   29  C11 UNL     1      21.649   3.054  48.516  1.00  0.00    -0.003 A 
HETATM   30  C12 UNL     1      21.321   1.733  48.321  1.00  0.00    -0.012 A 
HETATM   31  C13 UNL     1      22.104   2.164  47.457  1.00  0.00     0.027 A 
ENDBRANCH  24  29
ENDBRANCH  22  24
ENDBRANCH   7  22
BRANCH   1  32
HETATM   32  O1  UNL     1      27.567   1.184  52.792  1.00  0.00    -0.353 OA
HETATM   33  C1  UNL     1      28.423   1.866  53.694  1.00  0.00     0.210 C 
ENDBRANCH   1  32
TORSDOF 6
ENDMDL
MODEL 7
REMARK VINA RESULT:      -6.9      2.980      7.737
REMARK  6 active torsions:
REMARK  status: ('A' for Active; 'I' for Inactive)
REMARK    1  A    between atoms: O1_2  and  C2_3 
REMARK    2  A    between atoms: C6_9  and  N3_10 
REMARK    3  A    between atoms: N3_10  and  C7_11 
REMARK    4  A    between atoms: C7_11  and  C8_12 
REMARK    5  A    between atoms: C7_11  and  C11_16 
REMARK    6  A    between atoms: C8_12  and  C9_13 
ROOT
HETATM    1  C2  UNL     1      24.864   2.745  50.475  1.00  0.00     0.104 A 
HETATM    2  C3  UNL     1      24.163   3.491  49.567  1.00  0.00     0.072 A 
HETATM    3  C4  UNL     1      22.793   3.329  49.550  1.00  0.00     0.075 A 
HETATM    4  N1  UNL     1      22.121   4.014  48.601  1.00  0.00    -0.241 NA
HETATM    5  C5  UNL     1      20.802   3.841  48.479  1.00  0.00     0.235 A 
HETATM    6  N2  UNL     1      20.173   2.975  49.320  1.00  0.00    -0.229 NA
HETATM    7  C6  UNL     1      20.884   2.309  50.259  1.00  0.00     0.122 A 
HETATM    8  C14 UNL     1      22.209   2.446  50.433  1.00  0.00     0.043 A 
HETATM    9  C15 UNL     1      22.883   1.676  51.373  1.00  0.00    -0.004 A 
HETATM   10  C16 UNL     1      24.249   1.862  51.347  1.00  0.00     0.109 A 
HETATM   11  O2  UNL     1      25.156   1.262  52.107  1.00  0.00    -0.348 OA
HETATM   12  C17 UNL     1      26.326   0.513  51.914  1.00  0.00     0.177 C 
HETATM   13  C18 UNL     1      26.820   0.165  53.387  1.00  0.00     0.056 C 
HETATM   14  C19 UNL     1      25.535  -0.520  53.877  1.00  0.00     0.272 C 
HETATM   15  N4  UNL     1      25.339  -0.626  55.263  1.00  0.00     0.085 N 
HETATM   16  C20 UNL     1      24.134  -1.448  55.434  1.00  0.00     0.295 C 
HETATM   17  C21 UNL     1      22.945  -0.864  54.684  1.00  0.00     0.197 C 
HETATM   18  O3  UNL     1      23.145  -1.005  53.307  1.00  0.00    -0.389 OA
HETATM   19  C22 UNL     1      22.164  -0.490  52.508  1.00  0.00     0.172 C 
HETATM   20  C23 UNL     1      22.028   0.954  52.323  1.00  0.00     0.068 C 
HETATM   21  H17 UNL     1      26.095  -1.103  55.788  1.00  0.00     0.315 HD
ENDROOT
BRANCH   7  22
HETATM   22  N3  UNL     1      19.940   1.505  50.795  1.00  0.00    -0.242 NA
HETATM   23  H6  UNL     1      20.599   0.658  51.007  1.00  0.00     0.135 HD
BRANCH  22  24
HETATM   24  C7  UNL     1      19.169   0.542  51.340  1.00  0.00     0.025 C 
BRANCH  24  25
HETATM   25  C8  UNL     1      18.352  -0.230  51.866  1.00  0.00     0.027 C 
BRANCH  25  26
HETATM   26  C9  UNL     1      17.424  -1.042  52.340  1.00  0.00     0.030 C 
HETATM   27  C10 UNL     1      17.577  -1.961  53.258  1.00  0.00     0.400 C 
HETATM   28  F1  UNL     1      18.357  -2.651  54.157  1.00  0.00    -0.430 F 
ENDBRANCH  25  26
ENDBRANCH  24  25
BRANCH  24  29
HETATM   29  C11 UNL     1      18.410   1.935  51.518  1.00  0.00    -0.003 A 
HETATM   30  C12 UNL     1      17.166   2.301  51.060  1.00  0.00    -0.012 A 
HETATM   31  C13 UNL     1      17.732   3.212  51.689  1.00  0.00     0.027 A 
ENDBRANCH  24  29
ENDBRANCH  22  24
ENDBRANCH   7  22
BRANCH   1  32
HETATM   32  O1  UNL     1      26.245   2.932  50.467  1.00  0.00    -0.353 OA
HETATM   33  C1  UNL     1      26.853   3.757  49.487  1.00  0.00     0.210 C 
ENDBRANCH   1  32
TORSDOF 6
ENDMDL
MODEL 8
REMARK VINA RESULT:      -6.8      3.094      6.250
REMARK  6 active torsions:
REMARK  status: ('A' for Active; 'I' for Inactive)
REMARK    1  A    between atoms: O1_2  and  C2_3 
REMARK    2  A    between atoms: C6_9  and  N3_10 
REMARK    3  A    between atoms: N3_10  and  C7_11 
REMARK    4  A    between atoms: C7_11  and  C8_12 
REMARK    5  A    between atoms: C7_11  and  C11_16 
REMARK    6  A    between atoms: C8_12  and  C9_13 
ROOT
HETATM    1  C2  UNL     1      21.526   0.004  53.023  1.00  0.00     0.104 A 
HETATM    2  C3  UNL     1      20.295   0.493  52.686  1.00  0.00     0.072 A 
HETATM    3  C4  UNL     1      20.252   1.764  52.151  1.00  0.00     0.075 A 
HETATM    4  N1  UNL     1      19.025   2.264  51.892  1.00  0.00    -0.241 NA
HETATM    5  C5  UNL     1      18.909   3.518  51.447  1.00  0.00     0.235 A 
HETATM    6  N2  UNL     1      20.039   4.257  51.268  1.00  0.00    -0.229 NA
HETATM    7  C6  UNL     1      21.249   3.718  51.537  1.00  0.00     0.122 A 
HETATM    8  C14 UNL     1      21.428   2.462  51.981  1.00  0.00     0.043 A 
HETATM    9  C15 UNL     1      22.698   1.999  52.303  1.00  0.00    -0.004 A 
HETATM   10  C16 UNL     1      22.691   0.731  52.844  1.00  0.00     0.109 A 
HETATM   11  O2  UNL     1      23.738   0.031  53.263  1.00  0.00    -0.348 OA
HETATM   12  C17 UNL     1      24.133  -0.624  54.439  1.00  0.00     0.177 C 
HETATM   13  C18 UNL     1      25.564  -1.230  54.091  1.00  0.00     0.056 C 
HETATM   14  C19 UNL     1      26.244   0.081  53.671  1.00  0.00     0.272 C 
HETATM   15  N4  UNL     1      27.400  -0.007  52.879  1.00  0.00     0.085 N 
HETATM   16  C20 UNL     1      27.913   1.364  52.766  1.00  0.00     0.295 C 
HETATM   17  C21 UNL     1      26.859   2.315  52.219  1.00  0.00     0.197 C 
HETATM   18  O3  UNL     1      25.857   2.506  53.175  1.00  0.00    -0.389 OA
HETATM   19  C22 UNL     1      24.823   3.316  52.801  1.00  0.00     0.172 C 
HETATM   20  C23 UNL     1      23.808   2.850  51.857  1.00  0.00     0.068 C 
HETATM   21  H17 UNL     1      28.171  -0.577  53.272  1.00  0.00     0.315 HD
ENDROOT
BRANCH   7  22
HETATM   22  N3  UNL     1      22.068   4.773  51.336  1.00  0.00    -0.242 NA
HETATM   23  H6  UNL     1      21.332   5.551  51.559  1.00  0.00     0.135 HD
BRANCH  22  24
HETATM   24  C7  UNL     1      22.694   5.956  51.173  1.00  0.00     0.025 C 
BRANCH  24  25
HETATM   25  C8  UNL     1      23.294   7.000  50.872  1.00  0.00     0.027 C 
BRANCH  25  26
HETATM   26  C9  UNL     1      24.021   8.056  50.556  1.00  0.00     0.030 C 
HETATM   27  C10 UNL     1      24.785   8.201  49.505  1.00  0.00     0.400 C 
HETATM   28  F1  UNL     1      25.325   7.726  48.332  1.00  0.00    -0.430 F 
ENDBRANCH  25  26
ENDBRANCH  24  25
BRANCH  24  29
HETATM   29  C11 UNL     1      22.836   5.136  49.810  1.00  0.00    -0.003 A 
HETATM   30  C12 UNL     1      22.387   5.470  48.554  1.00  0.00    -0.012 A 
HETATM   31  C13 UNL     1      22.974   4.374  48.577  1.00  0.00     0.027 A 
ENDBRANCH  24  29
ENDBRANCH  22  24
ENDBRANCH   7  22
BRANCH   1  32
HETATM   32  O1  UNL     1      21.536  -1.283  53.560  1.00  0.00    -0.353 OA
HETATM   33  C1  UNL     1      20.400  -1.784  54.244  1.00  0.00     0.210 C 
ENDBRANCH   1  32
TORSDOF 6
ENDMDL
MODEL 9
REMARK VINA RESULT:      -6.7      3.115      5.466
REMARK  6 active torsions:
REMARK  status: ('A' for Active; 'I' for Inactive)
REMARK    1  A    between atoms: O1_2  and  C2_3 
REMARK    2  A    between atoms: C6_9  and  N3_10 
REMARK    3  A    between atoms: N3_10  and  C7_11 
REMARK    4  A    between atoms: C7_11  and  C8_12 
REMARK    5  A    between atoms: C7_11  and  C11_16 
REMARK    6  A    between atoms: C8_12  and  C9_13 
ROOT
HETATM    1  C2  UNL     1      21.945   0.049  53.207  1.00  0.00     0.104 A 
HETATM    2  C3  UNL     1      23.225  -0.147  53.646  1.00  0.00     0.072 A 
HETATM    3  C4  UNL     1      24.153   0.821  53.320  1.00  0.00     0.075 A 
HETATM    4  N1  UNL     1      25.428   0.579  53.694  1.00  0.00    -0.241 NA
HETATM    5  C5  UNL     1      26.388   1.438  53.341  1.00  0.00     0.235 A 
HETATM    6  N2  UNL     1      26.049   2.536  52.611  1.00  0.00    -0.229 NA
HETATM    7  C6  UNL     1      24.760   2.742  52.258  1.00  0.00     0.122 A 
HETATM    8  C14 UNL     1      23.752   1.918  52.588  1.00  0.00     0.043 A 
HETATM    9  C15 UNL     1      22.462   2.158  52.130  1.00  0.00    -0.004 A 
HETATM   10  C16 UNL     1      21.573   1.161  52.469  1.00  0.00     0.109 A 
HETATM   11  O2  UNL     1      20.283   1.097  52.164  1.00  0.00    -0.348 OA
HETATM   12  C17 UNL     1      19.418   0.187  51.536  1.00  0.00     0.177 C 
HETATM   13  C18 UNL     1      17.995   0.900  51.582  1.00  0.00     0.056 C 
HETATM   14  C19 UNL     1      18.396   2.202  50.872  1.00  0.00     0.272 C 
HETATM   15  N4  UNL     1      17.570   3.323  51.049  1.00  0.00     0.085 N 
HETATM   16  C20 UNL     1      18.097   4.354  50.146  1.00  0.00     0.295 C 
HETATM   17  C21 UNL     1      19.572   4.625  50.403  1.00  0.00     0.197 C 
HETATM   18  O3  UNL     1      20.330   3.525  49.990  1.00  0.00    -0.389 OA
HETATM   19  C22 UNL     1      21.678   3.619  50.195  1.00  0.00     0.172 C 
HETATM   20  C23 UNL     1      22.244   3.482  51.536  1.00  0.00     0.068 C 
HETATM   21  H17 UNL     1      16.574   3.192  50.794  1.00  0.00     0.315 HD
ENDROOT
BRANCH   7  22
HETATM   22  N3  UNL     1      24.863   3.843  51.483  1.00  0.00    -0.242 NA
HETATM   23  H6  UNL     1      24.191   4.477  52.069  1.00  0.00     0.135 HD
BRANCH  22  24
HETATM   24  C7  UNL     1      24.805   5.034  50.852  1.00  0.00     0.025 C 
BRANCH  24  25
HETATM   25  C8  UNL     1      24.839   6.062  50.158  1.00  0.00     0.027 C 
BRANCH  25  26
HETATM   26  C9  UNL     1      24.956   7.186  49.475  1.00  0.00     0.030 C 
HETATM   27  C10 UNL     1      24.125   8.195  49.470  1.00  0.00     0.400 C 
HETATM   28  F1  UNL     1      22.966   8.806  49.892  1.00  0.00    -0.430 F 
ENDBRANCH  25  26
ENDBRANCH  24  25
BRANCH  24  29
HETATM   29  C11 UNL     1      25.751   4.074  49.997  1.00  0.00    -0.003 A 
HETATM   30  C12 UNL     1      26.880   4.394  49.280  1.00  0.00    -0.012 A 
HETATM   31  C13 UNL     1      26.603   3.183  49.221  1.00  0.00     0.027 A 
ENDBRANCH  24  29
ENDBRANCH  22  24
ENDBRANCH   7  22
BRANCH   1  32
HETATM   32  O1  UNL     1      21.032  -0.946  53.552  1.00  0.00    -0.353 OA
HETATM   33  C1  UNL     1      21.414  -2.002  54.418  1.00  0.00     0.210 C 
ENDBRANCH   1  32
TORSDOF 6
ENDMDL
