MODEL 1
REMARK VINA RESULT:      -8.5      0.000      0.000
REMARK  7 active torsions:
REMARK  status: ('A' for Active; 'I' for Inactive)
REMARK    1  A    between atoms: O1_2  and  C2_3 
REMARK    2  A    between atoms: C4_6  and  N1_8 
REMARK    3  A    between atoms: N1_8  and  C6_9 
REMARK    4  A    between atoms: C9_12  and  N2_13 
REMARK       I    between atoms: N2_13  and  C10_14 
REMARK       I    between atoms: C10_14  and  N3_16 
REMARK    5  A    between atoms: C14_20  and  C15_21 
REMARK    6  A    between atoms: C15_21  and  N4_22 
REMARK    7  A    between atoms: C16_23  and  O4_24 
ROOT
HETATM    1  C6  UNL     1      25.064   3.158  50.601  1.00  0.00     0.030 A 
HETATM    2  C7  UNL     1      24.379   4.377  50.662  1.00  0.00     0.031 A 
HETATM    3  C8  UNL     1      24.970   5.454  50.049  1.00  0.00     0.032 A 
HETATM    4  C9  UNL     1      26.154   5.465  49.385  1.00  0.00     0.036 A 
HETATM    5  C17 UNL     1      26.798   4.251  49.344  1.00  0.00     0.032 A 
HETATM    6  C18 UNL     1      26.277   3.129  49.930  1.00  0.00     0.031 A 
ENDROOT
BRANCH   4   7
HETATM    7  N2  UNL     1      26.744   6.588  48.759  1.00  0.00    -0.308 N 
HETATM    8  C10 UNL     1      27.017   7.876  49.225  1.00  0.00     0.329 C 
HETATM    9  O3  UNL     1      26.689   8.117  50.419  1.00  0.00    -0.246 OA
HETATM   10  N3  UNL     1      27.622   8.926  48.486  1.00  0.00    -0.279 N 
HETATM   11  C11 UNL     1      28.022   8.744  47.137  1.00  0.00     0.099 A 
HETATM   12  C16 UNL     1      27.830  10.205  49.131  1.00  0.00     0.261 A 
HETATM   13  C12 UNL     1      28.590   9.670  46.386  1.00  0.00     0.018 A 
HETATM   14  C13 UNL     1      28.853  10.999  46.920  1.00  0.00     0.010 A 
HETATM   15  C14 UNL     1      28.468  11.132  48.176  1.00  0.00    -0.004 A 
HETATM   16  H11 UNL     1      27.050   6.481  47.761  1.00  0.00     0.170 HD
BRANCH  15  17
HETATM   17  C15 UNL     1      28.673  12.452  48.872  1.00  0.00     0.305 C 
BRANCH  17  18
HETATM   18  N4  UNL     1      30.031  12.410  49.388  1.00  0.00     0.082 N 
HETATM   19  H17 UNL     1      30.737  12.151  48.679  1.00  0.00     0.313 HD
HETATM   20  H18 UNL     1      30.246  13.336  49.824  1.00  0.00     0.313 HD
ENDBRANCH  17  18
ENDBRANCH  15  17
BRANCH  12  21
HETATM   21  O4  UNL     1      28.686   9.938  50.225  1.00  0.00    -0.372 OA
HETATM   22  H20 UNL     1      29.569   9.707  49.797  1.00  0.00     0.212 HD
ENDBRANCH  12  21
ENDBRANCH   4   7
BRANCH   1  23
HETATM   23  N1  UNL     1      24.549   1.962  51.217  1.00  0.00    -0.358 N 
HETATM   24  H8  UNL     1      23.680   1.601  50.712  1.00  0.00     0.162 HD
BRANCH  23  25
HETATM   25  C4  UNL     1      25.061   1.231  52.396  1.00  0.00     0.139 C 
HETATM   26  O2  UNL     1      25.820   0.190  51.880  1.00  0.00    -0.329 OA
HETATM   27  C3  UNL     1      26.699  -0.716  52.448  1.00  0.00     0.174 C 
HETATM   28  C2  UNL     1      27.699  -0.298  53.247  1.00  0.00     0.089 C 
HETATM   29  C21 UNL     1      28.071   1.074  53.672  1.00  0.00     0.035 C 
HETATM   30  C20 UNL     1      27.122   2.030  53.646  1.00  0.00    -0.019 C 
HETATM   31  C19 UNL     1      25.712   2.179  53.307  1.00  0.00     0.088 C 
HETATM   32  C5  UNL     1      23.823   0.634  53.043  1.00  0.00     0.071 C 
BRANCH  28  33
HETATM   33  O1  UNL     1      28.556  -1.275  53.791  1.00  0.00    -0.354 OA
HETATM   34  C1  UNL     1      29.942  -0.934  53.710  1.00  0.00     0.210 C 
ENDBRANCH  28  33
ENDBRANCH  23  25
ENDBRANCH   1  23
TORSDOF 7
ENDMDL
MODEL 2
REMARK VINA RESULT:      -8.1      4.291      6.353
REMARK  7 active torsions:
REMARK  status: ('A' for Active; 'I' for Inactive)
REMARK    1  A    between atoms: O1_2  and  C2_3 
REMARK    2  A    between atoms: C4_6  and  N1_8 
REMARK    3  A    between atoms: N1_8  and  C6_9 
REMARK    4  A    between atoms: C9_12  and  N2_13 
REMARK       I    between atoms: N2_13  and  C10_14 
REMARK       I    between atoms: C10_14  and  N3_16 
REMARK    5  A    between atoms: C14_20  and  C15_21 
REMARK    6  A    between atoms: C15_21  and  N4_22 
REMARK    7  A    between atoms: C16_23  and  O4_24 
ROOT
HETATM    1  C6  UNL     1      22.293   1.032  51.068  1.00  0.00     0.030 A 
HETATM    2  C7  UNL     1      22.130   1.650  49.823  1.00  0.00     0.031 A 
HETATM    3  C8  UNL     1      23.121   2.510  49.420  1.00  0.00     0.032 A 
HETATM    4  C9  UNL     1      24.250   2.828  50.103  1.00  0.00     0.036 A 
HETATM    5  C17 UNL     1      24.379   2.203  51.320  1.00  0.00     0.032 A 
HETATM    6  C18 UNL     1      23.435   1.331  51.795  1.00  0.00     0.031 A 
ENDROOT
BRANCH   4   7
HETATM    7  N2  UNL     1      25.260   3.719  49.667  1.00  0.00    -0.308 N 
HETATM    8  C10 UNL     1      25.374   5.108  49.748  1.00  0.00     0.329 C 
HETATM    9  O3  UNL     1      24.417   5.713  50.305  1.00  0.00    -0.246 OA
HETATM   10  N3  UNL     1      26.454   5.893  49.266  1.00  0.00    -0.279 N 
HETATM   11  C11 UNL     1      27.571   5.296  48.626  1.00  0.00     0.099 A 
HETATM   12  C16 UNL     1      26.405   7.329  49.436  1.00  0.00     0.261 A 
HETATM   13  C12 UNL     1      28.612   5.957  48.152  1.00  0.00     0.018 A 
HETATM   14  C13 UNL     1      28.681   7.407  48.262  1.00  0.00     0.010 A 
HETATM   15  C14 UNL     1      27.626   7.927  48.862  1.00  0.00    -0.004 A 
HETATM   16  H11 UNL     1      26.098   3.304  49.191  1.00  0.00     0.170 HD
BRANCH  15  17
HETATM   17  C15 UNL     1      27.549   9.420  49.052  1.00  0.00     0.305 C 
BRANCH  17  18
HETATM   18  N4  UNL     1      28.405   9.708  50.191  1.00  0.00     0.082 N 
HETATM   19  H17 UNL     1      28.164  10.585  50.681  1.00  0.00     0.313 HD
HETATM   20  H18 UNL     1      28.379   8.887  50.838  1.00  0.00     0.313 HD
ENDBRANCH  17  18
ENDBRANCH  15  17
BRANCH  12  21
HETATM   21  O4  UNL     1      26.347   7.540  50.833  1.00  0.00    -0.372 OA
HETATM   22  H20 UNL     1      25.667   6.869  51.156  1.00  0.00     0.212 HD
ENDBRANCH  12  21
ENDBRANCH   4   7
BRANCH   1  23
HETATM   23  N1  UNL     1      21.315   0.119  51.602  1.00  0.00    -0.358 N 
HETATM   24  H8  UNL     1      21.660  -0.891  51.572  1.00  0.00     0.162 HD
BRANCH  23  25
HETATM   25  C4  UNL     1      19.973   0.413  52.150  1.00  0.00     0.139 C 
HETATM   26  O2  UNL     1      19.096   0.229  51.090  1.00  0.00    -0.329 OA
HETATM   27  C3  UNL     1      17.716   0.162  51.001  1.00  0.00     0.174 C 
HETATM   28  C2  UNL     1      17.013  -0.653  51.810  1.00  0.00     0.089 C 
HETATM   29  C21 UNL     1      17.477  -1.576  52.873  1.00  0.00     0.035 C 
HETATM   30  C20 UNL     1      18.672  -1.337  53.449  1.00  0.00    -0.019 C 
HETATM   31  C19 UNL     1      19.766  -0.378  53.368  1.00  0.00     0.088 C 
HETATM   32  C5  UNL     1      20.011   1.896  52.477  1.00  0.00     0.071 C 
BRANCH  28  33
HETATM   33  O1  UNL     1      15.611  -0.670  51.664  1.00  0.00    -0.354 OA
HETATM   34  C1  UNL     1      15.127  -1.771  50.890  1.00  0.00     0.210 C 
ENDBRANCH  28  33
ENDBRANCH  23  25
ENDBRANCH   1  23
TORSDOF 7
ENDMDL
MODEL 3
REMARK VINA RESULT:      -8.0      3.292      9.230
REMARK  7 active torsions:
REMARK  status: ('A' for Active; 'I' for Inactive)
REMARK    1  A    between atoms: O1_2  and  C2_3 
REMARK    2  A    between atoms: C4_6  and  N1_8 
REMARK    3  A    between atoms: N1_8  and  C6_9 
REMARK    4  A    between atoms: C9_12  and  N2_13 
REMARK       I    between atoms: N2_13  and  C10_14 
REMARK       I    between atoms: C10_14  and  N3_16 
REMARK    5  A    between atoms: C14_20  and  C15_21 
REMARK    6  A    between atoms: C15_21  and  N4_22 
REMARK    7  A    between atoms: C16_23  and  O4_24 
ROOT
HETATM    1  C6  UNL     1      27.935   6.630  48.147  1.00  0.00     0.030 A 
HETATM    2  C7  UNL     1      26.770   7.043  48.803  1.00  0.00     0.031 A 
HETATM    3  C8  UNL     1      26.046   6.077  49.456  1.00  0.00     0.032 A 
HETATM    4  C9  UNL     1      26.340   4.753  49.533  1.00  0.00     0.036 A 
HETATM    5  C17 UNL     1      27.490   4.382  48.879  1.00  0.00     0.032 A 
HETATM    6  C18 UNL     1      28.269   5.285  48.205  1.00  0.00     0.031 A 
ENDROOT
BRANCH   4   7
HETATM    7  N2  UNL     1      25.578   3.773  50.213  1.00  0.00    -0.308 N 
HETATM    8  C10 UNL     1      25.926   2.836  51.187  1.00  0.00     0.329 C 
HETATM    9  O3  UNL     1      27.134   2.833  51.551  1.00  0.00    -0.246 OA
HETATM   10  N3  UNL     1      25.055   1.896  51.798  1.00  0.00    -0.279 N 
HETATM   11  C11 UNL     1      23.682   1.828  51.450  1.00  0.00     0.099 A 
HETATM   12  C16 UNL     1      25.589   0.993  52.795  1.00  0.00     0.261 A 
HETATM   13  C12 UNL     1      22.811   0.983  51.971  1.00  0.00     0.018 A 
HETATM   14  C13 UNL     1      23.225   0.024  52.985  1.00  0.00     0.010 A 
HETATM   15  C14 UNL     1      24.508   0.116  53.284  1.00  0.00    -0.004 A 
HETATM   16  H11 UNL     1      24.559   3.702  49.975  1.00  0.00     0.170 HD
BRANCH  15  17
HETATM   17  C15 UNL     1      25.090  -0.812  54.319  1.00  0.00     0.305 C 
BRANCH  17  18
HETATM   18  N4  UNL     1      26.420  -1.143  53.834  1.00  0.00     0.082 N 
HETATM   19  H17 UNL     1      26.963  -1.737  54.481  1.00  0.00     0.313 HD
HETATM   20  H18 UNL     1      26.325  -1.587  52.892  1.00  0.00     0.313 HD
ENDBRANCH  17  18
ENDBRANCH  15  17
BRANCH  12  21
HETATM   21  O4  UNL     1      26.075   1.824  53.832  1.00  0.00    -0.372 OA
HETATM   22  H20 UNL     1      27.009   1.485  54.002  1.00  0.00     0.212 HD
ENDBRANCH  12  21
ENDBRANCH   4   7
BRANCH   1  23
HETATM   23  N1  UNL     1      28.770   7.551  47.420  1.00  0.00    -0.358 N 
HETATM   24  H8  UNL     1      28.215   8.091  46.685  1.00  0.00     0.162 HD
BRANCH  23  25
HETATM   25  C4  UNL     1      30.218   7.812  47.573  1.00  0.00     0.139 C 
HETATM   26  O2  UNL     1      30.606   7.080  48.686  1.00  0.00    -0.329 OA
HETATM   27  C3  UNL     1      31.839   6.757  49.226  1.00  0.00     0.174 C 
HETATM   28  C2  UNL     1      32.809   6.225  48.458  1.00  0.00     0.089 C 
HETATM   29  C21 UNL     1      32.807   5.891  47.013  1.00  0.00     0.035 C 
HETATM   30  C20 UNL     1      31.936   6.533  46.210  1.00  0.00    -0.019 C 
HETATM   31  C19 UNL     1      30.894   7.547  46.298  1.00  0.00     0.088 C 
HETATM   32  C5  UNL     1      30.304   9.287  47.927  1.00  0.00     0.071 C 
BRANCH  28  33
HETATM   33  O1  UNL     1      34.040   5.920  49.074  1.00  0.00    -0.354 OA
HETATM   34  C1  UNL     1      35.138   6.689  48.578  1.00  0.00     0.210 C 
ENDBRANCH  28  33
ENDBRANCH  23  25
ENDBRANCH   1  23
TORSDOF 7
ENDMDL
MODEL 4
REMARK VINA RESULT:      -8.0      2.416      3.086
REMARK  7 active torsions:
REMARK  status: ('A' for Active; 'I' for Inactive)
REMARK    1  A    between atoms: O1_2  and  C2_3 
REMARK    2  A    between atoms: C4_6  and  N1_8 
REMARK    3  A    between atoms: N1_8  and  C6_9 
REMARK    4  A    between atoms: C9_12  and  N2_13 
REMARK       I    between atoms: N2_13  and  C10_14 
REMARK       I    between atoms: C10_14  and  N3_16 
REMARK    5  A    between atoms: C14_20  and  C15_21 
REMARK    6  A    between atoms: C15_21  and  N4_22 
REMARK    7  A    between atoms: C16_23  and  O4_24 
ROOT
HETATM    1  C6  UNL     1      24.472   3.571  49.672  1.00  0.00     0.030 A 
HETATM    2  C7  UNL     1      24.156   4.878  49.284  1.00  0.00     0.031 A 
HETATM    3  C8  UNL     1      25.205   5.701  48.959  1.00  0.00     0.032 A 
HETATM    4  C9  UNL     1      26.525   5.384  48.975  1.00  0.00     0.036 A 
HETATM    5  C17 UNL     1      26.799   4.093  49.360  1.00  0.00     0.032 A 
HETATM    6  C18 UNL     1      25.810   3.208  49.700  1.00  0.00     0.031 A 
ENDROOT
BRANCH   4   7
HETATM    7  N2  UNL     1      27.591   6.250  48.635  1.00  0.00    -0.308 N 
HETATM    8  C10 UNL     1      27.861   7.574  48.987  1.00  0.00     0.329 C 
HETATM    9  O3  UNL     1      27.020   8.132  49.745  1.00  0.00    -0.246 OA
HETATM   10  N3  UNL     1      28.982   8.342  48.574  1.00  0.00    -0.279 N 
HETATM   11  C11 UNL     1      29.976   7.795  47.723  1.00  0.00     0.099 A 
HETATM   12  C16 UNL     1      29.103   9.707  49.037  1.00  0.00     0.261 A 
HETATM   13  C12 UNL     1      31.045   8.444  47.296  1.00  0.00     0.018 A 
HETATM   14  C13 UNL     1      31.281   9.825  47.692  1.00  0.00     0.010 A 
HETATM   15  C14 UNL     1      30.336  10.299  48.484  1.00  0.00    -0.004 A 
HETATM   16  H11 UNL     1      28.341   5.871  48.007  1.00  0.00     0.170 HD
BRANCH  15  17
HETATM   17  C15 UNL     1      30.437  11.718  48.980  1.00  0.00     0.305 C 
BRANCH  17  18
HETATM   18  N4  UNL     1      29.067  12.141  49.220  1.00  0.00     0.082 N 
HETATM   19  H17 UNL     1      28.954  12.730  50.061  1.00  0.00     0.313 HD
HETATM   20  H18 UNL     1      28.718  12.627  48.361  1.00  0.00     0.313 HD
ENDBRANCH  17  18
ENDBRANCH  15  17
BRANCH  12  21
HETATM   21  O4  UNL     1      29.172   9.621  50.447  1.00  0.00    -0.372 OA
HETATM   22  H20 UNL     1      30.152   9.478  50.638  1.00  0.00     0.212 HD
ENDBRANCH  12  21
ENDBRANCH   4   7
BRANCH   1  23
HETATM   23  N1  UNL     1      23.457   2.620  50.047  1.00  0.00    -0.358 N 
HETATM   24  H8  UNL     1      23.002   2.170  49.191  1.00  0.00     0.162 HD
BRANCH  23  25
HETATM   25  C4  UNL     1      23.008   2.225  51.399  1.00  0.00     0.139 C 
HETATM   26  O2  UNL     1      22.390   0.993  51.235  1.00  0.00    -0.329 OA
HETATM   27  C3  UNL     1      21.941   0.031  52.124  1.00  0.00     0.174 C 
HETATM   28  C2  UNL     1      22.742  -0.428  53.104  1.00  0.00     0.089 C 
HETATM   29  C21 UNL     1      24.141  -0.067  53.442  1.00  0.00     0.035 C 
HETATM   30  C20 UNL     1      24.603   1.135  53.048  1.00  0.00    -0.019 C 
HETATM   31  C19 UNL     1      24.140   2.315  52.329  1.00  0.00     0.088 C 
HETATM   32  C5  UNL     1      21.940   3.243  51.759  1.00  0.00     0.071 C 
BRANCH  28  33
HETATM   33  O1  UNL     1      22.220  -1.408  53.972  1.00  0.00    -0.354 OA
HETATM   34  C1  UNL     1      20.810  -1.298  54.182  1.00  0.00     0.210 C 
ENDBRANCH  28  33
ENDBRANCH  23  25
ENDBRANCH   1  23
TORSDOF 7
ENDMDL
MODEL 5
REMARK VINA RESULT:      -7.6      1.849      2.278
REMARK  7 active torsions:
REMARK  status: ('A' for Active; 'I' for Inactive)
REMARK    1  A    between atoms: O1_2  and  C2_3 
REMARK    2  A    between atoms: C4_6  and  N1_8 
REMARK    3  A    between atoms: N1_8  and  C6_9 
REMARK    4  A    between atoms: C9_12  and  N2_13 
REMARK       I    between atoms: N2_13  and  C10_14 
REMARK       I    between atoms: C10_14  and  N3_16 
REMARK    5  A    between atoms: C14_20  and  C15_21 
REMARK    6  A    between atoms: C15_21  and  N4_22 
REMARK    7  A    between atoms: C16_23  and  O4_24 
ROOT
HETATM    1  C6  UNL     1      25.278   3.216  50.556  1.00  0.00     0.030 A 
HETATM    2  C7  UNL     1      26.444   3.016  49.808  1.00  0.00     0.031 A 
HETATM    3  C8  UNL     1      26.948   4.103  49.138  1.00  0.00     0.032 A 
HETATM    4  C9  UNL     1      26.433   5.359  49.120  1.00  0.00     0.036 A 
HETATM    5  C17 UNL     1      25.289   5.520  49.865  1.00  0.00     0.032 A 
HETATM    6  C18 UNL     1      24.723   4.487  50.564  1.00  0.00     0.031 A 
ENDROOT
BRANCH   4   7
HETATM    7  N2  UNL     1      26.970   6.466  48.421  1.00  0.00    -0.308 N 
HETATM    8  C10 UNL     1      28.287   6.847  48.154  1.00  0.00     0.329 C 
HETATM    9  O3  UNL     1      29.189   6.090  48.606  1.00  0.00    -0.246 OA
HETATM   10  N3  UNL     1      28.698   7.997  47.430  1.00  0.00    -0.279 N 
HETATM   11  C11 UNL     1      27.752   8.904  46.886  1.00  0.00     0.099 A 
HETATM   12  C16 UNL     1      30.113   8.239  47.248  1.00  0.00     0.261 A 
HETATM   13  C12 UNL     1      28.055   9.992  46.202  1.00  0.00     0.018 A 
HETATM   14  C13 UNL     1      29.445  10.346  45.952  1.00  0.00     0.010 A 
HETATM   15  C14 UNL     1      30.297   9.481  46.471  1.00  0.00    -0.004 A 
HETATM   16  H11 UNL     1      26.293   7.152  48.008  1.00  0.00     0.170 HD
BRANCH  15  17
HETATM   17  C15 UNL     1      31.776   9.709  46.297  1.00  0.00     0.305 C 
BRANCH  17  18
HETATM   18  N4  UNL     1      32.089   9.209  44.968  1.00  0.00     0.082 N 
HETATM   19  H17 UNL     1      32.846   8.506  44.956  1.00  0.00     0.313 HD
HETATM   20  H18 UNL     1      31.210   8.834  44.543  1.00  0.00     0.313 HD
ENDBRANCH  17  18
ENDBRANCH  15  17
BRANCH  12  21
HETATM   21  O4  UNL     1      30.597   7.119  46.532  1.00  0.00    -0.372 OA
HETATM   22  H20 UNL     1      31.593   7.266  46.487  1.00  0.00     0.212 HD
ENDBRANCH  12  21
ENDBRANCH   4   7
BRANCH   1  23
HETATM   23  N1  UNL     1      24.651   2.149  51.293  1.00  0.00    -0.358 N 
HETATM   24  H8  UNL     1      23.680   1.924  50.910  1.00  0.00     0.162 HD
BRANCH  23  25
HETATM   25  C4  UNL     1      25.175   1.382  52.443  1.00  0.00     0.139 C 
HETATM   26  O2  UNL     1      25.833   0.293  51.890  1.00  0.00    -0.329 OA
HETATM   27  C3  UNL     1      26.678  -0.672  52.412  1.00  0.00     0.174 C 
HETATM   28  C2  UNL     1      27.745  -0.323  53.156  1.00  0.00     0.089 C 
HETATM   29  C21 UNL     1      28.231   1.020  53.558  1.00  0.00     0.035 C 
HETATM   30  C20 UNL     1      27.349   2.037  53.580  1.00  0.00    -0.019 C 
HETATM   31  C19 UNL     1      25.936   2.283  53.317  1.00  0.00     0.088 C 
HETATM   32  C5  UNL     1      23.935   0.869  53.156  1.00  0.00     0.071 C 
BRANCH  28  33
HETATM   33  O1  UNL     1      28.562  -1.357  53.655  1.00  0.00    -0.354 OA
HETATM   34  C1  UNL     1      29.950  -1.023  53.699  1.00  0.00     0.210 C 
ENDBRANCH  28  33
ENDBRANCH  23  25
ENDBRANCH   1  23
TORSDOF 7
ENDMDL
MODEL 6
REMARK VINA RESULT:      -7.6      2.545     10.016
REMARK  7 active torsions:
REMARK  status: ('A' for Active; 'I' for Inactive)
REMARK    1  A    between atoms: O1_2  and  C2_3 
REMARK    2  A    between atoms: C4_6  and  N1_8 
REMARK    3  A    between atoms: N1_8  and  C6_9 
REMARK    4  A    between atoms: C9_12  and  N2_13 
REMARK       I    between atoms: N2_13  and  C10_14 
REMARK       I    between atoms: C10_14  and  N3_16 
REMARK    5  A    between atoms: C14_20  and  C15_21 
REMARK    6  A    between atoms: C15_21  and  N4_22 
REMARK    7  A    between atoms: C16_23  and  O4_24 
ROOT
HETATM    1  C6  UNL     1      27.466   6.608  48.169  1.00  0.00     0.030 A 
HETATM    2  C7  UNL     1      28.026   5.330  48.270  1.00  0.00     0.031 A 
HETATM    3  C8  UNL     1      27.318   4.394  48.983  1.00  0.00     0.032 A 
HETATM    4  C9  UNL     1      26.125   4.577  49.605  1.00  0.00     0.036 A 
HETATM    5  C17 UNL     1      25.604   5.843  49.485  1.00  0.00     0.032 A 
HETATM    6  C18 UNL     1      26.247   6.833  48.791  1.00  0.00     0.031 A 
ENDROOT
BRANCH   4   7
HETATM    7  N2  UNL     1      25.412   3.597  50.336  1.00  0.00    -0.308 N 
HETATM    8  C10 UNL     1      25.814   2.702  51.330  1.00  0.00     0.329 C 
HETATM    9  O3  UNL     1      27.030   2.748  51.661  1.00  0.00    -0.246 OA
HETATM   10  N3  UNL     1      24.989   1.757  51.993  1.00  0.00    -0.279 N 
HETATM   11  C11 UNL     1      23.610   1.636  51.684  1.00  0.00     0.099 A 
HETATM   12  C16 UNL     1      25.577   0.903  53.004  1.00  0.00     0.261 A 
HETATM   13  C12 UNL     1      22.779   0.782  52.255  1.00  0.00     0.018 A 
HETATM   14  C13 UNL     1      23.249  -0.130  53.287  1.00  0.00     0.010 A 
HETATM   15  C14 UNL     1      24.535   0.010  53.549  1.00  0.00    -0.004 A 
HETATM   16  H11 UNL     1      24.390   3.487  50.127  1.00  0.00     0.170 HD
BRANCH  15  17
HETATM   17  C15 UNL     1      25.173  -0.865  54.597  1.00  0.00     0.305 C 
BRANCH  17  18
HETATM   18  N4  UNL     1      26.489  -1.195  54.074  1.00  0.00     0.082 N 
HETATM   19  H17 UNL     1      26.864  -0.493  53.416  1.00  0.00     0.313 HD
HETATM   20  H18 UNL     1      27.135  -1.345  54.883  1.00  0.00     0.313 HD
ENDBRANCH  17  18
ENDBRANCH  15  17
BRANCH  12  21
HETATM   21  O4  UNL     1      26.062   1.782  54.000  1.00  0.00    -0.372 OA
HETATM   22  H20 UNL     1      26.017   2.693  53.569  1.00  0.00     0.212 HD
ENDBRANCH  12  21
ENDBRANCH   4   7
BRANCH   1  23
HETATM   23  N1  UNL     1      28.121   7.675  47.456  1.00  0.00    -0.358 N 
HETATM   24  H8  UNL     1      27.458   8.160  46.774  1.00  0.00     0.162 HD
BRANCH  23  25
HETATM   25  C4  UNL     1      29.521   8.139  47.562  1.00  0.00     0.139 C 
HETATM   26  O2  UNL     1      29.629   9.187  46.659  1.00  0.00    -0.329 OA
HETATM   27  C3  UNL     1      30.604  10.142  46.426  1.00  0.00     0.174 C 
HETATM   28  C2  UNL     1      31.104  10.877  47.438  1.00  0.00     0.089 C 
HETATM   29  C21 UNL     1      30.778  10.856  48.885  1.00  0.00     0.035 C 
HETATM   30  C20 UNL     1      30.242   9.733  49.402  1.00  0.00    -0.019 C 
HETATM   31  C19 UNL     1      29.837   8.401  48.971  1.00  0.00     0.088 C 
HETATM   32  C5  UNL     1      30.349   6.978  47.037  1.00  0.00     0.071 C 
BRANCH  28  33
HETATM   33  O1  UNL     1      32.093  11.832  47.128  1.00  0.00    -0.354 OA
HETATM   34  C1  UNL     1      33.420  11.301  47.114  1.00  0.00     0.210 C 
ENDBRANCH  28  33
ENDBRANCH  23  25
ENDBRANCH   1  23
TORSDOF 7
ENDMDL
MODEL 7
REMARK VINA RESULT:      -7.6      5.885     11.253
REMARK  7 active torsions:
REMARK  status: ('A' for Active; 'I' for Inactive)
REMARK    1  A    between atoms: O1_2  and  C2_3 
REMARK    2  A    between atoms: C4_6  and  N1_8 
REMARK    3  A    between atoms: N1_8  and  C6_9 
REMARK    4  A    between atoms: C9_12  and  N2_13 
REMARK       I    between atoms: N2_13  and  C10_14 
REMARK       I    between atoms: C10_14  and  N3_16 
REMARK    5  A    between atoms: C14_20  and  C15_21 
REMARK    6  A    between atoms: C15_21  and  N4_22 
REMARK    7  A    between atoms: C16_23  and  O4_24 
ROOT
HETATM    1  C6  UNL     1      23.086   1.640  52.654  1.00  0.00     0.030 A 
HETATM    2  C7  UNL     1      22.672   0.349  53.001  1.00  0.00     0.031 A 
HETATM    3  C8  UNL     1      21.424  -0.038  52.581  1.00  0.00     0.032 A 
HETATM    4  C9  UNL     1      20.541   0.701  51.861  1.00  0.00     0.036 A 
HETATM    5  C17 UNL     1      20.980   1.962  51.538  1.00  0.00     0.032 A 
HETATM    6  C18 UNL     1      22.212   2.425  51.918  1.00  0.00     0.031 A 
ENDROOT
BRANCH   4   7
HETATM    7  N2  UNL     1      19.258   0.280  51.438  1.00  0.00    -0.308 N 
HETATM    8  C10 UNL     1      18.239  -0.407  52.102  1.00  0.00     0.329 C 
HETATM    9  O3  UNL     1      18.472  -0.728  53.299  1.00  0.00    -0.246 OA
HETATM   10  N3  UNL     1      16.980  -0.773  51.558  1.00  0.00    -0.279 N 
HETATM   11  C11 UNL     1      16.633  -0.452  50.220  1.00  0.00     0.099 A 
HETATM   12  C16 UNL     1      16.038  -1.487  52.394  1.00  0.00     0.261 A 
HETATM   13  C12 UNL     1      15.484  -0.757  49.644  1.00  0.00     0.018 A 
HETATM   14  C13 UNL     1      14.454  -1.476  50.380  1.00  0.00     0.010 A 
HETATM   15  C14 UNL     1      14.811  -1.757  51.619  1.00  0.00    -0.004 A 
HETATM   16  H11 UNL     1      18.975   0.505  50.454  1.00  0.00     0.170 HD
BRANCH  15  17
HETATM   17  C15 UNL     1      13.850  -2.500  52.511  1.00  0.00     0.305 C 
BRANCH  17  18
HETATM   18  N4  UNL     1      13.111  -1.471  53.224  1.00  0.00     0.082 N 
HETATM   19  H17 UNL     1      13.711  -0.828  53.767  1.00  0.00     0.313 HD
HETATM   20  H18 UNL     1      12.521  -0.953  52.533  1.00  0.00     0.313 HD
ENDBRANCH  17  18
ENDBRANCH  15  17
BRANCH  12  21
HETATM   21  O4  UNL     1      15.771  -0.623  53.481  1.00  0.00    -0.372 OA
HETATM   22  H20 UNL     1      14.972  -1.038  53.935  1.00  0.00     0.212 HD
ENDBRANCH  12  21
ENDBRANCH   4   7
BRANCH   1  23
HETATM   23  N1  UNL     1      24.370   2.162  53.048  1.00  0.00    -0.358 N 
HETATM   24  H8  UNL     1      24.279   2.884  53.829  1.00  0.00     0.162 HD
BRANCH  23  25
HETATM   25  C4  UNL     1      25.710   1.825  52.521  1.00  0.00     0.139 C 
HETATM   26  O2  UNL     1      26.593   2.129  53.547  1.00  0.00    -0.329 OA
HETATM   27  C3  UNL     1      27.938   1.869  53.749  1.00  0.00     0.174 C 
HETATM   28  C2  UNL     1      28.427   0.622  53.610  1.00  0.00     0.089 C 
HETATM   29  C21 UNL     1      27.735  -0.640  53.250  1.00  0.00     0.035 C 
HETATM   30  C20 UNL     1      26.579  -0.560  52.564  1.00  0.00    -0.019 C 
HETATM   31  C19 UNL     1      25.694   0.452  52.003  1.00  0.00     0.088 C 
HETATM   32  C5  UNL     1      25.938   2.818  51.395  1.00  0.00     0.071 C 
BRANCH  28  33
HETATM   33  O1  UNL     1      29.805   0.429  53.832  1.00  0.00    -0.354 OA
HETATM   34  C1  UNL     1      30.237  -0.919  53.637  1.00  0.00     0.210 C 
ENDBRANCH  28  33
ENDBRANCH  23  25
ENDBRANCH   1  23
TORSDOF 7
ENDMDL
MODEL 8
REMARK VINA RESULT:      -7.5      3.722      4.738
REMARK  7 active torsions:
REMARK  status: ('A' for Active; 'I' for Inactive)
REMARK    1  A    between atoms: O1_2  and  C2_3 
REMARK    2  A    between atoms: C4_6  and  N1_8 
REMARK    3  A    between atoms: N1_8  and  C6_9 
REMARK    4  A    between atoms: C9_12  and  N2_13 
REMARK       I    between atoms: N2_13  and  C10_14 
REMARK       I    between atoms: C10_14  and  N3_16 
REMARK    5  A    between atoms: C14_20  and  C15_21 
REMARK    6  A    between atoms: C15_21  and  N4_22 
REMARK    7  A    between atoms: C16_23  and  O4_24 
ROOT
HETATM    1  C6  UNL     1      24.472   4.495  49.084  1.00  0.00     0.030 A 
HETATM    2  C7  UNL     1      25.620   3.756  49.392  1.00  0.00     0.031 A 
HETATM    3  C8  UNL     1      26.824   4.408  49.297  1.00  0.00     0.032 A 
HETATM    4  C9  UNL     1      27.023   5.701  48.933  1.00  0.00     0.036 A 
HETATM    5  C17 UNL     1      25.875   6.397  48.638  1.00  0.00     0.032 A 
HETATM    6  C18 UNL     1      24.635   5.819  48.709  1.00  0.00     0.031 A 
ENDROOT
BRANCH   4   7
HETATM    7  N2  UNL     1      28.276   6.354  48.843  1.00  0.00    -0.308 N 
HETATM    8  C10 UNL     1      29.526   5.909  48.409  1.00  0.00     0.329 C 
HETATM    9  O3  UNL     1      29.587   4.710  48.020  1.00  0.00    -0.246 OA
HETATM   10  N3  UNL     1      30.721   6.674  48.366  1.00  0.00    -0.279 N 
HETATM   11  C11 UNL     1      30.745   8.030  48.783  1.00  0.00     0.099 A 
HETATM   12  C16 UNL     1      31.935   6.049  47.885  1.00  0.00     0.261 A 
HETATM   13  C12 UNL     1      31.814   8.805  48.773  1.00  0.00     0.018 A 
HETATM   14  C13 UNL     1      33.096   8.293  48.311  1.00  0.00     0.010 A 
HETATM   15  C14 UNL     1      33.037   7.030  47.931  1.00  0.00    -0.004 A 
HETATM   16  H11 UNL     1      28.321   7.357  49.144  1.00  0.00     0.170 HD
BRANCH  15  17
HETATM   17  C15 UNL     1      34.285   6.354  47.426  1.00  0.00     0.305 C 
BRANCH  17  18
HETATM   18  N4  UNL     1      34.410   6.763  46.037  1.00  0.00     0.082 N 
HETATM   19  H17 UNL     1      34.186   7.759  45.874  1.00  0.00     0.313 HD
HETATM   20  H18 UNL     1      35.375   6.528  45.710  1.00  0.00     0.313 HD
ENDBRANCH  17  18
ENDBRANCH  15  17
BRANCH  12  21
HETATM   21  O4  UNL     1      31.655   5.664  46.553  1.00  0.00    -0.372 OA
HETATM   22  H20 UNL     1      32.564   5.500  46.148  1.00  0.00     0.212 HD
ENDBRANCH  12  21
ENDBRANCH   4   7
BRANCH   1  23
HETATM   23  N1  UNL     1      23.154   3.915  49.136  1.00  0.00    -0.358 N 
HETATM   24  H8  UNL     1      22.681   3.922  48.178  1.00  0.00     0.162 HD
BRANCH  23  25
HETATM   25  C4  UNL     1      22.434   3.349  50.297  1.00  0.00     0.139 C 
HETATM   26  O2  UNL     1      22.423   1.977  50.088  1.00  0.00    -0.329 OA
HETATM   27  C3  UNL     1      22.080   0.898  50.885  1.00  0.00     0.174 C 
HETATM   28  C2  UNL     1      22.588   0.770  52.125  1.00  0.00     0.089 C 
HETATM   29  C21 UNL     1      23.530   1.644  52.867  1.00  0.00     0.035 C 
HETATM   30  C20 UNL     1      23.618   2.938  52.505  1.00  0.00    -0.019 C 
HETATM   31  C19 UNL     1      23.038   3.857  51.534  1.00  0.00     0.088 C 
HETATM   32  C5  UNL     1      21.011   3.859  50.150  1.00  0.00     0.071 C 
BRANCH  28  33
HETATM   33  O1  UNL     1      22.197  -0.354  52.881  1.00  0.00    -0.354 OA
HETATM   34  C1  UNL     1      23.071  -0.646  53.972  1.00  0.00     0.210 C 
ENDBRANCH  28  33
ENDBRANCH  23  25
ENDBRANCH   1  23
TORSDOF 7
ENDMDL
MODEL 9
REMARK VINA RESULT:      -7.2      3.548      9.061
REMARK  7 active torsions:
REMARK  status: ('A' for Active; 'I' for Inactive)
REMARK    1  A    between atoms: O1_2  and  C2_3 
REMARK    2  A    between atoms: C4_6  and  N1_8 
REMARK    3  A    between atoms: N1_8  and  C6_9 
REMARK    4  A    between atoms: C9_12  and  N2_13 
REMARK       I    between atoms: N2_13  and  C10_14 
REMARK       I    between atoms: C10_14  and  N3_16 
REMARK    5  A    between atoms: C14_20  and  C15_21 
REMARK    6  A    between atoms: C15_21  and  N4_22 
REMARK    7  A    between atoms: C16_23  and  O4_24 
ROOT
HETATM    1  C6  UNL     1      27.929   7.367  48.900  1.00  0.00     0.030 A 
HETATM    2  C7  UNL     1      28.239   6.060  48.507  1.00  0.00     0.031 A 
HETATM    3  C8  UNL     1      27.229   5.132  48.580  1.00  0.00     0.032 A 
HETATM    4  C9  UNL     1      25.955   5.346  48.995  1.00  0.00     0.036 A 
HETATM    5  C17 UNL     1      25.685   6.640  49.373  1.00  0.00     0.032 A 
HETATM    6  C18 UNL     1      26.637   7.625  49.330  1.00  0.00     0.031 A 
ENDROOT
BRANCH   4   7
HETATM    7  N2  UNL     1      24.929   4.374  49.061  1.00  0.00    -0.308 N 
HETATM    8  C10 UNL     1      24.490   3.556  50.104  1.00  0.00     0.329 C 
HETATM    9  O3  UNL     1      25.097   3.680  51.203  1.00  0.00    -0.246 OA
HETATM   10  N3  UNL     1      23.435   2.608  50.042  1.00  0.00    -0.279 N 
HETATM   11  C11 UNL     1      22.698   2.403  48.847  1.00  0.00     0.099 A 
HETATM   12  C16 UNL     1      23.112   1.842  51.226  1.00  0.00     0.261 A 
HETATM   13  C12 UNL     1      21.705   1.542  48.709  1.00  0.00     0.018 A 
HETATM   14  C13 UNL     1      21.285   0.712  49.829  1.00  0.00     0.010 A 
HETATM   15  C14 UNL     1      21.992   0.930  50.923  1.00  0.00    -0.004 A 
HETATM   16  H11 UNL     1      24.368   4.203  48.192  1.00  0.00     0.170 HD
BRANCH  15  17
HETATM   17  C15 UNL     1      21.677   0.145  52.170  1.00  0.00     0.305 C 
BRANCH  17  18
HETATM   18  N4  UNL     1      22.958  -0.065  52.826  1.00  0.00     0.082 N 
HETATM   19  H17 UNL     1      22.925   0.056  53.852  1.00  0.00     0.313 HD
HETATM   20  H18 UNL     1      23.310  -1.014  52.563  1.00  0.00     0.313 HD
ENDBRANCH  17  18
ENDBRANCH  15  17
BRANCH  12  21
HETATM   21  O4  UNL     1      22.738   2.796  52.200  1.00  0.00    -0.372 OA
HETATM   22  H20 UNL     1      22.004   3.327  51.756  1.00  0.00     0.212 HD
ENDBRANCH  12  21
ENDBRANCH   4   7
BRANCH   1  23
HETATM   23  N1  UNL     1      28.909   8.423  48.878  1.00  0.00    -0.358 N 
HETATM   24  H8  UNL     1      28.481   9.363  49.149  1.00  0.00     0.162 HD
BRANCH  23  25
HETATM   25  C4  UNL     1      30.347   8.348  48.544  1.00  0.00     0.139 C 
HETATM   26  O2  UNL     1      30.860   7.346  49.355  1.00  0.00    -0.329 OA
HETATM   27  C3  UNL     1      32.072   6.677  49.387  1.00  0.00     0.174 C 
HETATM   28  C2  UNL     1      32.582   6.124  48.270  1.00  0.00     0.089 C 
HETATM   29  C21 UNL     1      32.043   6.091  46.889  1.00  0.00     0.035 C 
HETATM   30  C20 UNL     1      31.162   7.043  46.524  1.00  0.00    -0.019 C 
HETATM   31  C19 UNL     1      30.499   8.211  47.091  1.00  0.00     0.088 C 
HETATM   32  C5  UNL     1      30.918   9.674  49.017  1.00  0.00     0.071 C 
BRANCH  28  33
HETATM   33  O1  UNL     1      33.820   5.458  48.375  1.00  0.00    -0.354 OA
HETATM   34  C1  UNL     1      34.213   4.782  47.179  1.00  0.00     0.210 C 
ENDBRANCH  28  33
ENDBRANCH  23  25
ENDBRANCH   1  23
TORSDOF 7
ENDMDL
