MODEL 1
REMARK VINA RESULT:      -7.7      0.000      0.000
REMARK  3 active torsions:
REMARK  status: ('A' for Active; 'I' for Inactive)
REMARK    1  A    between atoms: C12_17  and  N5_18 
REMARK    2  A    between atoms: N5_18  and  C13_19 
REMARK    3  A    between atoms: C20_28  and  O2_29 
ROOT
HETATM    1  C1  UNL     1      21.537   0.985  48.552  1.00  0.00     0.310 C 
HETATM    2  N1  UNL     1      21.841   2.193  49.250  1.00  0.00     0.098 N 
HETATM    3  C2  UNL     1      20.653   2.957  49.445  1.00  0.00     0.305 C 
HETATM    4  C3  UNL     1      20.361   2.954  50.940  1.00  0.00     0.079 C 
HETATM    5  C4  UNL     1      19.025   3.536  51.263  1.00  0.00     0.043 C 
HETATM    6  N2  UNL     1      20.374   1.570  51.318  1.00  0.00    -0.382 N 
HETATM    7  C5  UNL     1      21.702   0.991  51.263  1.00  0.00     0.259 C 
HETATM    8  O1  UNL     1      22.023   0.538  52.497  1.00  0.00    -0.336 OA
HETATM    9  C6  UNL     1      22.906  -0.361  52.978  1.00  0.00     0.139 C 
HETATM   10  C7  UNL     1      24.094  -0.586  53.468  1.00  0.00     0.043 C 
HETATM   11  C8  UNL     1      25.144   0.329  53.722  1.00  0.00     0.113 C 
HETATM   12  N3  UNL     1      25.380   1.571  53.619  1.00  0.00    -0.292 NA
HETATM   13  C9  UNL     1      24.623   2.656  53.167  1.00  0.00     0.214 C 
HETATM   14  C10 UNL     1      23.737   3.249  52.299  1.00  0.00     0.090 C 
HETATM   15  C11 UNL     1      23.684   4.588  52.897  1.00  0.00     0.069 C 
HETATM   16  N4  UNL     1      23.632   5.654  53.352  1.00  0.00    -0.197 NA
HETATM   17  C12 UNL     1      22.798   3.265  51.090  1.00  0.00     0.112 C 
HETATM   18  C19 UNL     1      22.580   1.919  50.503  1.00  0.00     0.302 C 
HETATM   19  C20 UNL     1      21.458   3.760  51.592  1.00  0.00     0.179 C 
HETATM   20  H9  UNL     1      19.805   1.311  52.126  1.00  0.00     0.156 HD
ENDROOT
BRANCH  17  21
HETATM   21  N5  UNL     1      23.342   4.192  50.175  1.00  0.00    -0.374 N 
HETATM   22  H15 UNL     1      22.649   4.883  49.746  1.00  0.00     0.160 HD
BRANCH  21  23
HETATM   23  C13 UNL     1      24.651   4.380  49.712  1.00  0.00     0.030 A 
HETATM   24  C14 UNL     1      25.637   3.417  49.682  1.00  0.00     0.032 A 
HETATM   25  C15 UNL     1      26.923   3.599  49.223  1.00  0.00     0.046 A 
HETATM   26  C16 UNL     1      27.288   4.820  48.754  1.00  0.00     0.138 A 
HETATM   27  F1  UNL     1      28.530   5.081  48.288  1.00  0.00    -0.204 F 
HETATM   28  C17 UNL     1      26.366   5.834  48.751  1.00  0.00     0.074 A 
HETATM   29 CL1  UNL     1      26.817   7.406  48.152  1.00  0.00    -0.081 Cl
HETATM   30  C18 UNL     1      25.095   5.599  49.218  1.00  0.00     0.056 A 
ENDBRANCH  21  23
ENDBRANCH  17  21
BRANCH  19  31
HETATM   31  O2  UNL     1      21.396   3.803  52.963  1.00  0.00    -0.390 OA
HETATM   32  H21 UNL     1      20.534   3.412  53.254  1.00  0.00     0.210 HD
ENDBRANCH  19  31
TORSDOF 3
ENDMDL
MODEL 2
REMARK VINA RESULT:      -7.7      3.485      5.673
REMARK  3 active torsions:
REMARK  status: ('A' for Active; 'I' for Inactive)
REMARK    1  A    between atoms: C12_17  and  N5_18 
REMARK    2  A    between atoms: N5_18  and  C13_19 
REMARK    3  A    between atoms: C20_28  and  O2_29 
ROOT
HETATM    1  C1  UNL     1      20.698   3.885  52.427  1.00  0.00     0.310 C 
HETATM    2  N1  UNL     1      22.017   3.530  52.009  1.00  0.00     0.098 N 
HETATM    3  C2  UNL     1      21.985   2.307  51.277  1.00  0.00     0.305 C 
HETATM    4  C3  UNL     1      22.340   2.642  49.834  1.00  0.00     0.079 C 
HETATM    5  C4  UNL     1      22.133   1.487  48.912  1.00  0.00     0.043 C 
HETATM    6  N2  UNL     1      21.444   3.701  49.468  1.00  0.00    -0.382 N 
HETATM    7  C5  UNL     1      21.742   4.943  50.153  1.00  0.00     0.259 C 
HETATM    8  O1  UNL     1      22.015   5.890  49.226  1.00  0.00    -0.336 OA
HETATM    9  C6  UNL     1      22.010   7.239  49.216  1.00  0.00     0.139 C 
HETATM   10  C7  UNL     1      22.684   8.345  49.371  1.00  0.00     0.043 C 
HETATM   11  C8  UNL     1      24.050   8.521  49.699  1.00  0.00     0.113 C 
HETATM   12  N3  UNL     1      25.076   7.817  49.945  1.00  0.00    -0.292 NA
HETATM   13  C9  UNL     1      25.302   6.438  49.998  1.00  0.00     0.214 C 
HETATM   14  C10 UNL     1      24.941   5.155  50.332  1.00  0.00     0.090 C 
HETATM   15  C11 UNL     1      26.121   4.441  49.830  1.00  0.00     0.069 C 
HETATM   16  N4  UNL     1      27.048   3.861  49.443  1.00  0.00    -0.197 NA
HETATM   17  C12 UNL     1      24.001   4.099  50.919  1.00  0.00     0.112 C 
HETATM   18  C19 UNL     1      22.666   4.641  51.277  1.00  0.00     0.302 C 
HETATM   19  C20 UNL     1      23.790   3.061  49.836  1.00  0.00     0.179 C 
HETATM   20  H9  UNL     1      21.212   3.781  48.476  1.00  0.00     0.156 HD
ENDROOT
BRANCH  17  21
HETATM   21  N5  UNL     1      24.682   3.521  52.012  1.00  0.00    -0.374 N 
HETATM   22  H15 UNL     1      24.915   4.184  52.817  1.00  0.00     0.160 HD
BRANCH  21  23
HETATM   23  C13 UNL     1      25.122   2.212  52.245  1.00  0.00     0.030 A 
HETATM   24  C14 UNL     1      26.212   1.613  51.649  1.00  0.00     0.032 A 
HETATM   25  C15 UNL     1      26.648   0.328  51.879  1.00  0.00     0.046 A 
HETATM   26  C16 UNL     1      25.968  -0.449  52.763  1.00  0.00     0.138 A 
HETATM   27  F1  UNL     1      26.331  -1.721  53.044  1.00  0.00    -0.204 F 
HETATM   28  C17 UNL     1      24.871   0.070  53.398  1.00  0.00     0.074 A 
HETATM   29 CL1  UNL     1      23.990  -0.911  54.535  1.00  0.00    -0.081 Cl
HETATM   30  C18 UNL     1      24.480   1.361  53.133  1.00  0.00     0.056 A 
ENDBRANCH  21  23
ENDBRANCH  17  21
BRANCH  19  31
HETATM   31  O2  UNL     1      24.265   3.474  48.615  1.00  0.00    -0.390 OA
HETATM   32  H21 UNL     1      23.496   3.664  48.023  1.00  0.00     0.210 HD
ENDBRANCH  19  31
TORSDOF 3
ENDMDL
MODEL 3
REMARK VINA RESULT:      -7.7      8.564     11.941
REMARK  3 active torsions:
REMARK  status: ('A' for Active; 'I' for Inactive)
REMARK    1  A    between atoms: C12_17  and  N5_18 
REMARK    2  A    between atoms: N5_18  and  C13_19 
REMARK    3  A    between atoms: C20_28  and  O2_29 
ROOT
HETATM    1  C1  UNL     1      32.572   3.639  47.812  1.00  0.00     0.310 C 
HETATM    2  N1  UNL     1      32.613   5.062  47.939  1.00  0.00     0.098 N 
HETATM    3  C2  UNL     1      33.647   5.441  48.846  1.00  0.00     0.305 C 
HETATM    4  C3  UNL     1      34.717   6.153  48.028  1.00  0.00     0.079 C 
HETATM    5  C4  UNL     1      35.958   6.414  48.815  1.00  0.00     0.043 C 
HETATM    6  N2  UNL     1      35.024   5.252  46.954  1.00  0.00    -0.382 N 
HETATM    7  C5  UNL     1      33.938   5.134  46.001  1.00  0.00     0.259 C 
HETATM    8  O1  UNL     1      34.390   5.520  44.786  1.00  0.00    -0.336 OA
HETATM    9  C6  UNL     1      33.995   5.306  43.514  1.00  0.00     0.139 C 
HETATM   10  C7  UNL     1      33.299   5.722  42.491  1.00  0.00     0.043 C 
HETATM   11  C8  UNL     1      32.498   6.883  42.367  1.00  0.00     0.113 C 
HETATM   12  N3  UNL     1      32.149   7.886  43.060  1.00  0.00    -0.292 NA
HETATM   13  C9  UNL     1      32.442   8.299  44.364  1.00  0.00     0.214 C 
HETATM   14  C10 UNL     1      32.650   8.061  45.701  1.00  0.00     0.090 C 
HETATM   15  C11 UNL     1      32.921   9.433  46.144  1.00  0.00     0.069 C 
HETATM   16  N4  UNL     1      33.133  10.512  46.514  1.00  0.00    -0.197 NA
HETATM   17  C12 UNL     1      32.756   7.166  46.939  1.00  0.00     0.112 C 
HETATM   18  C19 UNL     1      32.717   5.717  46.616  1.00  0.00     0.302 C 
HETATM   19  C20 UNL     1      34.107   7.452  47.562  1.00  0.00     0.179 C 
HETATM   20  H9  UNL     1      35.963   5.316  46.557  1.00  0.00     0.156 HD
ENDROOT
BRANCH  17  21
HETATM   21  N5  UNL     1      31.726   7.572  47.815  1.00  0.00    -0.374 N 
HETATM   22  H15 UNL     1      32.045   8.026  48.728  1.00  0.00     0.160 HD
BRANCH  21  23
HETATM   23  C13 UNL     1      30.332   7.489  47.710  1.00  0.00     0.030 A 
HETATM   24  C14 UNL     1      29.512   8.437  47.135  1.00  0.00     0.032 A 
HETATM   25  C15 UNL     1      28.142   8.355  47.027  1.00  0.00     0.046 A 
HETATM   26  C16 UNL     1      27.508   7.260  47.521  1.00  0.00     0.138 A 
HETATM   27  F1  UNL     1      26.166   7.104  47.455  1.00  0.00    -0.204 F 
HETATM   28  C17 UNL     1      28.250   6.271  48.110  1.00  0.00     0.074 A 
HETATM   29 CL1  UNL     1      27.453   4.860  48.747  1.00  0.00    -0.081 Cl
HETATM   30  C18 UNL     1      29.616   6.402  48.190  1.00  0.00     0.056 A 
ENDBRANCH  21  23
ENDBRANCH  17  21
BRANCH  19  31
HETATM   31  O2  UNL     1      34.915   8.199  46.740  1.00  0.00    -0.390 OA
HETATM   32  H21 UNL     1      35.369   7.591  46.104  1.00  0.00     0.210 HD
ENDBRANCH  19  31
TORSDOF 3
ENDMDL
MODEL 4
REMARK VINA RESULT:      -7.3      7.067     10.318
REMARK  3 active torsions:
REMARK  status: ('A' for Active; 'I' for Inactive)
REMARK    1  A    between atoms: C12_17  and  N5_18 
REMARK    2  A    between atoms: N5_18  and  C13_19 
REMARK    3  A    between atoms: C20_28  and  O2_29 
ROOT
HETATM    1  C1  UNL     1      28.768  10.707  45.337  1.00  0.00     0.310 C 
HETATM    2  N1  UNL     1      29.921  10.211  46.018  1.00  0.00     0.098 N 
HETATM    3  C2  UNL     1      30.516  11.252  46.792  1.00  0.00     0.305 C 
HETATM    4  C3  UNL     1      30.319  10.885  48.257  1.00  0.00     0.079 C 
HETATM    5  C4  UNL     1      30.703  11.993  49.181  1.00  0.00     0.043 C 
HETATM    6  N2  UNL     1      28.913  10.629  48.390  1.00  0.00    -0.382 N 
HETATM    7  C5  UNL     1      28.502   9.415  47.712  1.00  0.00     0.259 C 
HETATM    8  O1  UNL     1      27.960   8.577  48.625  1.00  0.00    -0.336 OA
HETATM    9  C6  UNL     1      27.124   7.520  48.565  1.00  0.00     0.139 C 
HETATM   10  C7  UNL     1      26.989   6.225  48.487  1.00  0.00     0.043 C 
HETATM   11  C8  UNL     1      27.988   5.224  48.420  1.00  0.00     0.113 C 
HETATM   12  N3  UNL     1      29.252   5.130  48.412  1.00  0.00    -0.292 NA
HETATM   13  C9  UNL     1      30.284   6.072  48.473  1.00  0.00     0.214 C 
HETATM   14  C10 UNL     1      30.858   7.276  48.142  1.00  0.00     0.090 C 
HETATM   15  C11 UNL     1      32.110   7.154  48.897  1.00  0.00     0.069 C 
HETATM   16  N4  UNL     1      33.108   7.074  49.484  1.00  0.00    -0.197 NA
HETATM   17  C12 UNL     1      30.894   8.636  47.440  1.00  0.00     0.112 C 
HETATM   18  C19 UNL     1      29.602   8.998  46.804  1.00  0.00     0.302 C 
HETATM   19  C20 UNL     1      31.173   9.667  48.514  1.00  0.00     0.179 C 
HETATM   20  H9  UNL     1      28.505  10.787  49.313  1.00  0.00     0.156 HD
ENDROOT
BRANCH  17  21
HETATM   21  N5  UNL     1      31.972   8.586  46.529  1.00  0.00    -0.374 N 
HETATM   22  H15 UNL     1      32.659   9.402  46.577  1.00  0.00     0.160 HD
BRANCH  21  23
HETATM   23  C13 UNL     1      32.316   7.646  45.549  1.00  0.00     0.030 A 
HETATM   24  C14 UNL     1      31.872   7.649  44.243  1.00  0.00     0.032 A 
HETATM   25  C15 UNL     1      32.212   6.728  43.277  1.00  0.00     0.046 A 
HETATM   26  C16 UNL     1      33.054   5.713  43.604  1.00  0.00     0.138 A 
HETATM   27  F1  UNL     1      33.435   4.768  42.715  1.00  0.00    -0.204 F 
HETATM   28  C17 UNL     1      33.539   5.636  44.883  1.00  0.00     0.074 A 
HETATM   29 CL1  UNL     1      34.619   4.342  45.318  1.00  0.00    -0.081 Cl
HETATM   30  C18 UNL     1      33.169   6.583  45.808  1.00  0.00     0.056 A 
ENDBRANCH  21  23
ENDBRANCH  17  21
BRANCH  19  31
HETATM   31  O2  UNL     1      31.061   9.148  49.780  1.00  0.00    -0.390 OA
HETATM   32  H21 UNL     1      31.945   8.804  50.061  1.00  0.00     0.210 HD
ENDBRANCH  19  31
TORSDOF 3
ENDMDL
MODEL 5
REMARK VINA RESULT:      -7.2      6.441     10.363
REMARK  3 active torsions:
REMARK  status: ('A' for Active; 'I' for Inactive)
REMARK    1  A    between atoms: C12_17  and  N5_18 
REMARK    2  A    between atoms: N5_18  and  C13_19 
REMARK    3  A    between atoms: C20_28  and  O2_29 
ROOT
HETATM    1  C1  UNL     1      31.031   9.290  45.150  1.00  0.00     0.310 C 
HETATM    2  N1  UNL     1      30.121   8.889  46.177  1.00  0.00     0.098 N 
HETATM    3  C2  UNL     1      30.798   8.087  47.142  1.00  0.00     0.305 C 
HETATM    4  C3  UNL     1      30.852   8.894  48.433  1.00  0.00     0.079 C 
HETATM    5  C4  UNL     1      31.723   8.261  49.467  1.00  0.00     0.043 C 
HETATM    6  N2  UNL     1      31.414  10.159  48.056  1.00  0.00    -0.382 N 
HETATM    7  C5  UNL     1      30.512  10.947  47.240  1.00  0.00     0.259 C 
HETATM    8  O1  UNL     1      30.265  12.114  47.878  1.00  0.00    -0.336 OA
HETATM    9  C6  UNL     1      29.826  13.331  47.495  1.00  0.00     0.139 C 
HETATM   10  C7  UNL     1      28.813  14.137  47.333  1.00  0.00     0.043 C 
HETATM   11  C8  UNL     1      27.439  13.909  47.589  1.00  0.00     0.113 C 
HETATM   12  N3  UNL     1      26.685  12.986  48.021  1.00  0.00    -0.292 NA
HETATM   13  C9  UNL     1      26.924  11.684  48.470  1.00  0.00     0.214 C 
HETATM   14  C10 UNL     1      27.557  10.465  48.400  1.00  0.00     0.090 C 
HETATM   15  C11 UNL     1      26.917   9.802  49.542  1.00  0.00     0.069 C 
HETATM   16  N4  UNL     1      26.419   9.260  50.438  1.00  0.00    -0.197 NA
HETATM   17  C12 UNL     1      28.542   9.460  47.798  1.00  0.00     0.112 C 
HETATM   18  C19 UNL     1      29.422  10.056  46.762  1.00  0.00     0.302 C 
HETATM   19  C20 UNL     1      29.432   8.998  48.934  1.00  0.00     0.179 C 
HETATM   20  H9  UNL     1      31.922  10.668  48.782  1.00  0.00     0.156 HD
ENDROOT
BRANCH  17  21
HETATM   21  N5  UNL     1      27.769   8.380  47.321  1.00  0.00    -0.374 N 
HETATM   22  H15 UNL     1      27.300   8.527  46.373  1.00  0.00     0.160 HD
BRANCH  21  23
HETATM   23  C13 UNL     1      27.494   7.121  47.871  1.00  0.00     0.030 A 
HETATM   24  C14 UNL     1      28.412   6.110  48.061  1.00  0.00     0.032 A 
HETATM   25  C15 UNL     1      28.145   4.873  48.604  1.00  0.00     0.046 A 
HETATM   26  C16 UNL     1      26.876   4.589  48.998  1.00  0.00     0.138 A 
HETATM   27  F1  UNL     1      26.532   3.399  49.541  1.00  0.00    -0.204 F 
HETATM   28  C17 UNL     1      25.903   5.540  48.844  1.00  0.00     0.074 A 
HETATM   29 CL1  UNL     1      24.272   5.191  49.345  1.00  0.00    -0.081 Cl
HETATM   30  C18 UNL     1      26.223   6.759  48.296  1.00  0.00     0.056 A 
ENDBRANCH  21  23
ENDBRANCH  17  21
BRANCH  19  31
HETATM   31  O2  UNL     1      29.280   9.763  50.063  1.00  0.00    -0.390 OA
HETATM   32  H21 UNL     1      29.977  10.465  50.066  1.00  0.00     0.210 HD
ENDBRANCH  19  31
TORSDOF 3
ENDMDL
MODEL 6
REMARK VINA RESULT:      -7.2      3.139      5.349
REMARK  3 active torsions:
REMARK  status: ('A' for Active; 'I' for Inactive)
REMARK    1  A    between atoms: C12_17  and  N5_18 
REMARK    2  A    between atoms: N5_18  and  C13_19 
REMARK    3  A    between atoms: C20_28  and  O2_29 
ROOT
HETATM    1  C1  UNL     1      22.353   2.291  48.169  1.00  0.00     0.310 C 
HETATM    2  N1  UNL     1      22.420   1.882  49.536  1.00  0.00     0.098 N 
HETATM    3  C2  UNL     1      23.039   2.900  50.321  1.00  0.00     0.305 C 
HETATM    4  C3  UNL     1      21.965   3.468  51.240  1.00  0.00     0.079 C 
HETATM    5  C4  UNL     1      22.421   4.689  51.966  1.00  0.00     0.043 C 
HETATM    6  N2  UNL     1      20.878   3.817  50.370  1.00  0.00    -0.382 N 
HETATM    7  C5  UNL     1      20.219   2.654  49.810  1.00  0.00     0.259 C 
HETATM    8  O1  UNL     1      18.918   2.678  50.182  1.00  0.00    -0.336 OA
HETATM    9  C6  UNL     1      17.787   2.112  49.715  1.00  0.00     0.139 C 
HETATM   10  C7  UNL     1      16.948   1.113  49.774  1.00  0.00     0.043 C 
HETATM   11  C8  UNL     1      16.982  -0.035  50.601  1.00  0.00     0.113 C 
HETATM   12  N3  UNL     1      17.705  -0.540  51.511  1.00  0.00    -0.292 NA
HETATM   13  C9  UNL     1      18.886  -0.128  52.137  1.00  0.00     0.214 C 
HETATM   14  C10 UNL     1      20.141   0.431  52.126  1.00  0.00     0.090 C 
HETATM   15  C11 UNL     1      20.461   0.318  53.554  1.00  0.00     0.069 C 
HETATM   16  N4  UNL     1      20.733   0.232  54.678  1.00  0.00    -0.197 NA
HETATM   17  C12 UNL     1      21.346   1.095  51.454  1.00  0.00     0.112 C 
HETATM   18  C19 UNL     1      21.090   1.472  50.040  1.00  0.00     0.302 C 
HETATM   19  C20 UNL     1      21.616   2.374  52.220  1.00  0.00     0.179 C 
HETATM   20  H9  UNL     1      20.266   4.572  50.684  1.00  0.00     0.156 HD
ENDROOT
BRANCH  17  21
HETATM   21  N5  UNL     1      22.430   0.204  51.607  1.00  0.00    -0.374 N 
HETATM   22  H15 UNL     1      22.429  -0.645  50.957  1.00  0.00     0.160 HD
BRANCH  21  23
HETATM   23  C13 UNL     1      23.532   0.222  52.471  1.00  0.00     0.030 A 
HETATM   24  C14 UNL     1      23.658  -0.520  53.627  1.00  0.00     0.032 A 
HETATM   25  C15 UNL     1      24.742  -0.505  54.477  1.00  0.00     0.046 A 
HETATM   26  C16 UNL     1      25.796   0.300  54.183  1.00  0.00     0.138 A 
HETATM   27  F1  UNL     1      26.897   0.372  54.966  1.00  0.00    -0.204 F 
HETATM   28  C17 UNL     1      25.750   1.071  53.052  1.00  0.00     0.074 A 
HETATM   29 CL1  UNL     1      27.094   2.107  52.662  1.00  0.00    -0.081 Cl
HETATM   30  C18 UNL     1      24.644   1.018  52.238  1.00  0.00     0.056 A 
ENDBRANCH  21  23
ENDBRANCH  17  21
BRANCH  19  31
HETATM   31  O2  UNL     1      20.600   2.688  53.088  1.00  0.00    -0.390 OA
HETATM   32  H21 UNL     1      20.429   3.661  53.036  1.00  0.00     0.210 HD
ENDBRANCH  19  31
TORSDOF 3
ENDMDL
MODEL 7
REMARK VINA RESULT:      -7.1      3.426      6.421
REMARK  3 active torsions:
REMARK  status: ('A' for Active; 'I' for Inactive)
REMARK    1  A    between atoms: C12_17  and  N5_18 
REMARK    2  A    between atoms: N5_18  and  C13_19 
REMARK    3  A    between atoms: C20_28  and  O2_29 
ROOT
HETATM    1  C1  UNL     1      26.265   3.123  50.156  1.00  0.00     0.310 C 
HETATM    2  N1  UNL     1      24.983   2.730  50.648  1.00  0.00     0.098 N 
HETATM    3  C2  UNL     1      24.854   3.096  52.021  1.00  0.00     0.305 C 
HETATM    4  C3  UNL     1      23.802   4.195  52.092  1.00  0.00     0.079 C 
HETATM    5  C4  UNL     1      23.721   4.822  53.444  1.00  0.00     0.043 C 
HETATM    6  N2  UNL     1      24.230   5.181  51.142  1.00  0.00    -0.382 N 
HETATM    7  C5  UNL     1      24.104   4.724  49.772  1.00  0.00     0.259 C 
HETATM    8  O1  UNL     1      23.272   5.564  49.114  1.00  0.00    -0.336 OA
HETATM    9  C6  UNL     1      23.057   5.865  47.817  1.00  0.00     0.139 C 
HETATM   10  C7  UNL     1      22.373   5.632  46.730  1.00  0.00     0.043 C 
HETATM   11  C8  UNL     1      21.324   4.707  46.515  1.00  0.00     0.113 C 
HETATM   12  N3  UNL     1      20.670   3.832  47.159  1.00  0.00    -0.292 NA
HETATM   13  C9  UNL     1      20.720   3.377  48.480  1.00  0.00     0.214 C 
HETATM   14  C10 UNL     1      21.396   3.004  49.617  1.00  0.00     0.090 C 
HETATM   15  C11 UNL     1      20.251   2.675  50.473  1.00  0.00     0.069 C 
HETATM   16  N4  UNL     1      19.358   2.406  51.164  1.00  0.00    -0.197 NA
HETATM   17  C12 UNL     1      22.657   2.762  50.450  1.00  0.00     0.112 C 
HETATM   18  C19 UNL     1      23.894   3.252  49.792  1.00  0.00     0.302 C 
HETATM   19  C20 UNL     1      22.485   3.551  51.731  1.00  0.00     0.179 C 
HETATM   20  H9  UNL     1      23.941   6.144  51.321  1.00  0.00     0.156 HD
ENDROOT
BRANCH  17  21
HETATM   21  N5  UNL     1      22.686   1.379  50.737  1.00  0.00    -0.374 N 
HETATM   22  H15 UNL     1      22.784   0.732  49.893  1.00  0.00     0.160 HD
BRANCH  21  23
HETATM   23  C13 UNL     1      22.609   0.681  51.948  1.00  0.00     0.030 A 
HETATM   24  C14 UNL     1      21.444   0.298  52.580  1.00  0.00     0.032 A 
HETATM   25  C15 UNL     1      21.365  -0.392  53.770  1.00  0.00     0.046 A 
HETATM   26  C16 UNL     1      22.515  -0.740  54.405  1.00  0.00     0.138 A 
HETATM   27  F1  UNL     1      22.523  -1.417  55.576  1.00  0.00    -0.204 F 
HETATM   28  C17 UNL     1      23.716  -0.396  53.844  1.00  0.00     0.074 A 
HETATM   29 CL1  UNL     1      25.198  -0.836  54.645  1.00  0.00    -0.081 Cl
HETATM   30  C18 UNL     1      23.738   0.292  52.654  1.00  0.00     0.056 A 
ENDBRANCH  21  23
ENDBRANCH  17  21
BRANCH  19  31
HETATM   31  O2  UNL     1      21.423   4.420  51.672  1.00  0.00    -0.390 OA
HETATM   32  H21 UNL     1      21.677   5.193  51.109  1.00  0.00     0.210 HD
ENDBRANCH  19  31
TORSDOF 3
ENDMDL
MODEL 8
REMARK VINA RESULT:      -7.1      7.915     11.278
REMARK  3 active torsions:
REMARK  status: ('A' for Active; 'I' for Inactive)
REMARK    1  A    between atoms: C12_17  and  N5_18 
REMARK    2  A    between atoms: N5_18  and  C13_19 
REMARK    3  A    between atoms: C20_28  and  O2_29 
ROOT
HETATM    1  C1  UNL     1      31.832   8.350  50.092  1.00  0.00     0.310 C 
HETATM    2  N1  UNL     1      31.642   8.298  48.677  1.00  0.00     0.098 N 
HETATM    3  C2  UNL     1      32.009   9.545  48.089  1.00  0.00     0.305 C 
HETATM    4  C3  UNL     1      33.260   9.293  47.257  1.00  0.00     0.079 C 
HETATM    5  C4  UNL     1      33.879  10.557  46.758  1.00  0.00     0.043 C 
HETATM    6  N2  UNL     1      34.176   8.643  48.150  1.00  0.00    -0.382 N 
HETATM    7  C5  UNL     1      33.758   7.297  48.492  1.00  0.00     0.259 C 
HETATM    8  O1  UNL     1      34.726   6.437  48.102  1.00  0.00    -0.336 OA
HETATM    9  C6  UNL     1      35.071   5.178  48.442  1.00  0.00     0.139 C 
HETATM   10  C7  UNL     1      34.960   3.900  48.198  1.00  0.00     0.043 C 
HETATM   11  C8  UNL     1      34.215   3.244  47.189  1.00  0.00     0.113 C 
HETATM   12  N3  UNL     1      33.448   3.534  46.222  1.00  0.00    -0.292 NA
HETATM   13  C9  UNL     1      32.977   4.743  45.700  1.00  0.00     0.214 C 
HETATM   14  C10 UNL     1      32.491   6.021  45.832  1.00  0.00     0.090 C 
HETATM   15  C11 UNL     1      32.338   6.361  44.413  1.00  0.00     0.069 C 
HETATM   16  N4  UNL     1      32.206   6.647  43.296  1.00  0.00    -0.197 NA
HETATM   17  C12 UNL     1      32.043   7.247  46.632  1.00  0.00     0.112 C 
HETATM   18  C19 UNL     1      32.339   7.135  48.083  1.00  0.00     0.302 C 
HETATM   19  C20 UNL     1      32.837   8.422  46.100  1.00  0.00     0.179 C 
HETATM   20  H9  UNL     1      35.171   8.768  47.956  1.00  0.00     0.156 HD
ENDROOT
BRANCH  17  21
HETATM   21  N5  UNL     1      30.671   7.427  46.353  1.00  0.00    -0.374 N 
HETATM   22  H15 UNL     1      30.445   7.984  45.470  1.00  0.00     0.160 HD
BRANCH  21  23
HETATM   23  C13 UNL     1      29.522   7.002  47.034  1.00  0.00     0.030 A 
HETATM   24  C14 UNL     1      29.398   5.825  47.741  1.00  0.00     0.032 A 
HETATM   25  C15 UNL     1      28.271   5.407  48.414  1.00  0.00     0.046 A 
HETATM   26  C16 UNL     1      27.166   6.199  48.400  1.00  0.00     0.138 A 
HETATM   27  F1  UNL     1      26.021   5.861  49.035  1.00  0.00    -0.204 F 
HETATM   28  C17 UNL     1      27.207   7.386  47.719  1.00  0.00     0.074 A 
HETATM   29 CL1  UNL     1      25.800   8.413  47.694  1.00  0.00    -0.081 Cl
HETATM   30  C18 UNL     1      28.358   7.756  47.065  1.00  0.00     0.056 A 
ENDBRANCH  21  23
ENDBRANCH  17  21
BRANCH  19  31
HETATM   31  O2  UNL     1      33.863   8.030  45.276  1.00  0.00    -0.390 OA
HETATM   32  H21 UNL     1      34.649   7.804  45.833  1.00  0.00     0.210 HD
ENDBRANCH  19  31
TORSDOF 3
ENDMDL
MODEL 9
REMARK VINA RESULT:      -6.7      6.521      9.666
REMARK  3 active torsions:
REMARK  status: ('A' for Active; 'I' for Inactive)
REMARK    1  A    between atoms: C12_17  and  N5_18 
REMARK    2  A    between atoms: N5_18  and  C13_19 
REMARK    3  A    between atoms: C20_28  and  O2_29 
ROOT
HETATM    1  C1  UNL     1      27.911  10.362  45.781  1.00  0.00     0.310 C 
HETATM    2  N1  UNL     1      28.991   9.544  46.235  1.00  0.00     0.098 N 
HETATM    3  C2  UNL     1      29.966  10.348  46.898  1.00  0.00     0.305 C 
HETATM    4  C3  UNL     1      29.935   9.962  48.371  1.00  0.00     0.079 C 
HETATM    5  C4  UNL     1      30.755  10.877  49.219  1.00  0.00     0.043 C 
HETATM    6  N2  UNL     1      28.558  10.073  48.755  1.00  0.00    -0.382 N 
HETATM    7  C5  UNL     1      27.728   9.048  48.152  1.00  0.00     0.259 C 
HETATM    8  O1  UNL     1      27.149   8.328  49.140  1.00  0.00    -0.336 OA
HETATM    9  C6  UNL     1      26.065   7.530  49.224  1.00  0.00     0.139 C 
HETATM   10  C7  UNL     1      25.578   6.321  49.159  1.00  0.00     0.043 C 
HETATM   11  C8  UNL     1      26.248   5.101  48.901  1.00  0.00     0.113 C 
HETATM   12  N3  UNL     1      27.421   4.682  48.661  1.00  0.00    -0.292 NA
HETATM   13  C9  UNL     1      28.660   5.319  48.543  1.00  0.00     0.214 C 
HETATM   14  C10 UNL     1      29.467   6.349  48.124  1.00  0.00     0.090 C 
HETATM   15  C11 UNL     1      30.753   5.863  48.637  1.00  0.00     0.069 C 
HETATM   16  N4  UNL     1      31.780   5.493  49.031  1.00  0.00    -0.197 NA
HETATM   17  C12 UNL     1      29.741   7.691  47.440  1.00  0.00     0.112 C 
HETATM   18  C19 UNL     1      28.502   8.412  47.054  1.00  0.00     0.302 C 
HETATM   19  C20 UNL     1      30.466   8.551  48.455  1.00  0.00     0.179 C 
HETATM   20  H9  UNL     1      28.372  10.278  49.739  1.00  0.00     0.156 HD
ENDROOT
BRANCH  17  21
HETATM   21  N5  UNL     1      30.592   7.416  46.347  1.00  0.00    -0.374 N 
HETATM   22  H15 UNL     1      30.218   6.714  45.634  1.00  0.00     0.160 HD
BRANCH  21  23
HETATM   23  C13 UNL     1      31.863   7.901  46.016  1.00  0.00     0.030 A 
HETATM   24  C14 UNL     1      32.230   8.420  44.792  1.00  0.00     0.032 A 
HETATM   25  C15 UNL     1      33.479   8.900  44.465  1.00  0.00     0.046 A 
HETATM   26  C16 UNL     1      34.459   8.875  45.404  1.00  0.00     0.138 A 
HETATM   27  F1  UNL     1      35.711   9.327  45.163  1.00  0.00    -0.204 F 
HETATM   28  C17 UNL     1      34.178   8.373  46.647  1.00  0.00     0.074 A 
HETATM   29 CL1  UNL     1      35.424   8.334  47.863  1.00  0.00    -0.081 Cl
HETATM   30  C18 UNL     1      32.914   7.907  46.922  1.00  0.00     0.056 A 
ENDBRANCH  21  23
ENDBRANCH  17  21
BRANCH  19  31
HETATM   31  O2  UNL     1      30.441   8.007  49.715  1.00  0.00    -0.390 OA
HETATM   32  H21 UNL     1      30.865   8.643  50.344  1.00  0.00     0.210 HD
ENDBRANCH  19  31
TORSDOF 3
ENDMDL
