MODEL 1
REMARK VINA RESULT:      -7.2      0.000      0.000
REMARK  7 active torsions:
REMARK  status: ('A' for Active; 'I' for Inactive)
REMARK    1  A    between atoms: O1_2  and  C2_3 
REMARK    2  A    between atoms: C2_3  and  O2_5 
REMARK    3  A    between atoms: C2_3  and  C11_15 
REMARK    4  A    between atoms: O2_5  and  C4_6 
REMARK    5  A    between atoms: C4_6  and  C5_7 
REMARK    6  A    between atoms: C5_7  and  C6_8 
REMARK    7  A    between atoms: C6_8  and  N1_9 
ROOT
HETATM    1  C11 UNL     1      23.064   5.236  49.872  1.00  0.00     0.056 C 
HETATM    2  C12 UNL     1      22.057   5.943  50.444  1.00  0.00     0.043 C 
HETATM    3  C13 UNL     1      21.032   6.195  49.386  1.00  0.00     0.207 C 
HETATM    4  N2  UNL     1      21.070   4.792  48.838  1.00  0.00    -0.283 NA
HETATM    5  C14 UNL     1      22.372   4.492  48.837  1.00  0.00     0.068 C 
HETATM    6  C15 UNL     1      22.561   3.454  47.802  1.00  0.00     0.077 C 
HETATM    7  C16 UNL     1      22.364   2.297  48.480  1.00  0.00     0.157 C 
HETATM    8  F1  UNL     1      22.524   1.340  47.549  1.00  0.00    -0.203 F 
HETATM    9  C17 UNL     1      22.122   2.036  49.912  1.00  0.00     0.154 C 
HETATM   10  F2  UNL     1      21.974   0.658  49.907  1.00  0.00    -0.203 F 
HETATM   11  C18 UNL     1      21.979   2.461  51.152  1.00  0.00     0.047 C 
HETATM   12  C19 UNL     1      21.989   3.639  51.952  1.00  0.00     0.020 C 
HETATM   13  C20 UNL     1      22.068   4.858  52.355  1.00  0.00     0.088 C 
HETATM   14  N3  UNL     1      22.311   6.148  51.821  1.00  0.00    -0.367 N 
HETATM   15  H27 UNL     1      22.526   7.125  51.585  1.00  0.00     0.165 HD
ENDROOT
BRANCH   1  16
HETATM   16  C2  UNL     1      24.499   5.301  50.234  1.00  0.00     0.192 C 
HETATM   17  C3  UNL     1      25.396   5.225  49.018  1.00  0.00     0.085 C 
BRANCH  16  18
HETATM   18  O1  UNL     1      24.862   6.441  50.924  1.00  0.00    -0.356 OA
HETATM   19  C1  UNL     1      25.591   7.306  50.079  1.00  0.00     0.206 C 
ENDBRANCH  16  18
BRANCH  16  20
HETATM   20  O2  UNL     1      24.811   4.228  51.114  1.00  0.00    -0.351 OA
BRANCH  20  21
HETATM   21  C4  UNL     1      25.643   3.338  50.498  1.00  0.00     0.173 C 
BRANCH  21  22
HETATM   22  C5  UNL     1      25.743   2.105  51.409  1.00  0.00     0.056 C 
BRANCH  22  23
HETATM   23  C6  UNL     1      27.020   2.115  52.186  1.00  0.00     0.274 C 
BRANCH  23  24
HETATM   24  N1  UNL     1      27.547   0.833  52.530  1.00  0.00     0.092 N 
HETATM   25  C7  UNL     1      28.670   1.070  53.449  1.00  0.00     0.298 C 
HETATM   26  C8  UNL     1      28.946  -0.142  54.289  1.00  0.00     0.198 C 
HETATM   27  O3  UNL     1      27.920  -0.254  55.222  1.00  0.00    -0.388 OA
HETATM   28  C9  UNL     1      26.681   0.117  54.719  1.00  0.00     0.198 C 
HETATM   29  C10 UNL     1      26.651  -0.055  53.196  1.00  0.00     0.298 C 
ENDBRANCH  23  24
ENDBRANCH  22  23
ENDBRANCH  21  22
ENDBRANCH  20  21
ENDBRANCH  16  20
ENDBRANCH   1  16
TORSDOF 7
ENDMDL
MODEL 2
REMARK VINA RESULT:      -7.1      2.583      4.329
REMARK  7 active torsions:
REMARK  status: ('A' for Active; 'I' for Inactive)
REMARK    1  A    between atoms: O1_2  and  C2_3 
REMARK    2  A    between atoms: C2_3  and  O2_5 
REMARK    3  A    between atoms: C2_3  and  C11_15 
REMARK    4  A    between atoms: O2_5  and  C4_6 
REMARK    5  A    between atoms: C4_6  and  C5_7 
REMARK    6  A    between atoms: C5_7  and  C6_8 
REMARK    7  A    between atoms: C6_8  and  N1_9 
ROOT
HETATM    1  C11 UNL     1      20.876   2.680  50.637  1.00  0.00     0.056 C 
HETATM    2  C12 UNL     1      20.251   2.764  49.437  1.00  0.00     0.043 C 
HETATM    3  C13 UNL     1      19.592   4.104  49.369  1.00  0.00     0.207 C 
HETATM    4  N2  UNL     1      20.776   4.854  49.924  1.00  0.00    -0.283 NA
HETATM    5  C14 UNL     1      21.210   4.065  50.911  1.00  0.00     0.068 C 
HETATM    6  C15 UNL     1      21.924   4.941  51.863  1.00  0.00     0.077 C 
HETATM    7  C16 UNL     1      23.196   4.941  51.394  1.00  0.00     0.157 C 
HETATM    8  F1  UNL     1      23.860   5.742  52.246  1.00  0.00    -0.203 F 
HETATM    9  C17 UNL     1      23.825   4.200  50.285  1.00  0.00     0.154 C 
HETATM   10  F2  UNL     1      25.118   4.696  50.336  1.00  0.00    -0.203 F 
HETATM   11  C18 UNL     1      23.758   3.326  49.298  1.00  0.00     0.047 C 
HETATM   12  C19 UNL     1      22.866   2.437  48.635  1.00  0.00     0.020 C 
HETATM   13  C20 UNL     1      21.830   1.761  48.283  1.00  0.00     0.088 C 
HETATM   14  N3  UNL     1      20.478   1.594  48.674  1.00  0.00    -0.367 N 
HETATM   15  H27 UNL     1      19.505   1.332  48.879  1.00  0.00     0.165 HD
ENDROOT
BRANCH   1  16
HETATM   16  C2  UNL     1      21.082   1.450  51.437  1.00  0.00     0.192 C 
HETATM   17  C3  UNL     1      20.703   1.644  52.888  1.00  0.00     0.085 C 
BRANCH  16  18
HETATM   18  O1  UNL     1      20.375   0.352  50.986  1.00  0.00    -0.356 OA
HETATM   19  C1  UNL     1      19.310   0.067  51.869  1.00  0.00     0.206 C 
ENDBRANCH  16  18
BRANCH  16  20
HETATM   20  O2  UNL     1      22.447   1.060  51.358  1.00  0.00    -0.351 OA
BRANCH  20  21
HETATM   21  C4  UNL     1      22.954   0.855  52.609  1.00  0.00     0.173 C 
BRANCH  21  22
HETATM   22  C5  UNL     1      24.379   1.428  52.621  1.00  0.00     0.056 C 
BRANCH  22  23
HETATM   23  C6  UNL     1      25.375   0.378  52.995  1.00  0.00     0.274 C 
BRANCH  23  24
HETATM   24  N1  UNL     1      26.742   0.695  52.725  1.00  0.00     0.092 N 
HETATM   25  C7  UNL     1      26.995   2.016  53.318  1.00  0.00     0.298 C 
HETATM   26  C8  UNL     1      28.457   2.216  53.587  1.00  0.00     0.198 C 
HETATM   27  O3  UNL     1      28.801   1.418  54.674  1.00  0.00    -0.388 OA
HETATM   28  C9  UNL     1      28.134   0.202  54.693  1.00  0.00     0.198 C 
HETATM   29  C10 UNL     1      27.712  -0.195  53.274  1.00  0.00     0.298 C 
ENDBRANCH  23  24
ENDBRANCH  22  23
ENDBRANCH  21  22
ENDBRANCH  20  21
ENDBRANCH  16  20
ENDBRANCH   1  16
TORSDOF 7
ENDMDL
MODEL 3
REMARK VINA RESULT:      -6.6      2.042      2.980
REMARK  7 active torsions:
REMARK  status: ('A' for Active; 'I' for Inactive)
REMARK    1  A    between atoms: O1_2  and  C2_3 
REMARK    2  A    between atoms: C2_3  and  O2_5 
REMARK    3  A    between atoms: C2_3  and  C11_15 
REMARK    4  A    between atoms: O2_5  and  C4_6 
REMARK    5  A    between atoms: C4_6  and  C5_7 
REMARK    6  A    between atoms: C5_7  and  C6_8 
REMARK    7  A    between atoms: C6_8  and  N1_9 
ROOT
HETATM    1  C11 UNL     1      22.524   3.078  50.036  1.00  0.00     0.056 C 
HETATM    2  C12 UNL     1      21.658   2.980  48.996  1.00  0.00     0.043 C 
HETATM    3  C13 UNL     1      21.755   1.586  48.464  1.00  0.00     0.207 C 
HETATM    4  N2  UNL     1      21.752   0.933  49.822  1.00  0.00    -0.283 NA
HETATM    5  C14 UNL     1      22.547   1.723  50.551  1.00  0.00     0.068 C 
HETATM    6  C15 UNL     1      23.081   0.883  51.643  1.00  0.00     0.077 C 
HETATM    7  C16 UNL     1      22.156   1.022  52.625  1.00  0.00     0.157 C 
HETATM    8  F1  UNL     1      22.623   0.256  53.627  1.00  0.00    -0.203 F 
HETATM    9  C17 UNL     1      20.946   1.861  52.711  1.00  0.00     0.154 C 
HETATM   10  F2  UNL     1      20.455   1.488  53.952  1.00  0.00    -0.203 F 
HETATM   11  C18 UNL     1      20.128   2.760  52.197  1.00  0.00     0.047 C 
HETATM   12  C19 UNL     1      19.928   3.584  51.054  1.00  0.00     0.020 C 
HETATM   13  C20 UNL     1      20.057   4.171  49.917  1.00  0.00     0.088 C 
HETATM   14  N3  UNL     1      20.952   4.194  48.819  1.00  0.00    -0.367 N 
HETATM   15  H27 UNL     1      21.537   4.354  47.989  1.00  0.00     0.165 HD
ENDROOT
BRANCH   1  16
HETATM   16  C2  UNL     1      23.266   4.292  50.449  1.00  0.00     0.192 C 
HETATM   17  C3  UNL     1      23.536   5.218  49.283  1.00  0.00     0.085 C 
BRANCH  16  18
HETATM   18  O1  UNL     1      22.632   5.046  51.416  1.00  0.00    -0.356 OA
HETATM   19  C1  UNL     1      23.218   4.805  52.679  1.00  0.00     0.206 C 
ENDBRANCH  16  18
BRANCH  16  20
HETATM   20  O2  UNL     1      24.502   3.909  51.038  1.00  0.00    -0.351 OA
BRANCH  20  21
HETATM   21  C4  UNL     1      25.512   4.003  50.124  1.00  0.00     0.173 C 
BRANCH  21  22
HETATM   22  C5  UNL     1      26.503   2.869  50.425  1.00  0.00     0.056 C 
BRANCH  22  23
HETATM   23  C6  UNL     1      26.375   2.408  51.841  1.00  0.00     0.274 C 
BRANCH  23  24
HETATM   24  N1  UNL     1      27.377   1.495  52.290  1.00  0.00     0.092 N 
HETATM   25  C7  UNL     1      28.198   2.217  53.273  1.00  0.00     0.298 C 
HETATM   26  C8  UNL     1      28.902   1.265  54.193  1.00  0.00     0.198 C 
HETATM   27  O3  UNL     1      27.951   0.727  55.055  1.00  0.00    -0.388 OA
HETATM   28  C9  UNL     1      26.724   0.506  54.446  1.00  0.00     0.198 C 
HETATM   29  C10 UNL     1      26.907   0.314  52.936  1.00  0.00     0.298 C 
ENDBRANCH  23  24
ENDBRANCH  22  23
ENDBRANCH  21  22
ENDBRANCH  20  21
ENDBRANCH  16  20
ENDBRANCH   1  16
TORSDOF 7
ENDMDL
MODEL 4
REMARK VINA RESULT:      -6.5      9.936     12.136
REMARK  7 active torsions:
REMARK  status: ('A' for Active; 'I' for Inactive)
REMARK    1  A    between atoms: O1_2  and  C2_3 
REMARK    2  A    between atoms: C2_3  and  O2_5 
REMARK    3  A    between atoms: C2_3  and  C11_15 
REMARK    4  A    between atoms: O2_5  and  C4_6 
REMARK    5  A    between atoms: C4_6  and  C5_7 
REMARK    6  A    between atoms: C5_7  and  C6_8 
REMARK    7  A    between atoms: C6_8  and  N1_9 
ROOT
HETATM    1  C11 UNL     1      32.523   6.600  47.461  1.00  0.00     0.056 C 
HETATM    2  C12 UNL     1      32.923   6.997  48.695  1.00  0.00     0.043 C 
HETATM    3  C13 UNL     1      31.887   6.537  49.670  1.00  0.00     0.207 C 
HETATM    4  N2  UNL     1      31.748   5.164  49.067  1.00  0.00    -0.283 NA
HETATM    5  C14 UNL     1      31.769   5.396  47.751  1.00  0.00     0.068 C 
HETATM    6  C15 UNL     1      31.053   4.269  47.117  1.00  0.00     0.077 C 
HETATM    7  C16 UNL     1      32.034   3.358  46.902  1.00  0.00     0.157 C 
HETATM    8  F1  UNL     1      31.398   2.319  46.332  1.00  0.00    -0.203 F 
HETATM    9  C17 UNL     1      33.492   3.427  47.117  1.00  0.00     0.154 C 
HETATM   10  F2  UNL     1      33.876   2.153  46.730  1.00  0.00    -0.203 F 
HETATM   11  C18 UNL     1      34.572   4.088  47.490  1.00  0.00     0.047 C 
HETATM   12  C19 UNL     1      35.012   5.350  47.979  1.00  0.00     0.020 C 
HETATM   13  C20 UNL     1      35.057   6.566  48.394  1.00  0.00     0.088 C 
HETATM   14  N3  UNL     1      34.176   7.651  48.626  1.00  0.00    -0.367 N 
HETATM   15  H27 UNL     1      33.668   8.532  48.784  1.00  0.00     0.165 HD
ENDROOT
BRANCH   1  16
HETATM   16  C2  UNL     1      32.784   7.305  46.184  1.00  0.00     0.192 C 
HETATM   17  C3  UNL     1      31.504   7.689  45.474  1.00  0.00     0.085 C 
BRANCH  16  18
HETATM   18  O1  UNL     1      33.527   8.462  46.313  1.00  0.00    -0.356 OA
HETATM   19  C1  UNL     1      32.765   9.576  45.897  1.00  0.00     0.206 C 
ENDBRANCH  16  18
BRANCH  16  20
HETATM   20  O2  UNL     1      33.558   6.468  45.335  1.00  0.00    -0.351 OA
BRANCH  20  21
HETATM   21  C4  UNL     1      32.819   6.077  44.256  1.00  0.00     0.173 C 
BRANCH  21  22
HETATM   22  C5  UNL     1      33.490   4.821  43.678  1.00  0.00     0.056 C 
BRANCH  22  23
HETATM   23  C6  UNL     1      34.496   5.183  42.634  1.00  0.00     0.274 C 
BRANCH  23  24
HETATM   24  N1  UNL     1      34.026   5.164  41.286  1.00  0.00     0.092 N 
HETATM   25  C7  UNL     1      35.208   5.308  40.423  1.00  0.00     0.298 C 
HETATM   26  C8  UNL     1      34.944   4.769  39.049  1.00  0.00     0.198 C 
HETATM   27  O3  UNL     1      34.906   3.381  39.138  1.00  0.00    -0.388 OA
HETATM   28  C9  UNL     1      34.325   2.924  40.312  1.00  0.00     0.198 C 
HETATM   29  C10 UNL     1      33.358   3.973  40.871  1.00  0.00     0.298 C 
ENDBRANCH  23  24
ENDBRANCH  22  23
ENDBRANCH  21  22
ENDBRANCH  20  21
ENDBRANCH  16  20
ENDBRANCH   1  16
TORSDOF 7
ENDMDL
MODEL 5
REMARK VINA RESULT:      -6.3      1.573      2.131
REMARK  7 active torsions:
REMARK  status: ('A' for Active; 'I' for Inactive)
REMARK    1  A    between atoms: O1_2  and  C2_3 
REMARK    2  A    between atoms: C2_3  and  O2_5 
REMARK    3  A    between atoms: C2_3  and  C11_15 
REMARK    4  A    between atoms: O2_5  and  C4_6 
REMARK    5  A    between atoms: C4_6  and  C5_7 
REMARK    6  A    between atoms: C5_7  and  C6_8 
REMARK    7  A    between atoms: C6_8  and  N1_9 
ROOT
HETATM    1  C11 UNL     1      22.767   3.782  49.754  1.00  0.00     0.056 C 
HETATM    2  C12 UNL     1      22.177   4.932  49.343  1.00  0.00     0.043 C 
HETATM    3  C13 UNL     1      21.288   4.591  48.191  1.00  0.00     0.207 C 
HETATM    4  N2  UNL     1      20.712   3.359  48.838  1.00  0.00    -0.283 NA
HETATM    5  C14 UNL     1      21.771   2.784  49.415  1.00  0.00     0.068 C 
HETATM    6  C15 UNL     1      21.455   1.344  49.529  1.00  0.00     0.077 C 
HETATM    7  C16 UNL     1      20.837   1.256  50.733  1.00  0.00     0.157 C 
HETATM    8  F1  UNL     1      20.534  -0.050  50.850  1.00  0.00    -0.203 F 
HETATM    9  C17 UNL     1      20.592   2.266  51.779  1.00  0.00     0.154 C 
HETATM   10  F2  UNL     1      19.889   1.517  52.709  1.00  0.00    -0.203 F 
HETATM   11  C18 UNL     1      20.710   3.495  52.244  1.00  0.00     0.047 C 
HETATM   12  C19 UNL     1      21.251   4.774  51.933  1.00  0.00     0.020 C 
HETATM   13  C20 UNL     1      21.849   5.755  51.355  1.00  0.00     0.088 C 
HETATM   14  N3  UNL     1      22.572   6.015  50.164  1.00  0.00    -0.367 N 
HETATM   15  H27 UNL     1      23.157   6.331  49.379  1.00  0.00     0.165 HD
ENDROOT
BRANCH   1  16
HETATM   16  C2  UNL     1      24.119   3.650  50.345  1.00  0.00     0.192 C 
HETATM   17  C3  UNL     1      25.045   2.833  49.472  1.00  0.00     0.085 C 
BRANCH  16  18
HETATM   18  O1  UNL     1      24.757   4.853  50.582  1.00  0.00    -0.356 OA
HETATM   19  C1  UNL     1      25.939   4.933  49.814  1.00  0.00     0.206 C 
ENDBRANCH  16  18
BRANCH  16  20
HETATM   20  O2  UNL     1      24.017   3.035  51.623  1.00  0.00    -0.351 OA
BRANCH  20  21
HETATM   21  C4  UNL     1      24.364   1.717  51.542  1.00  0.00     0.173 C 
BRANCH  21  22
HETATM   22  C5  UNL     1      25.250   1.407  52.759  1.00  0.00     0.056 C 
BRANCH  22  23
HETATM   23  C6  UNL     1      26.239   0.332  52.440  1.00  0.00     0.274 C 
BRANCH  23  24
HETATM   24  N1  UNL     1      27.614   0.695  52.572  1.00  0.00     0.092 N 
HETATM   25  C7  UNL     1      27.645   2.010  53.227  1.00  0.00     0.298 C 
HETATM   26  C8  UNL     1      28.963   2.248  53.901  1.00  0.00     0.198 C 
HETATM   27  O3  UNL     1      29.014   1.439  55.031  1.00  0.00    -0.388 OA
HETATM   28  C9  UNL     1      28.411   0.203  54.847  1.00  0.00     0.198 C 
HETATM   29  C10 UNL     1      28.420  -0.177  53.362  1.00  0.00     0.298 C 
ENDBRANCH  23  24
ENDBRANCH  22  23
ENDBRANCH  21  22
ENDBRANCH  20  21
ENDBRANCH  16  20
ENDBRANCH   1  16
TORSDOF 7
ENDMDL
MODEL 6
REMARK VINA RESULT:      -6.3      3.285      5.520
REMARK  7 active torsions:
REMARK  status: ('A' for Active; 'I' for Inactive)
REMARK    1  A    between atoms: O1_2  and  C2_3 
REMARK    2  A    between atoms: C2_3  and  O2_5 
REMARK    3  A    between atoms: C2_3  and  C11_15 
REMARK    4  A    between atoms: O2_5  and  C4_6 
REMARK    5  A    between atoms: C4_6  and  C5_7 
REMARK    6  A    between atoms: C5_7  and  C6_8 
REMARK    7  A    between atoms: C6_8  and  N1_9 
ROOT
HETATM    1  C11 UNL     1      21.626   2.694  50.890  1.00  0.00     0.056 C 
HETATM    2  C12 UNL     1      21.112   3.754  51.563  1.00  0.00     0.043 C 
HETATM    3  C13 UNL     1      19.909   3.269  52.307  1.00  0.00     0.207 C 
HETATM    4  N2  UNL     1      20.567   2.007  52.800  1.00  0.00    -0.283 NA
HETATM    5  C14 UNL     1      21.256   1.578  51.739  1.00  0.00     0.068 C 
HETATM    6  C15 UNL     1      21.415   0.118  51.906  1.00  0.00     0.077 C 
HETATM    7  C16 UNL     1      22.567   0.009  52.612  1.00  0.00     0.157 C 
HETATM    8  F1  UNL     1      22.723  -1.317  52.781  1.00  0.00    -0.203 F 
HETATM    9  C17 UNL     1      23.539   1.026  53.055  1.00  0.00     0.154 C 
HETATM   10  F2  UNL     1      24.443   0.241  53.751  1.00  0.00    -0.203 F 
HETATM   11  C18 UNL     1      23.950   2.278  53.112  1.00  0.00     0.047 C 
HETATM   12  C19 UNL     1      23.622   3.596  52.688  1.00  0.00     0.020 C 
HETATM   13  C20 UNL     1      23.047   4.614  52.151  1.00  0.00     0.088 C 
HETATM   14  N3  UNL     1      21.908   4.906  51.361  1.00  0.00    -0.367 N 
HETATM   15  H27 UNL     1      21.159   5.254  50.747  1.00  0.00     0.165 HD
ENDROOT
BRANCH   1  16
HETATM   16  C2  UNL     1      22.331   2.739  49.588  1.00  0.00     0.192 C 
HETATM   17  C3  UNL     1      21.954   1.576  48.696  1.00  0.00     0.085 C 
BRANCH  16  18
HETATM   18  O1  UNL     1      22.106   3.889  48.856  1.00  0.00    -0.356 OA
HETATM   19  C1  UNL     1      21.034   3.689  47.959  1.00  0.00     0.206 C 
ENDBRANCH  16  18
BRANCH  16  20
HETATM   20  O2  UNL     1      23.735   2.720  49.812  1.00  0.00    -0.351 OA
BRANCH  20  21
HETATM   21  C4  UNL     1      24.352   3.650  49.026  1.00  0.00     0.173 C 
BRANCH  21  22
HETATM   22  C5  UNL     1      25.796   3.787  49.534  1.00  0.00     0.056 C 
BRANCH  22  23
HETATM   23  C6  UNL     1      26.318   5.168  49.296  1.00  0.00     0.274 C 
BRANCH  23  24
HETATM   24  N1  UNL     1      25.330   6.185  49.127  1.00  0.00     0.092 N 
HETATM   25  C7  UNL     1      25.274   6.935  50.391  1.00  0.00     0.298 C 
HETATM   26  C8  UNL     1      24.714   8.309  50.179  1.00  0.00     0.198 C 
HETATM   27  O3  UNL     1      25.679   9.064  49.520  1.00  0.00    -0.388 OA
HETATM   28  C9  UNL     1      26.403   8.333  48.589  1.00  0.00     0.198 C 
HETATM   29  C10 UNL     1      25.580   7.138  48.095  1.00  0.00     0.298 C 
ENDBRANCH  23  24
ENDBRANCH  22  23
ENDBRANCH  21  22
ENDBRANCH  20  21
ENDBRANCH  16  20
ENDBRANCH   1  16
TORSDOF 7
ENDMDL
MODEL 7
REMARK VINA RESULT:      -6.2      1.633      1.971
REMARK  7 active torsions:
REMARK  status: ('A' for Active; 'I' for Inactive)
REMARK    1  A    between atoms: O1_2  and  C2_3 
REMARK    2  A    between atoms: C2_3  and  O2_5 
REMARK    3  A    between atoms: C2_3  and  C11_15 
REMARK    4  A    between atoms: O2_5  and  C4_6 
REMARK    5  A    between atoms: C4_6  and  C5_7 
REMARK    6  A    between atoms: C5_7  and  C6_8 
REMARK    7  A    between atoms: C6_8  and  N1_9 
ROOT
HETATM    1  C11 UNL     1      23.414   5.698  48.940  1.00  0.00     0.056 C 
HETATM    2  C12 UNL     1      22.750   6.832  48.603  1.00  0.00     0.043 C 
HETATM    3  C13 UNL     1      22.181   6.625  47.236  1.00  0.00     0.207 C 
HETATM    4  N2  UNL     1      21.683   5.231  47.517  1.00  0.00    -0.283 NA
HETATM    5  C14 UNL     1      22.678   4.679  48.218  1.00  0.00     0.068 C 
HETATM    6  C15 UNL     1      22.573   3.219  48.013  1.00  0.00     0.077 C 
HETATM    7  C16 UNL     1      21.743   2.823  49.009  1.00  0.00     0.157 C 
HETATM    8  F1  UNL     1      21.629   1.495  48.833  1.00  0.00    -0.203 F 
HETATM    9  C17 UNL     1      21.133   3.572  50.125  1.00  0.00     0.154 C 
HETATM   10  F2  UNL     1      20.379   2.578  50.728  1.00  0.00    -0.203 F 
HETATM   11  C18 UNL     1      20.960   4.690  50.803  1.00  0.00     0.047 C 
HETATM   12  C19 UNL     1      21.347   6.059  50.844  1.00  0.00     0.020 C 
HETATM   13  C20 UNL     1      21.891   7.197  50.593  1.00  0.00     0.088 C 
HETATM   14  N3  UNL     1      22.794   7.769  49.662  1.00  0.00    -0.367 N 
HETATM   15  H27 UNL     1      23.471   8.299  49.098  1.00  0.00     0.165 HD
ENDROOT
BRANCH   1  16
HETATM   16  C2  UNL     1      24.620   5.609  49.797  1.00  0.00     0.192 C 
HETATM   17  C3  UNL     1      25.715   4.786  49.154  1.00  0.00     0.085 C 
BRANCH  16  18
HETATM   18  O1  UNL     1      25.180   6.829  50.123  1.00  0.00    -0.356 OA
HETATM   19  C1  UNL     1      26.357   7.037  49.371  1.00  0.00     0.206 C 
ENDBRANCH  16  18
BRANCH  16  20
HETATM   20  O2  UNL     1      24.268   5.025  51.045  1.00  0.00    -0.351 OA
BRANCH  20  21
HETATM   21  C4  UNL     1      24.798   3.771  51.147  1.00  0.00     0.173 C 
BRANCH  21  22
HETATM   22  C5  UNL     1      23.976   3.016  52.203  1.00  0.00     0.056 C 
BRANCH  22  23
HETATM   23  C6  UNL     1      24.849   2.121  53.021  1.00  0.00     0.274 C 
BRANCH  23  24
HETATM   24  N1  UNL     1      24.939   0.766  52.578  1.00  0.00     0.092 N 
HETATM   25  C7  UNL     1      26.369   0.473  52.400  1.00  0.00     0.298 C 
HETATM   26  C8  UNL     1      26.632  -1.001  52.475  1.00  0.00     0.198 C 
HETATM   27  O3  UNL     1      26.492  -1.391  53.804  1.00  0.00    -0.388 OA
HETATM   28  C9  UNL     1      25.478  -0.715  54.468  1.00  0.00     0.198 C 
HETATM   29  C10 UNL     1      24.425  -0.222  53.469  1.00  0.00     0.298 C 
ENDBRANCH  23  24
ENDBRANCH  22  23
ENDBRANCH  21  22
ENDBRANCH  20  21
ENDBRANCH  16  20
ENDBRANCH   1  16
TORSDOF 7
ENDMDL
MODEL 8
REMARK VINA RESULT:      -5.9      3.459      7.179
REMARK  7 active torsions:
REMARK  status: ('A' for Active; 'I' for Inactive)
REMARK    1  A    between atoms: O1_2  and  C2_3 
REMARK    2  A    between atoms: C2_3  and  O2_5 
REMARK    3  A    between atoms: C2_3  and  C11_15 
REMARK    4  A    between atoms: O2_5  and  C4_6 
REMARK    5  A    between atoms: C4_6  and  C5_7 
REMARK    6  A    between atoms: C5_7  and  C6_8 
REMARK    7  A    between atoms: C6_8  and  N1_9 
ROOT
HETATM    1  C11 UNL     1      23.360   3.023  50.402  1.00  0.00     0.056 C 
HETATM    2  C12 UNL     1      23.123   2.833  51.724  1.00  0.00     0.043 C 
HETATM    3  C13 UNL     1      24.275   2.058  52.278  1.00  0.00     0.207 C 
HETATM    4  N2  UNL     1      25.326   2.869  51.566  1.00  0.00    -0.283 NA
HETATM    5  C14 UNL     1      24.808   3.050  50.347  1.00  0.00     0.068 C 
HETATM    6  C15 UNL     1      25.951   3.273  49.436  1.00  0.00     0.077 C 
HETATM    7  C16 UNL     1      26.132   4.616  49.485  1.00  0.00     0.157 C 
HETATM    8  F1  UNL     1      27.176   4.836  48.667  1.00  0.00    -0.203 F 
HETATM    9  C17 UNL     1      25.365   5.678  50.163  1.00  0.00     0.154 C 
HETATM   10  F2  UNL     1      26.113   6.796  49.830  1.00  0.00    -0.203 F 
HETATM   11  C18 UNL     1      24.350   6.068  50.910  1.00  0.00     0.047 C 
HETATM   12  C19 UNL     1      23.205   5.584  51.604  1.00  0.00     0.020 C 
HETATM   13  C20 UNL     1      22.287   4.831  52.098  1.00  0.00     0.088 C 
HETATM   14  N3  UNL     1      21.916   3.464  52.110  1.00  0.00    -0.367 N 
HETATM   15  H27 UNL     1      21.499   2.524  52.158  1.00  0.00     0.165 HD
ENDROOT
BRANCH   1  16
HETATM   16  C2  UNL     1      22.340   3.115  49.332  1.00  0.00     0.192 C 
HETATM   17  C3  UNL     1      22.743   2.344  48.094  1.00  0.00     0.085 C 
BRANCH  16  18
HETATM   18  O1  UNL     1      21.088   2.655  49.695  1.00  0.00    -0.356 OA
HETATM   19  C1  UNL     1      20.827   1.418  49.067  1.00  0.00     0.206 C 
ENDBRANCH  16  18
BRANCH  16  20
HETATM   20  O2  UNL     1      22.140   4.480  48.988  1.00  0.00    -0.351 OA
BRANCH  20  21
HETATM   21  C4  UNL     1      22.452   4.688  47.675  1.00  0.00     0.173 C 
BRANCH  21  22
HETATM   22  C5  UNL     1      22.899   6.152  47.542  1.00  0.00     0.056 C 
BRANCH  22  23
HETATM   23  C6  UNL     1      21.732   7.080  47.644  1.00  0.00     0.274 C 
BRANCH  23  24
HETATM   24  N1  UNL     1      21.860   8.137  48.595  1.00  0.00     0.092 N 
HETATM   25  C7  UNL     1      21.345   9.353  47.949  1.00  0.00     0.298 C 
HETATM   26  C8  UNL     1      20.920  10.368  48.968  1.00  0.00     0.198 C 
HETATM   27  O3  UNL     1      19.741   9.915  49.552  1.00  0.00    -0.388 OA
HETATM   28  C9  UNL     1      19.707   8.537  49.718  1.00  0.00     0.198 C 
HETATM   29  C10 UNL     1      21.131   7.978  49.811  1.00  0.00     0.298 C 
ENDBRANCH  23  24
ENDBRANCH  22  23
ENDBRANCH  21  22
ENDBRANCH  20  21
ENDBRANCH  16  20
ENDBRANCH   1  16
TORSDOF 7
ENDMDL
MODEL 9
REMARK VINA RESULT:      -5.9      7.289      9.110
REMARK  7 active torsions:
REMARK  status: ('A' for Active; 'I' for Inactive)
REMARK    1  A    between atoms: O1_2  and  C2_3 
REMARK    2  A    between atoms: C2_3  and  O2_5 
REMARK    3  A    between atoms: C2_3  and  C11_15 
REMARK    4  A    between atoms: O2_5  and  C4_6 
REMARK    5  A    between atoms: C4_6  and  C5_7 
REMARK    6  A    between atoms: C5_7  and  C6_8 
REMARK    7  A    between atoms: C6_8  and  N1_9 
ROOT
HETATM    1  C11 UNL     1      28.809   9.361  47.562  1.00  0.00     0.056 C 
HETATM    2  C12 UNL     1      28.561  10.219  48.583  1.00  0.00     0.043 C 
HETATM    3  C13 UNL     1      27.343   9.725  49.296  1.00  0.00     0.207 C 
HETATM    4  N2  UNL     1      27.776   8.282  49.298  1.00  0.00    -0.283 NA
HETATM    5  C14 UNL     1      28.290   8.108  48.077  1.00  0.00     0.068 C 
HETATM    6  C15 UNL     1      28.173   6.666  47.775  1.00  0.00     0.077 C 
HETATM    7  C16 UNL     1      29.329   6.151  48.261  1.00  0.00     0.157 C 
HETATM    8  F1  UNL     1      29.235   4.834  48.003  1.00  0.00    -0.203 F 
HETATM    9  C17 UNL     1      30.510   6.801  48.860  1.00  0.00     0.154 C 
HETATM   10  F2  UNL     1      31.291   5.698  49.165  1.00  0.00    -0.203 F 
HETATM   11  C18 UNL     1      31.161   7.885  49.237  1.00  0.00     0.047 C 
HETATM   12  C19 UNL     1      31.066   9.305  49.274  1.00  0.00     0.020 C 
HETATM   13  C20 UNL     1      30.664  10.520  49.147  1.00  0.00     0.088 C 
HETATM   14  N3  UNL     1      29.550  11.230  48.635  1.00  0.00    -0.367 N 
HETATM   15  H27 UNL     1      28.841  11.872  48.257  1.00  0.00     0.165 HD
ENDROOT
BRANCH   1  16
HETATM   16  C2  UNL     1      29.414   9.703  46.254  1.00  0.00     0.192 C 
HETATM   17  C3  UNL     1      28.681   9.054  45.101  1.00  0.00     0.085 C 
BRANCH  16  18
HETATM   18  O1  UNL     1      29.459  11.057  45.983  1.00  0.00    -0.356 OA
HETATM   19  C1  UNL     1      30.617  11.362  45.234  1.00  0.00     0.206 C 
ENDBRANCH  16  18
BRANCH  16  20
HETATM   20  O2  UNL     1      30.773   9.284  46.240  1.00  0.00    -0.351 OA
BRANCH  20  21
HETATM   21  C4  UNL     1      30.914   8.163  45.474  1.00  0.00     0.173 C 
BRANCH  21  22
HETATM   22  C5  UNL     1      32.330   7.620  45.721  1.00  0.00     0.056 C 
BRANCH  22  23
HETATM   23  C6  UNL     1      32.620   6.454  44.832  1.00  0.00     0.274 C 
BRANCH  23  24
HETATM   24  N1  UNL     1      33.526   5.483  45.357  1.00  0.00     0.092 N 
HETATM   25  C7  UNL     1      33.757   5.836  46.765  1.00  0.00     0.298 C 
HETATM   26  C8  UNL     1      34.220   4.647  47.552  1.00  0.00     0.198 C 
HETATM   27  O3  UNL     1      33.131   3.795  47.716  1.00  0.00    -0.388 OA
HETATM   28  C9  UNL     1      32.296   3.758  46.608  1.00  0.00     0.198 C 
HETATM   29  C10 UNL     1      33.074   4.130  45.342  1.00  0.00     0.298 C 
ENDBRANCH  23  24
ENDBRANCH  22  23
ENDBRANCH  21  22
ENDBRANCH  20  21
ENDBRANCH  16  20
ENDBRANCH   1  16
TORSDOF 7
ENDMDL
