MODEL 1
REMARK VINA RESULT:      -5.9      0.000      0.000
REMARK  6 active torsions:
REMARK  status: ('A' for Active; 'I' for Inactive)
REMARK    1  A    between atoms: C2_2  and  C5_5 
REMARK    2  A    between atoms: C7_8  and  C8_9 
REMARK    3  A    between atoms: C8_9  and  S1_10 
REMARK    4  A    between atoms: S1_10  and  C9_11 
REMARK    5  A    between atoms: C9_11  and  S2_12 
REMARK    6  A    between atoms: S2_12  and  C10_13 
ROOT
HETATM    1  S1  UNL     1      22.361   3.350  51.350  1.00  0.00    -0.150 SA
ENDROOT
BRANCH   1   2
HETATM    2  C8  UNL     1      23.982   4.012  51.795  1.00  0.00     0.161 C 
BRANCH   2   3
HETATM    3  C7  UNL     1      25.021   2.950  51.905  1.00  0.00     0.154 A 
HETATM    4  N1  UNL     1      25.977   2.752  50.957  1.00  0.00    -0.237 NA
HETATM    5  C6  UNL     1      26.698   1.702  51.452  1.00  0.00     0.152 A 
HETATM    6  C5  UNL     1      26.171   1.290  52.676  1.00  0.00     0.080 A 
HETATM    7  O2  UNL     1      25.157   2.093  52.883  1.00  0.00    -0.297 OA
BRANCH   6   8
HETATM    8  C2  UNL     1      26.800   0.156  53.399  1.00  0.00    -0.000 C 
HETATM    9  C1  UNL     1      28.303   0.256  53.276  1.00  0.00     0.021 C 
HETATM   10  C3  UNL     1      26.398  -1.176  52.791  1.00  0.00     0.021 C 
HETATM   11  C4  UNL     1      26.435   0.134  54.866  1.00  0.00     0.021 C 
ENDBRANCH   6   8
ENDBRANCH   2   3
ENDBRANCH   1   2
BRANCH   1  12
HETATM   12  C9  UNL     1      22.571   2.035  50.102  1.00  0.00     0.156 C 
BRANCH  12  13
HETATM   13  S2  UNL     1      21.456   0.634  50.497  1.00  0.00    -0.083 SA
BRANCH  13  14
HETATM   14  C10 UNL     1      21.611   0.334  52.267  1.00  0.00     0.158 C 
HETATM   15  N2  UNL     1      20.620   0.541  53.094  1.00  0.00    -0.260 NA
HETATM   16  C11 UNL     1      20.735   0.304  54.507  1.00  0.00     0.231 C 
HETATM   17  C12 UNL     1      21.595  -0.923  54.648  1.00  0.00     0.164 C 
HETATM   18  O1  UNL     1      21.418  -2.075  55.001  1.00  0.00    -0.294 OA
HETATM   19  C13 UNL     1      23.003  -0.565  54.230  1.00  0.00     0.202 C 
HETATM   20  N3  UNL     1      22.845  -0.150  52.829  1.00  0.00    -0.362 N 
HETATM   21  H19 UNL     1      23.630  -0.188  52.167  1.00  0.00     0.162 HD
ENDBRANCH  13  14
ENDBRANCH  12  13
ENDBRANCH   1  12
TORSDOF 6
ENDMDL
MODEL 2
REMARK VINA RESULT:      -5.6      4.959      8.276
REMARK  6 active torsions:
REMARK  status: ('A' for Active; 'I' for Inactive)
REMARK    1  A    between atoms: C2_2  and  C5_5 
REMARK    2  A    between atoms: C7_8  and  C8_9 
REMARK    3  A    between atoms: C8_9  and  S1_10 
REMARK    4  A    between atoms: S1_10  and  C9_11 
REMARK    5  A    between atoms: C9_11  and  S2_12 
REMARK    6  A    between atoms: S2_12  and  C10_13 
ROOT
HETATM    1  S1  UNL     1      25.645   4.837  49.636  1.00  0.00    -0.150 SA
ENDROOT
BRANCH   1   2
HETATM    2  C8  UNL     1      24.764   3.297  49.975  1.00  0.00     0.161 C 
BRANCH   2   3
HETATM    3  C7  UNL     1      25.199   2.659  51.248  1.00  0.00     0.154 A 
HETATM    4  N1  UNL     1      24.657   2.976  52.455  1.00  0.00    -0.237 NA
HETATM    5  C6  UNL     1      25.338   2.172  53.326  1.00  0.00     0.152 A 
HETATM    6  C5  UNL     1      26.268   1.393  52.637  1.00  0.00     0.080 A 
HETATM    7  O2  UNL     1      26.125   1.745  51.384  1.00  0.00    -0.297 OA
BRANCH   6   8
HETATM    8  C2  UNL     1      27.124   0.441  53.388  1.00  0.00    -0.000 C 
HETATM    9  C1  UNL     1      26.614   0.318  54.806  1.00  0.00     0.021 C 
HETATM   10  C3  UNL     1      28.555   0.942  53.480  1.00  0.00     0.021 C 
HETATM   11  C4  UNL     1      27.146  -0.934  52.761  1.00  0.00     0.021 C 
ENDBRANCH   6   8
ENDBRANCH   2   3
ENDBRANCH   1   2
BRANCH   1  12
HETATM   12  C9  UNL     1      27.296   4.450  48.963  1.00  0.00     0.156 C 
BRANCH  12  13
HETATM   13  S2  UNL     1      28.042   5.970  48.260  1.00  0.00    -0.083 SA
BRANCH  13  14
HETATM   14  C10 UNL     1      29.827   5.803  48.447  1.00  0.00     0.158 C 
HETATM   15  N2  UNL     1      30.514   4.919  47.772  1.00  0.00    -0.260 NA
HETATM   16  C11 UNL     1      31.937   4.779  47.915  1.00  0.00     0.231 C 
HETATM   17  C12 UNL     1      32.469   6.175  48.096  1.00  0.00     0.164 C 
HETATM   18  O1  UNL     1      33.140   6.945  47.430  1.00  0.00    -0.294 OA
HETATM   19  C13 UNL     1      32.024   6.681  49.448  1.00  0.00     0.202 C 
HETATM   20  N3  UNL     1      30.557   6.650  49.354  1.00  0.00    -0.362 N 
HETATM   21  H19 UNL     1      29.968   7.248  49.948  1.00  0.00     0.162 HD
ENDBRANCH  13  14
ENDBRANCH  12  13
ENDBRANCH   1  12
TORSDOF 6
ENDMDL
MODEL 3
REMARK VINA RESULT:      -5.6      4.646      6.516
REMARK  6 active torsions:
REMARK  status: ('A' for Active; 'I' for Inactive)
REMARK    1  A    between atoms: C2_2  and  C5_5 
REMARK    2  A    between atoms: C7_8  and  C8_9 
REMARK    3  A    between atoms: C8_9  and  S1_10 
REMARK    4  A    between atoms: S1_10  and  C9_11 
REMARK    5  A    between atoms: C9_11  and  S2_12 
REMARK    6  A    between atoms: S2_12  and  C10_13 
ROOT
HETATM    1  S1  UNL     1      24.897   4.096  50.345  1.00  0.00    -0.150 SA
ENDROOT
BRANCH   1   2
HETATM    2  C8  UNL     1      26.391   3.627  49.443  1.00  0.00     0.161 C 
BRANCH   2   3
HETATM    3  C7  UNL     1      27.145   4.808  48.937  1.00  0.00     0.154 A 
HETATM    4  N1  UNL     1      26.553   6.003  48.670  1.00  0.00    -0.237 NA
HETATM    5  C6  UNL     1      27.591   6.779  48.238  1.00  0.00     0.152 A 
HETATM    6  C5  UNL     1      28.778   6.047  48.252  1.00  0.00     0.080 A 
HETATM    7  O2  UNL     1      28.428   4.863  48.686  1.00  0.00    -0.297 OA
BRANCH   6   8
HETATM    8  C2  UNL     1      30.042   6.695  47.818  1.00  0.00    -0.000 C 
HETATM    9  C1  UNL     1      29.803   7.448  46.529  1.00  0.00     0.021 C 
HETATM   10  C3  UNL     1      31.118   5.664  47.529  1.00  0.00     0.021 C 
HETATM   11  C4  UNL     1      30.579   7.660  48.850  1.00  0.00     0.021 C 
ENDBRANCH   6   8
ENDBRANCH   2   3
ENDBRANCH   1   2
BRANCH   1  12
HETATM   12  C9  UNL     1      24.246   2.638  51.227  1.00  0.00     0.156 C 
BRANCH  12  13
HETATM   13  S2  UNL     1      24.712   2.737  52.998  1.00  0.00    -0.083 SA
BRANCH  13  14
HETATM   14  C10 UNL     1      25.900   1.414  53.294  1.00  0.00     0.158 C 
HETATM   15  N2  UNL     1      26.272   0.593  52.347  1.00  0.00    -0.260 NA
HETATM   16  C11 UNL     1      27.218  -0.464  52.573  1.00  0.00     0.231 C 
HETATM   17  C12 UNL     1      28.234   0.095  53.532  1.00  0.00     0.164 C 
HETATM   18  O1  UNL     1      29.407   0.420  53.468  1.00  0.00    -0.294 OA
HETATM   19  C13 UNL     1      27.569   0.272  54.877  1.00  0.00     0.202 C 
HETATM   20  N3  UNL     1      26.484   1.222  54.595  1.00  0.00    -0.362 N 
HETATM   21  H19 UNL     1      26.080   1.811  55.336  1.00  0.00     0.162 HD
ENDBRANCH  13  14
ENDBRANCH  12  13
ENDBRANCH   1  12
TORSDOF 6
ENDMDL
MODEL 4
REMARK VINA RESULT:      -5.5      4.173      6.810
REMARK  6 active torsions:
REMARK  status: ('A' for Active; 'I' for Inactive)
REMARK    1  A    between atoms: C2_2  and  C5_5 
REMARK    2  A    between atoms: C7_8  and  C8_9 
REMARK    3  A    between atoms: C8_9  and  S1_10 
REMARK    4  A    between atoms: S1_10  and  C9_11 
REMARK    5  A    between atoms: C9_11  and  S2_12 
REMARK    6  A    between atoms: S2_12  and  C10_13 
ROOT
HETATM    1  S1  UNL     1      24.860   3.095  50.571  1.00  0.00    -0.150 SA
ENDROOT
BRANCH   1   2
HETATM    2  C8  UNL     1      26.573   3.204  50.009  1.00  0.00     0.161 C 
BRANCH   2   3
HETATM    3  C7  UNL     1      26.863   4.486  49.309  1.00  0.00     0.154 A 
HETATM    4  N1  UNL     1      28.038   4.728  48.667  1.00  0.00    -0.237 NA
HETATM    5  C6  UNL     1      27.877   5.995  48.181  1.00  0.00     0.152 A 
HETATM    6  C5  UNL     1      26.622   6.490  48.534  1.00  0.00     0.080 A 
HETATM    7  O2  UNL     1      26.067   5.520  49.216  1.00  0.00    -0.297 OA
BRANCH   6   8
HETATM    8  C2  UNL     1      26.229   7.858  48.110  1.00  0.00    -0.000 C 
HETATM    9  C1  UNL     1      25.138   7.766  47.069  1.00  0.00     0.021 C 
HETATM   10  C3  UNL     1      27.392   8.588  47.463  1.00  0.00     0.021 C 
HETATM   11  C4  UNL     1      25.729   8.698  49.263  1.00  0.00     0.021 C 
ENDBRANCH   6   8
ENDBRANCH   2   3
ENDBRANCH   1   2
BRANCH   1  12
HETATM   12  C9  UNL     1      24.683   1.660  51.684  1.00  0.00     0.156 C 
BRANCH  12  13
HETATM   13  S2  UNL     1      24.831   2.215  53.426  1.00  0.00    -0.083 SA
BRANCH  13  14
HETATM   14  C10 UNL     1      26.487   1.761  53.973  1.00  0.00     0.158 C 
HETATM   15  N2  UNL     1      26.719   0.659  54.636  1.00  0.00    -0.260 NA
HETATM   16  C11 UNL     1      28.036   0.289  55.076  1.00  0.00     0.231 C 
HETATM   17  C12 UNL     1      28.971   0.725  53.980  1.00  0.00     0.164 C 
HETATM   18  O1  UNL     1      29.661   0.161  53.149  1.00  0.00    -0.294 OA
HETATM   19  C13 UNL     1      29.011   2.235  53.964  1.00  0.00     0.202 C 
HETATM   20  N3  UNL     1      27.616   2.608  53.690  1.00  0.00    -0.362 N 
HETATM   21  H19 UNL     1      27.376   3.516  53.272  1.00  0.00     0.162 HD
ENDBRANCH  13  14
ENDBRANCH  12  13
ENDBRANCH   1  12
TORSDOF 6
ENDMDL
MODEL 5
REMARK VINA RESULT:      -5.5      4.153      7.207
REMARK  6 active torsions:
REMARK  status: ('A' for Active; 'I' for Inactive)
REMARK    1  A    between atoms: C2_2  and  C5_5 
REMARK    2  A    between atoms: C7_8  and  C8_9 
REMARK    3  A    between atoms: C8_9  and  S1_10 
REMARK    4  A    between atoms: S1_10  and  C9_11 
REMARK    5  A    between atoms: C9_11  and  S2_12 
REMARK    6  A    between atoms: S2_12  and  C10_13 
ROOT
HETATM    1  S1  UNL     1      23.753   4.142  50.186  1.00  0.00    -0.150 SA
ENDROOT
BRANCH   1   2
HETATM    2  C8  UNL     1      25.389   3.478  49.806  1.00  0.00     0.161 C 
BRANCH   2   3
HETATM    3  C7  UNL     1      25.909   2.591  50.883  1.00  0.00     0.154 A 
HETATM    4  N1  UNL     1      27.154   2.726  51.414  1.00  0.00    -0.237 NA
HETATM    5  C6  UNL     1      27.209   1.729  52.346  1.00  0.00     0.152 A 
HETATM    6  C5  UNL     1      26.010   1.018  52.362  1.00  0.00     0.080 A 
HETATM    7  O2  UNL     1      25.273   1.598  51.449  1.00  0.00    -0.297 OA
BRANCH   6   8
HETATM    8  C2  UNL     1      25.845  -0.118  53.304  1.00  0.00    -0.000 C 
HETATM    9  C1  UNL     1      26.553  -1.334  52.752  1.00  0.00     0.021 C 
HETATM   10  C3  UNL     1      24.383  -0.496  53.461  1.00  0.00     0.021 C 
HETATM   11  C4  UNL     1      26.403   0.185  54.676  1.00  0.00     0.021 C 
ENDBRANCH   6   8
ENDBRANCH   2   3
ENDBRANCH   1   2
BRANCH   1  12
HETATM   12  C9  UNL     1      23.668   5.881  49.641  1.00  0.00     0.156 C 
BRANCH  12  13
HETATM   13  S2  UNL     1      24.546   6.944  50.851  1.00  0.00    -0.083 SA
BRANCH  13  14
HETATM   14  C10 UNL     1      26.072   7.480  50.055  1.00  0.00     0.158 C 
HETATM   15  N2  UNL     1      26.539   6.890  48.986  1.00  0.00    -0.260 NA
HETATM   16  C11 UNL     1      27.754   7.311  48.345  1.00  0.00     0.231 C 
HETATM   17  C12 UNL     1      27.776   8.812  48.454  1.00  0.00     0.164 C 
HETATM   18  O1  UNL     1      27.663   9.744  47.677  1.00  0.00    -0.294 OA
HETATM   19  C13 UNL     1      27.992   9.179  49.904  1.00  0.00     0.202 C 
HETATM   20  N3  UNL     1      26.829   8.586  50.579  1.00  0.00    -0.362 N 
HETATM   21  H19 UNL     1      26.493   8.945  51.482  1.00  0.00     0.162 HD
ENDBRANCH  13  14
ENDBRANCH  12  13
ENDBRANCH   1  12
TORSDOF 6
ENDMDL
MODEL 6
REMARK VINA RESULT:      -5.3      2.489      2.892
REMARK  6 active torsions:
REMARK  status: ('A' for Active; 'I' for Inactive)
REMARK    1  A    between atoms: C2_2  and  C5_5 
REMARK    2  A    between atoms: C7_8  and  C8_9 
REMARK    3  A    between atoms: C8_9  and  S1_10 
REMARK    4  A    between atoms: S1_10  and  C9_11 
REMARK    5  A    between atoms: C9_11  and  S2_12 
REMARK    6  A    between atoms: S2_12  and  C10_13 
ROOT
HETATM    1  S1  UNL     1      25.198   4.933  50.052  1.00  0.00    -0.150 SA
ENDROOT
BRANCH   1   2
HETATM    2  C8  UNL     1      26.415   3.602  49.952  1.00  0.00     0.161 C 
BRANCH   2   3
HETATM    3  C7  UNL     1      26.351   2.682  51.121  1.00  0.00     0.154 A 
HETATM    4  N1  UNL     1      25.219   2.494  51.852  1.00  0.00    -0.237 NA
HETATM    5  C6  UNL     1      25.605   1.592  52.803  1.00  0.00     0.152 A 
HETATM    6  C5  UNL     1      26.948   1.255  52.631  1.00  0.00     0.080 A 
HETATM    7  O2  UNL     1      27.331   1.955  51.593  1.00  0.00    -0.297 OA
BRANCH   6   8
HETATM    8  C2  UNL     1      27.582   0.285  53.558  1.00  0.00    -0.000 C 
HETATM    9  C1  UNL     1      27.498  -1.104  52.967  1.00  0.00     0.021 C 
HETATM   10  C3  UNL     1      26.854   0.238  54.890  1.00  0.00     0.021 C 
HETATM   11  C4  UNL     1      29.034   0.609  53.827  1.00  0.00     0.021 C 
ENDBRANCH   6   8
ENDBRANCH   2   3
ENDBRANCH   1   2
BRANCH   1  12
HETATM   12  C9  UNL     1      23.685   4.433  49.165  1.00  0.00     0.156 C 
BRANCH  12  13
HETATM   13  S2  UNL     1      22.213   4.878  50.165  1.00  0.00    -0.083 SA
BRANCH  13  14
HETATM   14  C10 UNL     1      21.721   3.388  51.050  1.00  0.00     0.158 C 
HETATM   15  N2  UNL     1      20.769   3.398  51.946  1.00  0.00    -0.260 NA
HETATM   16  C11 UNL     1      20.369   2.214  52.657  1.00  0.00     0.231 C 
HETATM   17  C12 UNL     1      20.463   1.088  51.662  1.00  0.00     0.164 C 
HETATM   18  O1  UNL     1      19.668   0.372  51.081  1.00  0.00    -0.294 OA
HETATM   19  C13 UNL     1      21.923   0.846  51.357  1.00  0.00     0.202 C 
HETATM   20  N3  UNL     1      22.368   2.128  50.793  1.00  0.00    -0.362 N 
HETATM   21  H19 UNL     1      23.185   2.186  50.172  1.00  0.00     0.162 HD
ENDBRANCH  13  14
ENDBRANCH  12  13
ENDBRANCH   1  12
TORSDOF 6
ENDMDL
MODEL 7
REMARK VINA RESULT:      -5.3      4.120      5.927
REMARK  6 active torsions:
REMARK  status: ('A' for Active; 'I' for Inactive)
REMARK    1  A    between atoms: C2_2  and  C5_5 
REMARK    2  A    between atoms: C7_8  and  C8_9 
REMARK    3  A    between atoms: C8_9  and  S1_10 
REMARK    4  A    between atoms: S1_10  and  C9_11 
REMARK    5  A    between atoms: C9_11  and  S2_12 
REMARK    6  A    between atoms: S2_12  and  C10_13 
ROOT
HETATM    1  S1  UNL     1      23.712   3.294  49.646  1.00  0.00    -0.150 SA
ENDROOT
BRANCH   1   2
HETATM    2  C8  UNL     1      25.514   3.409  49.688  1.00  0.00     0.161 C 
BRANCH   2   3
HETATM    3  C7  UNL     1      26.003   4.794  49.443  1.00  0.00     0.154 A 
HETATM    4  N1  UNL     1      25.472   5.884  50.061  1.00  0.00    -0.237 NA
HETATM    5  C6  UNL     1      26.203   6.920  49.553  1.00  0.00     0.152 A 
HETATM    6  C5  UNL     1      27.151   6.443  48.647  1.00  0.00     0.080 A 
HETATM    7  O2  UNL     1      26.968   5.147  48.634  1.00  0.00    -0.297 OA
BRANCH   6   8
HETATM    8  C2  UNL     1      28.061   7.400  47.968  1.00  0.00    -0.000 C 
HETATM    9  C1  UNL     1      29.317   6.679  47.538  1.00  0.00     0.021 C 
HETATM   10  C3  UNL     1      28.494   8.510  48.909  1.00  0.00     0.021 C 
HETATM   11  C4  UNL     1      27.426   8.035  46.752  1.00  0.00     0.021 C 
ENDBRANCH   6   8
ENDBRANCH   2   3
ENDBRANCH   1   2
BRANCH   1  12
HETATM   12  C9  UNL     1      23.117   2.594  51.222  1.00  0.00     0.156 C 
BRANCH  12  13
HETATM   13  S2  UNL     1      24.136   3.242  52.603  1.00  0.00    -0.083 SA
BRANCH  13  14
HETATM   14  C10 UNL     1      25.168   1.877  53.167  1.00  0.00     0.158 C 
HETATM   15  N2  UNL     1      26.173   2.060  53.983  1.00  0.00    -0.260 NA
HETATM   16  C11 UNL     1      27.001   0.977  54.439  1.00  0.00     0.231 C 
HETATM   17  C12 UNL     1      26.075  -0.195  54.627  1.00  0.00     0.164 C 
HETATM   18  O1  UNL     1      25.643  -0.819  55.580  1.00  0.00    -0.294 OA
HETATM   19  C13 UNL     1      25.606  -0.653  53.266  1.00  0.00     0.202 C 
HETATM   20  N3  UNL     1      24.912   0.528  52.732  1.00  0.00    -0.362 N 
HETATM   21  H19 UNL     1      24.192   0.444  52.004  1.00  0.00     0.162 HD
ENDBRANCH  13  14
ENDBRANCH  12  13
ENDBRANCH   1  12
TORSDOF 6
ENDMDL
MODEL 8
REMARK VINA RESULT:      -5.3      4.583      7.733
REMARK  6 active torsions:
REMARK  status: ('A' for Active; 'I' for Inactive)
REMARK    1  A    between atoms: C2_2  and  C5_5 
REMARK    2  A    between atoms: C7_8  and  C8_9 
REMARK    3  A    between atoms: C8_9  and  S1_10 
REMARK    4  A    between atoms: S1_10  and  C9_11 
REMARK    5  A    between atoms: C9_11  and  S2_12 
REMARK    6  A    between atoms: S2_12  and  C10_13 
ROOT
HETATM    1  S1  UNL     1      25.469   5.516  50.006  1.00  0.00    -0.150 SA
ENDROOT
BRANCH   1   2
HETATM    2  C8  UNL     1      25.204   3.770  49.625  1.00  0.00     0.161 C 
BRANCH   2   3
HETATM    3  C7  UNL     1      25.759   2.867  50.671  1.00  0.00     0.154 A 
HETATM    4  N1  UNL     1      27.038   2.961  51.124  1.00  0.00    -0.237 NA
HETATM    5  C6  UNL     1      27.117   1.963  52.054  1.00  0.00     0.152 A 
HETATM    6  C5  UNL     1      25.898   1.292  52.145  1.00  0.00     0.080 A 
HETATM    7  O2  UNL     1      25.126   1.896  51.277  1.00  0.00    -0.297 OA
BRANCH   6   8
HETATM    8  C2  UNL     1      25.754   0.162  53.098  1.00  0.00    -0.000 C 
HETATM    9  C1  UNL     1      26.484  -1.046  52.558  1.00  0.00     0.021 C 
HETATM   10  C3  UNL     1      24.299  -0.241  53.258  1.00  0.00     0.021 C 
HETATM   11  C4  UNL     1      26.305   0.489  54.467  1.00  0.00     0.021 C 
ENDBRANCH   6   8
ENDBRANCH   2   3
ENDBRANCH   1   2
BRANCH   1  12
HETATM   12  C9  UNL     1      25.763   6.432  48.456  1.00  0.00     0.156 C 
BRANCH  12  13
HETATM   13  S2  UNL     1      26.873   7.854  48.787  1.00  0.00    -0.083 SA
BRANCH  13  14
HETATM   14  C10 UNL     1      28.554   7.275  48.495  1.00  0.00     0.158 C 
HETATM   15  N2  UNL     1      29.596   8.034  48.716  1.00  0.00    -0.260 NA
HETATM   16  C11 UNL     1      30.940   7.580  48.486  1.00  0.00     0.231 C 
HETATM   17  C12 UNL     1      30.958   6.131  48.892  1.00  0.00     0.164 C 
HETATM   18  O1  UNL     1      31.456   5.487  49.799  1.00  0.00    -0.294 OA
HETATM   19  C13 UNL     1      30.142   5.348  47.891  1.00  0.00     0.202 C 
HETATM   20  N3  UNL     1      28.803   5.944  48.006  1.00  0.00    -0.362 N 
HETATM   21  H19 UNL     1      27.959   5.424  47.735  1.00  0.00     0.162 HD
ENDBRANCH  13  14
ENDBRANCH  12  13
ENDBRANCH   1  12
TORSDOF 6
ENDMDL
MODEL 9
REMARK VINA RESULT:      -5.3      2.159      5.410
REMARK  6 active torsions:
REMARK  status: ('A' for Active; 'I' for Inactive)
REMARK    1  A    between atoms: C2_2  and  C5_5 
REMARK    2  A    between atoms: C7_8  and  C8_9 
REMARK    3  A    between atoms: C8_9  and  S1_10 
REMARK    4  A    between atoms: S1_10  and  C9_11 
REMARK    5  A    between atoms: C9_11  and  S2_12 
REMARK    6  A    between atoms: S2_12  and  C10_13 
ROOT
HETATM    1  S1  UNL     1      23.238   3.837  50.680  1.00  0.00    -0.150 SA
ENDROOT
BRANCH   1   2
HETATM    2  C8  UNL     1      22.845   2.262  49.888  1.00  0.00     0.161 C 
BRANCH   2   3
HETATM    3  C7  UNL     1      21.921   1.428  50.704  1.00  0.00     0.154 A 
HETATM    4  N1  UNL     1      20.692   1.043  50.266  1.00  0.00    -0.237 NA
HETATM    5  C6  UNL     1      20.201   0.310  51.310  1.00  0.00     0.152 A 
HETATM    6  C5  UNL     1      21.132   0.266  52.348  1.00  0.00     0.080 A 
HETATM    7  O2  UNL     1      22.147   0.965  51.907  1.00  0.00    -0.297 OA
BRANCH   6   8
HETATM    8  C2  UNL     1      20.808  -0.480  53.590  1.00  0.00    -0.000 C 
HETATM    9  C1  UNL     1      21.764  -1.641  53.742  1.00  0.00     0.021 C 
HETATM   10  C3  UNL     1      19.410  -1.069  53.529  1.00  0.00     0.021 C 
HETATM   11  C4  UNL     1      20.900   0.388  54.824  1.00  0.00     0.021 C 
ENDBRANCH   6   8
ENDBRANCH   2   3
ENDBRANCH   1   2
BRANCH   1  12
HETATM   12  C9  UNL     1      24.478   3.559  51.988  1.00  0.00     0.156 C 
BRANCH  12  13
HETATM   13  S2  UNL     1      25.765   2.405  51.376  1.00  0.00    -0.083 SA
BRANCH  13  14
HETATM   14  C10 UNL     1      26.574   1.714  52.831  1.00  0.00     0.158 C 
HETATM   15  N2  UNL     1      25.952   0.909  53.652  1.00  0.00    -0.260 NA
HETATM   16  C11 UNL     1      26.589   0.353  54.814  1.00  0.00     0.231 C 
HETATM   17  C12 UNL     1      28.010   0.071  54.406  1.00  0.00     0.164 C 
HETATM   18  O1  UNL     1      28.677  -0.930  54.209  1.00  0.00    -0.294 OA
HETATM   19  C13 UNL     1      28.718   1.391  54.208  1.00  0.00     0.202 C 
HETATM   20  N3  UNL     1      27.945   2.031  53.134  1.00  0.00    -0.362 N 
HETATM   21  H19 UNL     1      28.359   2.756  52.533  1.00  0.00     0.162 HD
ENDBRANCH  13  14
ENDBRANCH  12  13
ENDBRANCH   1  12
TORSDOF 6
ENDMDL
