MODEL 1
REMARK VINA RESULT:      -7.3      0.000      0.000
REMARK  4 active torsions:
REMARK  status: ('A' for Active; 'I' for Inactive)
REMARK    1  A    between atoms: O1_2  and  C2_3 
REMARK    2  A    between atoms: C8_11  and  N3_12 
REMARK    3  A    between atoms: N3_12  and  C9_13 
REMARK    4  A    between atoms: C10_14  and  O2_15 
ROOT
HETATM    1  C2  UNL     1      26.208   0.590  52.829  1.00  0.00     0.088 A 
HETATM    2  C3  UNL     1      25.175   0.008  53.413  1.00  0.00     0.047 A 
HETATM    3  C4  UNL     1      26.093  -0.190  54.541  1.00  0.00     0.054 A 
HETATM    4  C5  UNL     1      27.112   0.400  53.930  1.00  0.00    -0.000 A 
HETATM    5  C6  UNL     1      28.512   0.717  54.227  1.00  0.00     0.054 C 
HETATM    6  N1  UNL     1      25.670  -0.846  55.741  1.00  0.00    -0.350 N 
HETATM    7  C7  UNL     1      24.314  -1.273  55.731  1.00  0.00     0.204 A 
HETATM    8  N2  UNL     1      23.491  -1.111  54.754  1.00  0.00    -0.254 NA
HETATM    9  C8  UNL     1      23.783  -0.475  53.504  1.00  0.00     0.246 A 
HETATM   10  H7  UNL     1      26.297  -1.001  56.559  1.00  0.00     0.166 HD
ENDROOT
BRANCH   9  11
HETATM   11  N3  UNL     1      22.863   0.629  53.332  1.00  0.00    -0.359 N 
HETATM   12  H10 UNL     1      22.998   1.633  53.583  1.00  0.00     0.162 HD
BRANCH  11  13
HETATM   13  C9  UNL     1      21.590   0.474  52.771  1.00  0.00     0.102 A 
HETATM   14  C10 UNL     1      20.404   0.105  53.374  1.00  0.00     0.096 A 
HETATM   15  C11 UNL     1      19.229   0.001  52.661  1.00  0.00     0.058 A 
HETATM   16  C12 UNL     1      19.193   0.263  51.311  1.00  0.00     0.016 A 
HETATM   17 BR1  UNL     1      17.540   0.108  50.345  1.00  0.00    -0.051 Br
HETATM   18  C13 UNL     1      20.347   0.632  50.674  1.00  0.00     0.064 A 
HETATM   19  C14 UNL     1      21.525   0.733  51.398  1.00  0.00     0.146 A 
HETATM   20  F1  UNL     1      22.605   1.106  50.672  1.00  0.00    -0.204 F 
BRANCH  14  21
HETATM   21  O2  UNL     1      20.518  -0.144  54.741  1.00  0.00    -0.358 OA
HETATM   22  H11 UNL     1      20.426  -1.029  55.182  1.00  0.00     0.217 HD
ENDBRANCH  14  21
ENDBRANCH  11  13
ENDBRANCH   9  11
BRANCH   1  23
HETATM   23  O1  UNL     1      26.347   1.169  51.596  1.00  0.00    -0.355 OA
HETATM   24  C1  UNL     1      26.676   2.508  51.332  1.00  0.00     0.210 C 
ENDBRANCH   1  23
TORSDOF 4
ENDMDL
MODEL 2
REMARK VINA RESULT:      -7.1      2.284      2.682
REMARK  4 active torsions:
REMARK  status: ('A' for Active; 'I' for Inactive)
REMARK    1  A    between atoms: O1_2  and  C2_3 
REMARK    2  A    between atoms: C8_11  and  N3_12 
REMARK    3  A    between atoms: N3_12  and  C9_13 
REMARK    4  A    between atoms: C10_14  and  O2_15 
ROOT
HETATM    1  C2  UNL     1      25.857   0.250  52.989  1.00  0.00     0.088 A 
HETATM    2  C3  UNL     1      24.711  -0.204  53.466  1.00  0.00     0.047 A 
HETATM    3  C4  UNL     1      25.504  -0.596  54.636  1.00  0.00     0.054 A 
HETATM    4  C5  UNL     1      26.640  -0.130  54.133  1.00  0.00    -0.000 A 
HETATM    5  C6  UNL     1      28.045  -0.040  54.541  1.00  0.00     0.054 C 
HETATM    6  N1  UNL     1      24.904  -1.247  55.761  1.00  0.00    -0.350 N 
HETATM    7  C7  UNL     1      23.505  -1.468  55.634  1.00  0.00     0.204 A 
HETATM    8  N2  UNL     1      22.789  -1.134  54.618  1.00  0.00    -0.254 NA
HETATM    9  C8  UNL     1      23.261  -0.481  53.433  1.00  0.00     0.246 A 
HETATM   10  H7  UNL     1      25.440  -1.537  56.607  1.00  0.00     0.166 HD
ENDROOT
BRANCH   9  11
HETATM   11  N3  UNL     1      22.525   0.754  53.273  1.00  0.00    -0.359 N 
HETATM   12  H10 UNL     1      21.892   1.228  53.955  1.00  0.00     0.162 HD
BRANCH  11  13
HETATM   13  C9  UNL     1      22.571   1.518  52.100  1.00  0.00     0.102 A 
HETATM   14  C10 UNL     1      23.166   2.743  51.874  1.00  0.00     0.096 A 
HETATM   15  C11 UNL     1      23.115   3.358  50.642  1.00  0.00     0.058 A 
HETATM   16  C12 UNL     1      22.463   2.771  49.582  1.00  0.00     0.016 A 
HETATM   17 BR1  UNL     1      22.408   3.653  47.877  1.00  0.00    -0.051 Br
HETATM   18  C13 UNL     1      21.860   1.555  49.764  1.00  0.00     0.064 A 
HETATM   19  C14 UNL     1      21.916   0.943  51.006  1.00  0.00     0.146 A 
HETATM   20  F1  UNL     1      21.289  -0.254  51.076  1.00  0.00    -0.204 F 
BRANCH  14  21
HETATM   21  O2  UNL     1      23.806   3.276  52.992  1.00  0.00    -0.358 OA
HETATM   22  H11 UNL     1      23.789   2.896  53.910  1.00  0.00     0.217 HD
ENDBRANCH  14  21
ENDBRANCH  11  13
ENDBRANCH   9  11
BRANCH   1  23
HETATM   23  O1  UNL     1      26.170   0.868  51.808  1.00  0.00    -0.355 OA
HETATM   24  C1  UNL     1      26.813   2.106  51.656  1.00  0.00     0.210 C 
ENDBRANCH   1  23
TORSDOF 4
ENDMDL
MODEL 3
REMARK VINA RESULT:      -7.0      3.215      5.548
REMARK  4 active torsions:
REMARK  status: ('A' for Active; 'I' for Inactive)
REMARK    1  A    between atoms: O1_2  and  C2_3 
REMARK    2  A    between atoms: C8_11  and  N3_12 
REMARK    3  A    between atoms: N3_12  and  C9_13 
REMARK    4  A    between atoms: C10_14  and  O2_15 
ROOT
HETATM    1  C2  UNL     1      22.286   0.458  53.042  1.00  0.00     0.088 A 
HETATM    2  C3  UNL     1      23.558   0.819  53.038  1.00  0.00     0.047 A 
HETATM    3  C4  UNL     1      23.759  -0.365  53.882  1.00  0.00     0.054 A 
HETATM    4  C5  UNL     1      22.477  -0.703  53.868  1.00  0.00    -0.000 A 
HETATM    5  C6  UNL     1      21.633  -1.763  54.428  1.00  0.00     0.054 C 
HETATM    6  N1  UNL     1      25.057  -0.721  54.371  1.00  0.00    -0.350 N 
HETATM    7  C7  UNL     1      26.099   0.160  53.970  1.00  0.00     0.204 A 
HETATM    8  N2  UNL     1      25.946   1.203  53.231  1.00  0.00    -0.254 NA
HETATM    9  C8  UNL     1      24.709   1.670  52.678  1.00  0.00     0.246 A 
HETATM   10  H7  UNL     1      25.233  -1.555  54.972  1.00  0.00     0.166 HD
ENDROOT
BRANCH   9  11
HETATM   11  N3  UNL     1      24.851   1.729  51.239  1.00  0.00    -0.359 N 
HETATM   12  H10 UNL     1      24.909   0.941  50.558  1.00  0.00     0.162 HD
BRANCH  11  13
HETATM   13  C9  UNL     1      24.934   2.937  50.535  1.00  0.00     0.102 A 
HETATM   14  C10 UNL     1      26.016   3.775  50.356  1.00  0.00     0.096 A 
HETATM   15  C11 UNL     1      25.919   4.940  49.624  1.00  0.00     0.058 A 
HETATM   16  C12 UNL     1      24.731   5.313  49.039  1.00  0.00     0.016 A 
HETATM   17 BR1  UNL     1      24.627   6.940  48.026  1.00  0.00    -0.051 Br
HETATM   18  C13 UNL     1      23.633   4.509  49.192  1.00  0.00     0.064 A 
HETATM   19  C14 UNL     1      23.739   3.341  49.931  1.00  0.00     0.146 A 
HETATM   20  F1  UNL     1      22.596   2.621  50.018  1.00  0.00    -0.204 F 
BRANCH  14  21
HETATM   21  O2  UNL     1      27.183   3.333  50.977  1.00  0.00    -0.358 OA
HETATM   22  H11 UNL     1      27.365   2.406  51.283  1.00  0.00     0.217 HD
ENDBRANCH  14  21
ENDBRANCH  11  13
ENDBRANCH   9  11
BRANCH   1  23
HETATM   23  O1  UNL     1      21.182   1.014  52.454  1.00  0.00    -0.355 OA
HETATM   24  C1  UNL     1      20.344   0.408  51.506  1.00  0.00     0.210 C 
ENDBRANCH   1  23
TORSDOF 4
ENDMDL
MODEL 4
REMARK VINA RESULT:      -7.0      2.210      3.260
REMARK  4 active torsions:
REMARK  status: ('A' for Active; 'I' for Inactive)
REMARK    1  A    between atoms: O1_2  and  C2_3 
REMARK    2  A    between atoms: C8_11  and  N3_12 
REMARK    3  A    between atoms: N3_12  and  C9_13 
REMARK    4  A    between atoms: C10_14  and  O2_15 
ROOT
HETATM    1  C2  UNL     1      26.200   0.515  54.285  1.00  0.00     0.088 A 
HETATM    2  C3  UNL     1      25.316   1.141  53.527  1.00  0.00     0.047 A 
HETATM    3  C4  UNL     1      26.484   1.810  52.946  1.00  0.00     0.054 A 
HETATM    4  C5  UNL     1      27.349   1.167  53.719  1.00  0.00    -0.000 A 
HETATM    5  C6  UNL     1      28.801   1.129  53.917  1.00  0.00     0.054 C 
HETATM    6  N1  UNL     1      26.347   2.782  51.904  1.00  0.00    -0.350 N 
HETATM    7  C7  UNL     1      25.005   3.025  51.500  1.00  0.00     0.204 A 
HETATM    8  N2  UNL     1      23.965   2.451  51.996  1.00  0.00    -0.254 NA
HETATM    9  C8  UNL     1      23.962   1.466  53.037  1.00  0.00     0.246 A 
HETATM   10  H7  UNL     1      27.157   3.274  51.470  1.00  0.00     0.166 HD
ENDROOT
BRANCH   9  11
HETATM   11  N3  UNL     1      23.318   0.274  52.530  1.00  0.00    -0.359 N 
HETATM   12  H10 UNL     1      23.752  -0.640  52.270  1.00  0.00     0.162 HD
BRANCH  11  13
HETATM   13  C9  UNL     1      21.938   0.193  52.309  1.00  0.00     0.102 A 
HETATM   14  C10 UNL     1      21.209   0.524  51.184  1.00  0.00     0.096 A 
HETATM   15  C11 UNL     1      19.839   0.379  51.138  1.00  0.00     0.058 A 
HETATM   16  C12 UNL     1      19.140  -0.104  52.221  1.00  0.00     0.016 A 
HETATM   17 BR1  UNL     1      17.232  -0.293  52.127  1.00  0.00    -0.051 Br
HETATM   18  C13 UNL     1      19.826  -0.444  53.356  1.00  0.00     0.064 A 
HETATM   19  C14 UNL     1      21.203  -0.295  53.394  1.00  0.00     0.146 A 
HETATM   20  F1  UNL     1      21.780  -0.661  54.562  1.00  0.00    -0.204 F 
BRANCH  14  21
HETATM   21  O2  UNL     1      21.983   1.006  50.130  1.00  0.00    -0.358 OA
HETATM   22  H11 UNL     1      21.856   0.792  49.168  1.00  0.00     0.217 HD
ENDBRANCH  14  21
ENDBRANCH  11  13
ENDBRANCH   9  11
BRANCH   1  23
HETATM   23  O1  UNL     1      26.050  -0.427  55.267  1.00  0.00    -0.355 OA
HETATM   24  C1  UNL     1      24.876  -1.128  55.583  1.00  0.00     0.210 C 
ENDBRANCH   1  23
TORSDOF 4
ENDMDL
MODEL 5
REMARK VINA RESULT:      -6.8      2.669      3.796
REMARK  4 active torsions:
REMARK  status: ('A' for Active; 'I' for Inactive)
REMARK    1  A    between atoms: O1_2  and  C2_3 
REMARK    2  A    between atoms: C8_11  and  N3_12 
REMARK    3  A    between atoms: N3_12  and  C9_13 
REMARK    4  A    between atoms: C10_14  and  O2_15 
ROOT
HETATM    1  C2  UNL     1      24.162   2.874  50.322  1.00  0.00     0.088 A 
HETATM    2  C3  UNL     1      24.538   2.118  51.339  1.00  0.00     0.047 A 
HETATM    3  C4  UNL     1      25.820   2.820  51.215  1.00  0.00     0.054 A 
HETATM    4  C5  UNL     1      25.416   3.565  50.195  1.00  0.00    -0.000 A 
HETATM    5  C6  UNL     1      25.975   4.609  49.331  1.00  0.00     0.054 C 
HETATM    6  N1  UNL     1      26.919   2.528  52.086  1.00  0.00    -0.350 N 
HETATM    7  C7  UNL     1      26.650   1.522  53.055  1.00  0.00     0.204 A 
HETATM    8  N2  UNL     1      25.534   0.894  53.182  1.00  0.00    -0.254 NA
HETATM    9  C8  UNL     1      24.361   1.087  52.381  1.00  0.00     0.246 A 
HETATM   10  H7  UNL     1      27.842   3.009  52.024  1.00  0.00     0.166 HD
ENDROOT
BRANCH   9  11
HETATM   11  N3  UNL     1      23.269   1.450  53.257  1.00  0.00    -0.359 N 
HETATM   12  H10 UNL     1      23.248   2.178  54.005  1.00  0.00     0.162 HD
BRANCH  11  13
HETATM   13  C9  UNL     1      22.017   0.823  53.208  1.00  0.00     0.102 A 
HETATM   14  C10 UNL     1      20.888   1.175  52.496  1.00  0.00     0.096 A 
HETATM   15  C11 UNL     1      19.727   0.434  52.565  1.00  0.00     0.058 A 
HETATM   16  C12 UNL     1      19.650  -0.691  53.352  1.00  0.00     0.016 A 
HETATM   17 BR1  UNL     1      18.018  -1.702  53.428  1.00  0.00    -0.051 Br
HETATM   18  C13 UNL     1      20.748  -1.075  54.074  1.00  0.00     0.064 A 
HETATM   19  C14 UNL     1      21.911  -0.325  54.000  1.00  0.00     0.146 A 
HETATM   20  F1  UNL     1      22.935  -0.792  54.751  1.00  0.00    -0.204 F 
BRANCH  14  21
HETATM   21  O2  UNL     1      21.041   2.324  51.723  1.00  0.00    -0.358 OA
HETATM   22  H11 UNL     1      20.477   2.585  50.948  1.00  0.00     0.217 HD
ENDBRANCH  14  21
ENDBRANCH  11  13
ENDBRANCH   9  11
BRANCH   1  23
HETATM   23  O1  UNL     1      22.978   2.954  49.638  1.00  0.00    -0.355 OA
HETATM   24  C1  UNL     1      22.789   2.736  48.265  1.00  0.00     0.210 C 
ENDBRANCH   1  23
TORSDOF 4
ENDMDL
MODEL 6
REMARK VINA RESULT:      -6.8      3.844      6.078
REMARK  4 active torsions:
REMARK  status: ('A' for Active; 'I' for Inactive)
REMARK    1  A    between atoms: O1_2  and  C2_3 
REMARK    2  A    between atoms: C8_11  and  N3_12 
REMARK    3  A    between atoms: N3_12  and  C9_13 
REMARK    4  A    between atoms: C10_14  and  O2_15 
ROOT
HETATM    1  C2  UNL     1      24.191  -0.034  53.095  1.00  0.00     0.088 A 
HETATM    2  C3  UNL     1      23.722   0.940  52.335  1.00  0.00     0.047 A 
HETATM    3  C4  UNL     1      22.451   0.686  53.021  1.00  0.00     0.054 A 
HETATM    4  C5  UNL     1      22.948  -0.288  53.771  1.00  0.00    -0.000 A 
HETATM    5  C6  UNL     1      22.466  -1.205  54.809  1.00  0.00     0.054 C 
HETATM    6  N1  UNL     1      21.273   1.441  52.715  1.00  0.00    -0.350 N 
HETATM    7  C7  UNL     1      21.455   2.433  51.712  1.00  0.00     0.204 A 
HETATM    8  N2  UNL     1      22.560   2.673  51.097  1.00  0.00    -0.254 NA
HETATM    9  C8  UNL     1      23.805   1.995  51.306  1.00  0.00     0.246 A 
HETATM   10  H7  UNL     1      20.356   1.285  53.185  1.00  0.00     0.166 HD
ENDROOT
BRANCH   9  11
HETATM   11  N3  UNL     1      24.799   2.977  51.681  1.00  0.00    -0.359 N 
HETATM   12  H10 UNL     1      25.367   3.027  52.555  1.00  0.00     0.162 HD
BRANCH  11  13
HETATM   13  C9  UNL     1      25.142   4.059  50.861  1.00  0.00     0.102 A 
HETATM   14  C10 UNL     1      24.626   5.339  50.835  1.00  0.00     0.096 A 
HETATM   15  C11 UNL     1      25.088   6.291  49.951  1.00  0.00     0.058 A 
HETATM   16  C12 UNL     1      26.089   5.998  49.053  1.00  0.00     0.016 A 
HETATM   17 BR1  UNL     1      26.711   7.344  47.833  1.00  0.00    -0.051 Br
HETATM   18  C13 UNL     1      26.628   4.740  49.046  1.00  0.00     0.064 A 
HETATM   19  C14 UNL     1      26.158   3.789  49.937  1.00  0.00     0.146 A 
HETATM   20  F1  UNL     1      26.759   2.580  49.846  1.00  0.00    -0.204 F 
BRANCH  14  21
HETATM   21  O2  UNL     1      23.618   5.562  51.772  1.00  0.00    -0.358 OA
HETATM   22  H11 UNL     1      22.681   5.238  51.707  1.00  0.00     0.217 HD
ENDBRANCH  14  21
ENDBRANCH  11  13
ENDBRANCH   9  11
BRANCH   1  23
HETATM   23  O1  UNL     1      25.436  -0.595  53.190  1.00  0.00    -0.355 OA
HETATM   24  C1  UNL     1      26.528  -0.356  52.342  1.00  0.00     0.210 C 
ENDBRANCH   1  23
TORSDOF 4
ENDMDL
MODEL 7
REMARK VINA RESULT:      -6.8      3.434      6.908
REMARK  4 active torsions:
REMARK  status: ('A' for Active; 'I' for Inactive)
REMARK    1  A    between atoms: O1_2  and  C2_3 
REMARK    2  A    between atoms: C8_11  and  N3_12 
REMARK    3  A    between atoms: N3_12  and  C9_13 
REMARK    4  A    between atoms: C10_14  and  O2_15 
ROOT
HETATM    1  C2  UNL     1      21.400  -0.007  52.282  1.00  0.00     0.088 A 
HETATM    2  C3  UNL     1      22.152   0.901  51.683  1.00  0.00     0.047 A 
HETATM    3  C4  UNL     1      20.876   1.475  51.243  1.00  0.00     0.054 A 
HETATM    4  C5  UNL     1      20.147   0.552  51.855  1.00  0.00    -0.000 A 
HETATM    5  C6  UNL     1      18.725   0.236  52.024  1.00  0.00     0.054 C 
HETATM    6  N1  UNL     1      20.829   2.653  50.429  1.00  0.00    -0.350 N 
HETATM    7  C7  UNL     1      22.103   3.192  50.101  1.00  0.00     0.204 A 
HETATM    8  N2  UNL     1      23.234   2.705  50.476  1.00  0.00    -0.254 NA
HETATM    9  C8  UNL     1      23.423   1.538  51.287  1.00  0.00     0.246 A 
HETATM   10  H7  UNL     1      19.939   3.086  50.101  1.00  0.00     0.166 HD
ENDROOT
BRANCH   9  11
HETATM   11  N3  UNL     1      24.174   1.921  52.462  1.00  0.00    -0.359 N 
HETATM   12  H10 UNL     1      23.882   2.546  53.246  1.00  0.00     0.162 HD
BRANCH  11  13
HETATM   13  C9  UNL     1      25.476   1.469  52.710  1.00  0.00     0.102 A 
HETATM   14  C10 UNL     1      26.683   2.023  52.332  1.00  0.00     0.096 A 
HETATM   15  C11 UNL     1      27.886   1.438  52.666  1.00  0.00     0.058 A 
HETATM   16  C12 UNL     1      27.929   0.272  53.395  1.00  0.00     0.016 A 
HETATM   17 BR1  UNL     1      29.620  -0.520  53.845  1.00  0.00    -0.051 Br
HETATM   18  C13 UNL     1      26.754  -0.309  53.790  1.00  0.00     0.064 A 
HETATM   19  C14 UNL     1      25.549   0.284  53.449  1.00  0.00     0.146 A 
HETATM   20  F1  UNL     1      24.450  -0.371  53.890  1.00  0.00    -0.204 F 
BRANCH  14  21
HETATM   21  O2  UNL     1      26.560   3.201  51.598  1.00  0.00    -0.358 OA
HETATM   22  H11 UNL     1      27.310   3.740  51.231  1.00  0.00     0.217 HD
ENDBRANCH  14  21
ENDBRANCH  11  13
ENDBRANCH   9  11
BRANCH   1  23
HETATM   23  O1  UNL     1      21.725  -1.097  53.044  1.00  0.00    -0.355 OA
HETATM   24  C1  UNL     1      21.275  -1.373  54.344  1.00  0.00     0.210 C 
ENDBRANCH   1  23
TORSDOF 4
ENDMDL
MODEL 8
REMARK VINA RESULT:      -6.7      4.657      6.923
REMARK  4 active torsions:
REMARK  status: ('A' for Active; 'I' for Inactive)
REMARK    1  A    between atoms: O1_2  and  C2_3 
REMARK    2  A    between atoms: C8_11  and  N3_12 
REMARK    3  A    between atoms: N3_12  and  C9_13 
REMARK    4  A    between atoms: C10_14  and  O2_15 
ROOT
HETATM    1  C2  UNL     1      24.057   5.430  49.290  1.00  0.00     0.088 A 
HETATM    2  C3  UNL     1      25.266   4.895  49.305  1.00  0.00     0.047 A 
HETATM    3  C4  UNL     1      25.667   6.106  48.581  1.00  0.00     0.054 A 
HETATM    4  C5  UNL     1      24.444   6.619  48.581  1.00  0.00    -0.000 A 
HETATM    5  C6  UNL     1      23.780   7.831  48.091  1.00  0.00     0.054 C 
HETATM    6  N1  UNL     1      27.022   6.317  48.171  1.00  0.00    -0.350 N 
HETATM    7  C7  UNL     1      27.914   5.267  48.526  1.00  0.00     0.204 A 
HETATM    8  N2  UNL     1      27.585   4.197  49.160  1.00  0.00    -0.254 NA
HETATM    9  C8  UNL     1      26.271   3.863  49.625  1.00  0.00     0.246 A 
HETATM   10  H7  UNL     1      27.339   7.167  47.656  1.00  0.00     0.166 HD
ENDROOT
BRANCH   9  11
HETATM   11  N3  UNL     1      26.336   3.661  51.056  1.00  0.00    -0.359 N 
HETATM   12  H10 UNL     1      26.984   4.100  51.747  1.00  0.00     0.162 HD
BRANCH  11  13
HETATM   13  C9  UNL     1      25.478   2.789  51.738  1.00  0.00     0.102 A 
HETATM   14  C10 UNL     1      24.322   3.067  52.440  1.00  0.00     0.096 A 
HETATM   15  C11 UNL     1      23.591   2.073  53.057  1.00  0.00     0.058 A 
HETATM   16  C12 UNL     1      23.989   0.758  52.996  1.00  0.00     0.016 A 
HETATM   17 BR1  UNL     1      22.951  -0.603  53.866  1.00  0.00    -0.051 Br
HETATM   18  C13 UNL     1      25.130   0.440  52.309  1.00  0.00     0.064 A 
HETATM   19  C14 UNL     1      25.859   1.444  51.692  1.00  0.00     0.146 A 
HETATM   20  F1  UNL     1      26.967   1.021  51.041  1.00  0.00    -0.204 F 
BRANCH  14  21
HETATM   21  O2  UNL     1      23.982   4.418  52.459  1.00  0.00    -0.358 OA
HETATM   22  H11 UNL     1      24.510   5.157  52.056  1.00  0.00     0.217 HD
ENDBRANCH  14  21
ENDBRANCH  11  13
ENDBRANCH   9  11
BRANCH   1  23
HETATM   23  O1  UNL     1      22.861   4.986  49.786  1.00  0.00    -0.355 OA
HETATM   24  C1  UNL     1      21.763   4.530  49.040  1.00  0.00     0.210 C 
ENDBRANCH   1  23
TORSDOF 4
ENDMDL
MODEL 9
REMARK VINA RESULT:      -6.6      3.272      4.984
REMARK  4 active torsions:
REMARK  status: ('A' for Active; 'I' for Inactive)
REMARK    1  A    between atoms: O1_2  and  C2_3 
REMARK    2  A    between atoms: C8_11  and  N3_12 
REMARK    3  A    between atoms: N3_12  and  C9_13 
REMARK    4  A    between atoms: C10_14  and  O2_15 
ROOT
HETATM    1  C2  UNL     1      23.420  -0.278  53.407  1.00  0.00     0.088 A 
HETATM    2  C3  UNL     1      22.243  -0.062  52.847  1.00  0.00     0.047 A 
HETATM    3  C4  UNL     1      21.702  -0.735  54.033  1.00  0.00     0.054 A 
HETATM    4  C5  UNL     1      22.897  -0.938  54.572  1.00  0.00    -0.000 A 
HETATM    5  C6  UNL     1      23.444  -1.550  55.787  1.00  0.00     0.054 C 
HETATM    6  N1  UNL     1      20.294  -0.928  54.205  1.00  0.00    -0.350 N 
HETATM    7  C7  UNL     1      19.496  -0.416  53.145  1.00  0.00     0.204 A 
HETATM    8  N2  UNL     1      19.948   0.177  52.096  1.00  0.00    -0.254 NA
HETATM    9  C8  UNL     1      21.327   0.434  51.801  1.00  0.00     0.246 A 
HETATM   10  H7  UNL     1      19.879  -1.402  55.036  1.00  0.00     0.166 HD
ENDROOT
BRANCH   9  11
HETATM   11  N3  UNL     1      21.495   1.860  51.629  1.00  0.00    -0.359 N 
HETATM   12  H10 UNL     1      20.872   2.633  51.951  1.00  0.00     0.162 HD
BRANCH  11  13
HETATM   13  C9  UNL     1      22.592   2.419  50.960  1.00  0.00     0.102 A 
HETATM   14  C10 UNL     1      22.875   2.445  49.609  1.00  0.00     0.096 A 
HETATM   15  C11 UNL     1      24.014   3.047  49.118  1.00  0.00     0.058 A 
HETATM   16  C12 UNL     1      24.919   3.648  49.962  1.00  0.00     0.016 A 
HETATM   17 BR1  UNL     1      26.497   4.477  49.248  1.00  0.00    -0.051 Br
HETATM   18  C13 UNL     1      24.675   3.644  51.310  1.00  0.00     0.064 A 
HETATM   19  C14 UNL     1      23.528   3.037  51.795  1.00  0.00     0.146 A 
HETATM   20  F1  UNL     1      23.385   3.091  53.140  1.00  0.00    -0.204 F 
BRANCH  14  21
HETATM   21  O2  UNL     1      21.915   1.818  48.818  1.00  0.00    -0.358 OA
HETATM   22  H11 UNL     1      21.561   2.156  47.953  1.00  0.00     0.217 HD
ENDBRANCH  14  21
ENDBRANCH  11  13
ENDBRANCH   9  11
BRANCH   1  23
HETATM   23  O1  UNL     1      24.691   0.029  53.000  1.00  0.00    -0.355 OA
HETATM   24  C1  UNL     1      25.749   0.461  53.815  1.00  0.00     0.210 C 
ENDBRANCH   1  23
TORSDOF 4
ENDMDL
