MODEL 1
REMARK VINA RESULT:      -9.4      0.000      0.000
REMARK  5 active torsions:
REMARK  status: ('A' for Active; 'I' for Inactive)
REMARK    1  A    between atoms: C7_10  and  N3_11 
REMARK    2  A    between atoms: N3_11  and  C8_12 
REMARK    3  A    between atoms: C17_23  and  C18_24 
REMARK    4  A    between atoms: C18_24  and  C19_25 
REMARK    5  A    between atoms: C19_25  and  N5_26 
ROOT
HETATM    1  O1  UNL     1      26.473   4.419  49.575  1.00  0.00    -0.258 OA
HETATM    2  C1  UNL     1      25.742   3.750  50.203  1.00  0.00     0.304 C 
HETATM    3  C2  UNL     1      26.422   2.491  50.826  1.00  0.00     0.081 C 
HETATM    4  C3  UNL     1      26.111   1.323  51.580  1.00  0.00    -0.002 C 
HETATM    5  C4  UNL     1      24.653   1.606  51.718  1.00  0.00     0.080 A 
HETATM    6  C5  UNL     1      23.533   1.245  52.396  1.00  0.00     0.136 A 
HETATM    7  N1  UNL     1      22.378   0.860  53.106  1.00  0.00    -0.262 NA
HETATM    8  C6  UNL     1      22.792  -0.143  53.967  1.00  0.00     0.225 A 
HETATM    9  N2  UNL     1      24.132  -0.354  53.769  1.00  0.00    -0.247 NA
HETATM   10  C7  UNL     1      24.656   0.487  52.798  1.00  0.00     0.174 A 
HETATM   11  C14 UNL     1      22.834   1.732  51.072  1.00  0.00     0.009 C 
HETATM   12  C15 UNL     1      22.590   3.046  50.887  1.00  0.00    -0.006 C 
HETATM   13  C16 UNL     1      22.503   4.464  51.086  1.00  0.00     0.177 C 
HETATM   14  N4  UNL     1      23.562   4.860  50.082  1.00  0.00    -0.281 N 
HETATM   15  C17 UNL     1      23.695   6.095  49.741  1.00  0.00     0.152 C 
HETATM   16  O3  UNL     1      24.488   3.935  50.432  1.00  0.00    -0.198 OA
ENDROOT
BRANCH  10  17
HETATM   17  N3  UNL     1      25.701  -0.752  52.722  1.00  0.00    -0.359 N 
HETATM   18  H4  UNL     1      25.675  -1.786  52.388  1.00  0.00     0.162 HD
BRANCH  17  19
HETATM   19  C8  UNL     1      27.088  -0.831  53.182  1.00  0.00     0.030 A 
HETATM   20  C9  UNL     1      27.819  -1.931  52.799  1.00  0.00     0.032 A 
HETATM   21  C10 UNL     1      29.178  -2.291  53.123  1.00  0.00     0.044 A 
HETATM   22  C11 UNL     1      29.746  -1.334  53.926  1.00  0.00     0.116 A 
HETATM   23  F1  UNL     1      31.046  -1.586  54.253  1.00  0.00    -0.206 F 
HETATM   24  C12 UNL     1      29.145  -0.234  54.359  1.00  0.00     0.044 A 
HETATM   25  C13 UNL     1      27.897  -0.022  54.000  1.00  0.00     0.032 A 
ENDBRANCH  17  19
ENDBRANCH  10  17
BRANCH  15  26
HETATM   26  C18 UNL     1      24.165   7.130  50.688  1.00  0.00     0.052 C 
BRANCH  26  27
HETATM   27  C19 UNL     1      24.461   8.390  49.850  1.00  0.00     0.274 C 
BRANCH  27  28
HETATM   28  N5  UNL     1      25.519   8.226  48.920  1.00  0.00     0.092 N 
HETATM   29  C20 UNL     1      26.841   7.914  49.485  1.00  0.00     0.298 C 
HETATM   30  C21 UNL     1      27.418   9.250  49.970  1.00  0.00     0.198 C 
HETATM   31  O2  UNL     1      26.535  10.305  49.839  1.00  0.00    -0.388 OA
HETATM   32  C22 UNL     1      26.058  10.521  48.542  1.00  0.00     0.198 C 
HETATM   33  C23 UNL     1      25.678   9.188  47.896  1.00  0.00     0.298 C 
ENDBRANCH  27  28
ENDBRANCH  26  27
ENDBRANCH  15  26
TORSDOF 5
ENDMDL
MODEL 2
REMARK VINA RESULT:      -9.3      4.466      7.218
REMARK  5 active torsions:
REMARK  status: ('A' for Active; 'I' for Inactive)
REMARK    1  A    between atoms: C7_10  and  N3_11 
REMARK    2  A    between atoms: N3_11  and  C8_12 
REMARK    3  A    between atoms: C17_23  and  C18_24 
REMARK    4  A    between atoms: C18_24  and  C19_25 
REMARK    5  A    between atoms: C19_25  and  N5_26 
ROOT
HETATM    1  O1  UNL     1      30.023   5.264  47.738  1.00  0.00    -0.258 OA
HETATM    2  C1  UNL     1      29.071   5.765  48.205  1.00  0.00     0.304 C 
HETATM    3  C2  UNL     1      27.935   4.754  48.550  1.00  0.00     0.081 C 
HETATM    4  C3  UNL     1      26.596   4.714  49.036  1.00  0.00    -0.002 C 
HETATM    5  C4  UNL     1      26.451   6.188  49.220  1.00  0.00     0.080 A 
HETATM    6  C5  UNL     1      25.675   7.142  49.797  1.00  0.00     0.136 A 
HETATM    7  N1  UNL     1      24.862   8.122  50.400  1.00  0.00    -0.262 NA
HETATM    8  C6  UNL     1      23.848   7.422  51.031  1.00  0.00     0.225 A 
HETATM    9  N2  UNL     1      24.042   6.083  50.804  1.00  0.00    -0.247 NA
HETATM   10  C7  UNL     1      25.173   5.843  50.037  1.00  0.00     0.174 A 
HETATM   11  C14 UNL     1      26.225   8.006  48.602  1.00  0.00     0.009 C 
HETATM   12  C15 UNL     1      27.437   8.591  48.699  1.00  0.00    -0.006 C 
HETATM   13  C16 UNL     1      28.710   9.032  49.194  1.00  0.00     0.177 C 
HETATM   14  N4  UNL     1      29.568   8.161  48.306  1.00  0.00    -0.281 N 
HETATM   15  C17 UNL     1      30.838   8.369  48.236  1.00  0.00     0.152 C 
HETATM   16  O3  UNL     1      28.868   7.011  48.458  1.00  0.00    -0.198 OA
ENDROOT
BRANCH  10  17
HETATM   17  N3  UNL     1      24.296   4.518  49.707  1.00  0.00    -0.359 N 
HETATM   18  H4  UNL     1      23.664   4.174  48.894  1.00  0.00     0.162 HD
BRANCH  17  19
HETATM   19  C8  UNL     1      24.055   3.332  50.529  1.00  0.00     0.030 A 
HETATM   20  C9  UNL     1      22.932   2.587  50.250  1.00  0.00     0.032 A 
HETATM   21  C10 UNL     1      22.427   1.404  50.903  1.00  0.00     0.044 A 
HETATM   22  C11 UNL     1      23.255   1.038  51.934  1.00  0.00     0.116 A 
HETATM   23  F1  UNL     1      22.862  -0.094  52.585  1.00  0.00    -0.206 F 
HETATM   24  C12 UNL     1      24.362   1.673  52.297  1.00  0.00     0.044 A 
HETATM   25  C13 UNL     1      24.714   2.748  51.626  1.00  0.00     0.032 A 
ENDBRANCH  17  19
ENDBRANCH  10  17
BRANCH  15  26
HETATM   26  C18 UNL     1      31.741   8.136  49.386  1.00  0.00     0.052 C 
BRANCH  26  27
HETATM   27  C19 UNL     1      32.685   6.988  48.977  1.00  0.00     0.274 C 
BRANCH  27  28
HETATM   28  N5  UNL     1      33.592   7.330  47.941  1.00  0.00     0.092 N 
HETATM   29  C20 UNL     1      33.595   6.451  46.762  1.00  0.00     0.298 C 
HETATM   30  C21 UNL     1      34.436   5.228  47.151  1.00  0.00     0.198 C 
HETATM   31  O2  UNL     1      34.848   5.247  48.470  1.00  0.00    -0.388 OA
HETATM   32  C22 UNL     1      35.585   6.375  48.844  1.00  0.00     0.198 C 
HETATM   33  C23 UNL     1      34.928   7.638  48.283  1.00  0.00     0.298 C 
ENDBRANCH  27  28
ENDBRANCH  26  27
ENDBRANCH  15  26
TORSDOF 5
ENDMDL
MODEL 3
REMARK VINA RESULT:      -9.2      3.547      5.696
REMARK  5 active torsions:
REMARK  status: ('A' for Active; 'I' for Inactive)
REMARK    1  A    between atoms: C7_10  and  N3_11 
REMARK    2  A    between atoms: N3_11  and  C8_12 
REMARK    3  A    between atoms: C17_23  and  C18_24 
REMARK    4  A    between atoms: C18_24  and  C19_25 
REMARK    5  A    between atoms: C19_25  and  N5_26 
ROOT
HETATM    1  O1  UNL     1      29.018   4.885  48.201  1.00  0.00    -0.258 OA
HETATM    2  C1  UNL     1      27.946   5.167  48.583  1.00  0.00     0.304 C 
HETATM    3  C2  UNL     1      27.156   3.964  49.183  1.00  0.00     0.081 C 
HETATM    4  C3  UNL     1      25.877   3.633  49.716  1.00  0.00    -0.002 C 
HETATM    5  C4  UNL     1      25.290   4.999  49.581  1.00  0.00     0.080 A 
HETATM    6  C5  UNL     1      24.248   5.780  49.965  1.00  0.00     0.136 A 
HETATM    7  N1  UNL     1      23.161   6.578  50.371  1.00  0.00    -0.262 NA
HETATM    8  C6  UNL     1      22.384   5.763  51.177  1.00  0.00     0.225 A 
HETATM    9  N2  UNL     1      22.978   4.528  51.240  1.00  0.00    -0.247 NA
HETATM   10  C7  UNL     1      24.151   4.475  50.502  1.00  0.00     0.174 A 
HETATM   11  C14 UNL     1      24.548   6.485  48.590  1.00  0.00     0.009 C 
HETATM   12  C15 UNL     1      25.525   7.412  48.512  1.00  0.00    -0.006 C 
HETATM   13  C16 UNL     1      26.592   8.310  48.850  1.00  0.00     0.177 C 
HETATM   14  N4  UNL     1      27.698   7.564  48.140  1.00  0.00    -0.281 N 
HETATM   15  C17 UNL     1      28.848   8.121  47.979  1.00  0.00     0.152 C 
HETATM   16  O3  UNL     1      27.371   6.320  48.566  1.00  0.00    -0.198 OA
ENDROOT
BRANCH  10  17
HETATM   17  N3  UNL     1      23.723   2.911  50.501  1.00  0.00    -0.359 N 
HETATM   18  H4  UNL     1      23.234   2.227  49.813  1.00  0.00     0.162 HD
BRANCH  17  19
HETATM   19  C8  UNL     1      23.846   1.911  51.563  1.00  0.00     0.030 A 
HETATM   20  C9  UNL     1      22.792   1.044  51.739  1.00  0.00     0.032 A 
HETATM   21  C10 UNL     1      22.618  -0.008  52.712  1.00  0.00     0.044 A 
HETATM   22  C11 UNL     1      23.716  -0.085  53.532  1.00  0.00     0.116 A 
HETATM   23  F1  UNL     1      23.643  -1.079  54.463  1.00  0.00    -0.206 F 
HETATM   24  C12 UNL     1      24.789   0.692  53.460  1.00  0.00     0.044 A 
HETATM   25  C13 UNL     1      24.824   1.623  52.531  1.00  0.00     0.032 A 
ENDBRANCH  17  19
ENDBRANCH  10  17
BRANCH  15  26
HETATM   26  C18 UNL     1      29.745   8.428  49.116  1.00  0.00     0.052 C 
BRANCH  26  27
HETATM   27  C19 UNL     1      30.971   7.504  48.969  1.00  0.00     0.274 C 
BRANCH  27  28
HETATM   28  N5  UNL     1      31.669   7.666  47.745  1.00  0.00     0.092 N 
HETATM   29  C20 UNL     1      31.901   6.442  46.962  1.00  0.00     0.298 C 
HETATM   30  C21 UNL     1      33.109   5.751  47.608  1.00  0.00     0.198 C 
HETATM   31  O2  UNL     1      33.554   6.388  48.751  1.00  0.00    -0.388 OA
HETATM   32  C22 UNL     1      33.904   7.732  48.583  1.00  0.00     0.198 C 
HETATM   33  C23 UNL     1      32.849   8.443  47.734  1.00  0.00     0.298 C 
ENDBRANCH  27  28
ENDBRANCH  26  27
ENDBRANCH  15  26
TORSDOF 5
ENDMDL
MODEL 4
REMARK VINA RESULT:      -9.1      3.119      4.936
REMARK  5 active torsions:
REMARK  status: ('A' for Active; 'I' for Inactive)
REMARK    1  A    between atoms: C7_10  and  N3_11 
REMARK    2  A    between atoms: N3_11  and  C8_12 
REMARK    3  A    between atoms: C17_23  and  C18_24 
REMARK    4  A    between atoms: C18_24  and  C19_25 
REMARK    5  A    between atoms: C19_25  and  N5_26 
ROOT
HETATM    1  O1  UNL     1      28.259   4.725  48.483  1.00  0.00    -0.258 OA
HETATM    2  C1  UNL     1      27.133   4.801  48.802  1.00  0.00     0.304 C 
HETATM    3  C2  UNL     1      26.584   3.512  49.487  1.00  0.00     0.081 C 
HETATM    4  C3  UNL     1      25.378   2.960  50.006  1.00  0.00    -0.002 C 
HETATM    5  C4  UNL     1      24.524   4.152  49.724  1.00  0.00     0.080 A 
HETATM    6  C5  UNL     1      23.322   4.720  49.999  1.00  0.00     0.136 A 
HETATM    7  N1  UNL     1      22.071   5.298  50.292  1.00  0.00    -0.262 NA
HETATM    8  C6  UNL     1      21.444   4.406  51.146  1.00  0.00     0.225 A 
HETATM    9  N2  UNL     1      22.280   3.338  51.343  1.00  0.00    -0.247 NA
HETATM   10  C7  UNL     1      23.475   3.476  50.652  1.00  0.00     0.174 A 
HETATM   11  C14 UNL     1      23.538   5.354  48.574  1.00  0.00     0.009 C 
HETATM   12  C15 UNL     1      24.300   6.459  48.441  1.00  0.00    -0.006 C 
HETATM   13  C16 UNL     1      25.134   7.591  48.728  1.00  0.00     0.177 C 
HETATM   14  N4  UNL     1      26.408   7.042  48.128  1.00  0.00    -0.281 N 
HETATM   15  C17 UNL     1      27.422   7.818  47.953  1.00  0.00     0.152 C 
HETATM   16  O3  UNL     1      26.329   5.798  48.658  1.00  0.00    -0.198 OA
ENDROOT
BRANCH  10  17
HETATM   17  N3  UNL     1      23.387   1.861  50.785  1.00  0.00    -0.359 N 
HETATM   18  H4  UNL     1      23.455   1.010  50.113  1.00  0.00     0.162 HD
BRANCH  17  19
HETATM   19  C8  UNL     1      23.109   1.037  51.962  1.00  0.00     0.030 A 
HETATM   20  C9  UNL     1      24.188   0.588  52.688  1.00  0.00     0.032 A 
HETATM   21  C10 UNL     1      24.223  -0.256  53.858  1.00  0.00     0.044 A 
HETATM   22  C11 UNL     1      22.949  -0.604  54.232  1.00  0.00     0.116 A 
HETATM   23  F1  UNL     1      22.894  -1.380  55.353  1.00  0.00    -0.206 F 
HETATM   24  C12 UNL     1      21.835  -0.234  53.615  1.00  0.00     0.044 A 
HETATM   25  C13 UNL     1      21.936   0.532  52.551  1.00  0.00     0.032 A 
ENDBRANCH  17  19
ENDBRANCH  10  17
BRANCH  15  26
HETATM   26  C18 UNL     1      28.173   8.405  49.085  1.00  0.00     0.052 C 
BRANCH  26  27
HETATM   27  C19 UNL     1      29.605   8.662  48.575  1.00  0.00     0.274 C 
BRANCH  27  28
HETATM   28  N5  UNL     1      30.332   7.480  48.280  1.00  0.00     0.092 N 
HETATM   29  C20 UNL     1      31.363   7.091  49.254  1.00  0.00     0.298 C 
HETATM   30  C21 UNL     1      32.584   7.967  48.948  1.00  0.00     0.198 C 
HETATM   31  O2  UNL     1      32.349   8.902  47.958  1.00  0.00    -0.388 OA
HETATM   32  C22 UNL     1      31.917   8.376  46.736  1.00  0.00     0.198 C 
HETATM   33  C23 UNL     1      30.849   7.308  46.977  1.00  0.00     0.298 C 
ENDBRANCH  27  28
ENDBRANCH  26  27
ENDBRANCH  15  26
TORSDOF 5
ENDMDL
MODEL 5
REMARK VINA RESULT:      -9.1      3.054      4.502
REMARK  5 active torsions:
REMARK  status: ('A' for Active; 'I' for Inactive)
REMARK    1  A    between atoms: C7_10  and  N3_11 
REMARK    2  A    between atoms: N3_11  and  C8_12 
REMARK    3  A    between atoms: C17_23  and  C18_24 
REMARK    4  A    between atoms: C18_24  and  C19_25 
REMARK    5  A    between atoms: C19_25  and  N5_26 
ROOT
HETATM    1  O1  UNL     1      28.270   4.823  48.549  1.00  0.00    -0.258 OA
HETATM    2  C1  UNL     1      27.143   4.852  48.869  1.00  0.00     0.304 C 
HETATM    3  C2  UNL     1      26.651   3.543  49.559  1.00  0.00     0.081 C 
HETATM    4  C3  UNL     1      25.470   2.941  50.082  1.00  0.00    -0.002 C 
HETATM    5  C4  UNL     1      24.566   4.095  49.799  1.00  0.00     0.080 A 
HETATM    6  C5  UNL     1      23.341   4.612  50.075  1.00  0.00     0.136 A 
HETATM    7  N1  UNL     1      22.068   5.137  50.370  1.00  0.00    -0.262 NA
HETATM    8  C6  UNL     1      21.480   4.221  51.227  1.00  0.00     0.225 A 
HETATM    9  N2  UNL     1      22.362   3.190  51.425  1.00  0.00    -0.247 NA
HETATM   10  C7  UNL     1      23.549   3.377  50.731  1.00  0.00     0.174 A 
HETATM   11  C14 UNL     1      23.527   5.251  48.648  1.00  0.00     0.009 C 
HETATM   12  C15 UNL     1      24.241   6.387  48.511  1.00  0.00    -0.006 C 
HETATM   13  C16 UNL     1      25.026   7.554  48.793  1.00  0.00     0.177 C 
HETATM   14  N4  UNL     1      26.322   7.059  48.192  1.00  0.00    -0.281 N 
HETATM   15  C17 UNL     1      27.301   7.877  48.013  1.00  0.00     0.152 C 
HETATM   16  O3  UNL     1      26.297   5.814  48.725  1.00  0.00    -0.198 OA
ENDROOT
BRANCH  10  17
HETATM   17  N3  UNL     1      23.530   1.760  50.868  1.00  0.00    -0.359 N 
HETATM   18  H4  UNL     1      23.727   0.911  50.219  1.00  0.00     0.162 HD
BRANCH  17  19
HETATM   19  C8  UNL     1      23.149   0.926  52.009  1.00  0.00     0.030 A 
HETATM   20  C9  UNL     1      24.163   0.437  52.800  1.00  0.00     0.032 A 
HETATM   21  C10 UNL     1      24.093  -0.425  53.956  1.00  0.00     0.044 A 
HETATM   22  C11 UNL     1      22.788  -0.744  54.235  1.00  0.00     0.116 A 
HETATM   23  F1  UNL     1      22.635  -1.534  55.336  1.00  0.00    -0.206 F 
HETATM   24  C12 UNL     1      21.730  -0.334  53.548  1.00  0.00     0.044 A 
HETATM   25  C13 UNL     1      21.925   0.444  52.506  1.00  0.00     0.032 A 
ENDBRANCH  17  19
ENDBRANCH  10  17
BRANCH  15  26
HETATM   26  C18 UNL     1      28.029   8.498  49.141  1.00  0.00     0.052 C 
BRANCH  26  27
HETATM   27  C19 UNL     1      27.755  10.013  49.059  1.00  0.00     0.274 C 
BRANCH  27  28
HETATM   28  N5  UNL     1      28.436  10.664  47.998  1.00  0.00     0.092 N 
HETATM   29  C20 UNL     1      29.795  11.142  48.294  1.00  0.00     0.298 C 
HETATM   30  C21 UNL     1      29.621  12.465  49.050  1.00  0.00     0.198 C 
HETATM   31  O2  UNL     1      28.300  12.770  49.318  1.00  0.00    -0.388 OA
HETATM   32  C22 UNL     1      27.468  12.837  48.196  1.00  0.00     0.198 C 
HETATM   33  C23 UNL     1      27.753  11.659  47.263  1.00  0.00     0.298 C 
ENDBRANCH  27  28
ENDBRANCH  26  27
ENDBRANCH  15  26
TORSDOF 5
ENDMDL
MODEL 6
REMARK VINA RESULT:      -9.0      4.707      8.244
REMARK  5 active torsions:
REMARK  status: ('A' for Active; 'I' for Inactive)
REMARK    1  A    between atoms: C7_10  and  N3_11 
REMARK    2  A    between atoms: N3_11  and  C8_12 
REMARK    3  A    between atoms: C17_23  and  C18_24 
REMARK    4  A    between atoms: C18_24  and  C19_25 
REMARK    5  A    between atoms: C19_25  and  N5_26 
ROOT
HETATM    1  O1  UNL     1      19.210  -0.843  53.529  1.00  0.00    -0.258 OA
HETATM    2  C1  UNL     1      20.118  -0.217  53.131  1.00  0.00     0.304 C 
HETATM    3  C2  UNL     1      21.500  -0.705  53.663  1.00  0.00     0.081 C 
HETATM    4  C3  UNL     1      22.884  -0.368  53.628  1.00  0.00    -0.002 C 
HETATM    5  C4  UNL     1      22.733   0.828  52.748  1.00  0.00     0.080 A 
HETATM    6  C5  UNL     1      23.424   1.708  51.978  1.00  0.00     0.136 A 
HETATM    7  N1  UNL     1      24.153   2.615  51.184  1.00  0.00    -0.262 NA
HETATM    8  C6  UNL     1      25.475   2.218  51.292  1.00  0.00     0.225 A 
HETATM    9  N2  UNL     1      25.532   1.130  52.123  1.00  0.00    -0.247 NA
HETATM   10  C7  UNL     1      24.278   0.760  52.586  1.00  0.00     0.174 A 
HETATM   11  C14 UNL     1      22.226   2.655  52.364  1.00  0.00     0.009 C 
HETATM   12  C15 UNL     1      21.070   2.588  51.673  1.00  0.00    -0.006 C 
HETATM   13  C16 UNL     1      20.065   2.223  50.716  1.00  0.00     0.177 C 
HETATM   14  N4  UNL     1      19.148   1.499  51.675  1.00  0.00    -0.281 N 
HETATM   15  C17 UNL     1      17.961   1.164  51.301  1.00  0.00     0.152 C 
HETATM   16  O3  UNL     1      20.101   0.790  52.327  1.00  0.00    -0.198 OA
ENDROOT
BRANCH  10  17
HETATM   17  N3  UNL     1      25.222   0.171  53.767  1.00  0.00    -0.359 N 
HETATM   18  H4  UNL     1      25.135   0.007  54.838  1.00  0.00     0.162 HD
BRANCH  17  19
HETATM   19  C8  UNL     1      26.608  -0.295  53.707  1.00  0.00     0.030 A 
HETATM   20  C9  UNL     1      27.539   0.397  54.448  1.00  0.00     0.032 A 
HETATM   21  C10 UNL     1      28.963   0.193  54.557  1.00  0.00     0.044 A 
HETATM   22  C11 UNL     1      29.353  -0.871  53.783  1.00  0.00     0.116 A 
HETATM   23  F1  UNL     1      30.687  -1.150  53.856  1.00  0.00    -0.206 F 
HETATM   24  C12 UNL     1      28.552  -1.612  53.030  1.00  0.00     0.044 A 
HETATM   25  C13 UNL     1      27.269  -1.319  53.007  1.00  0.00     0.032 A 
ENDBRANCH  17  19
ENDBRANCH  10  17
BRANCH  15  26
HETATM   26  C18 UNL     1      17.719   0.146  50.256  1.00  0.00     0.052 C 
BRANCH  26  27
HETATM   27  C19 UNL     1      16.357  -0.501  50.579  1.00  0.00     0.274 C 
BRANCH  27  28
HETATM   28  N5  UNL     1      16.100  -0.635  51.967  1.00  0.00     0.092 N 
HETATM   29  C20 UNL     1      16.087  -2.008  52.496  1.00  0.00     0.298 C 
HETATM   30  C21 UNL     1      14.709  -2.583  52.142  1.00  0.00     0.198 C 
HETATM   31  O2  UNL     1      13.943  -1.728  51.374  1.00  0.00    -0.388 OA
HETATM   32  C22 UNL     1      13.718  -0.467  51.935  1.00  0.00     0.198 C 
HETATM   33  C23 UNL     1      15.018   0.079  52.529  1.00  0.00     0.298 C 
ENDBRANCH  27  28
ENDBRANCH  26  27
ENDBRANCH  15  26
TORSDOF 5
ENDMDL
MODEL 7
REMARK VINA RESULT:      -9.0      2.582      4.299
REMARK  5 active torsions:
REMARK  status: ('A' for Active; 'I' for Inactive)
REMARK    1  A    between atoms: C7_10  and  N3_11 
REMARK    2  A    between atoms: N3_11  and  C8_12 
REMARK    3  A    between atoms: C17_23  and  C18_24 
REMARK    4  A    between atoms: C18_24  and  C19_25 
REMARK    5  A    between atoms: C19_25  and  N5_26 
ROOT
HETATM    1  O1  UNL     1      28.448   6.937  47.411  1.00  0.00    -0.258 OA
HETATM    2  C1  UNL     1      27.513   6.535  47.992  1.00  0.00     0.304 C 
HETATM    3  C2  UNL     1      27.736   5.141  48.655  1.00  0.00     0.081 C 
HETATM    4  C3  UNL     1      27.039   4.136  49.387  1.00  0.00    -0.002 C 
HETATM    5  C4  UNL     1      25.731   4.854  49.434  1.00  0.00     0.080 A 
HETATM    6  C5  UNL     1      24.516   4.864  50.040  1.00  0.00     0.136 A 
HETATM    7  N1  UNL     1      23.259   4.864  50.676  1.00  0.00    -0.262 NA
HETATM    8  C6  UNL     1      23.293   3.798  51.560  1.00  0.00     0.225 A 
HETATM    9  N2  UNL     1      24.514   3.185  51.447  1.00  0.00    -0.247 NA
HETATM   10  C7  UNL     1      25.327   3.807  50.511  1.00  0.00     0.174 A 
HETATM   11  C14 UNL     1      24.080   5.517  48.675  1.00  0.00     0.009 C 
HETATM   12  C15 UNL     1      24.261   6.840  48.476  1.00  0.00    -0.006 C 
HETATM   13  C16 UNL     1      24.600   8.220  48.670  1.00  0.00     0.177 C 
HETATM   14  N4  UNL     1      25.787   8.254  47.735  1.00  0.00    -0.281 N 
HETATM   15  C17 UNL     1      26.312   9.384  47.404  1.00  0.00     0.152 C 
HETATM   16  O3  UNL     1      26.364   7.098  48.142  1.00  0.00    -0.198 OA
ENDROOT
BRANCH  10  17
HETATM   17  N3  UNL     1      25.946   2.307  50.499  1.00  0.00    -0.359 N 
HETATM   18  H4  UNL     1      26.032   1.496  49.782  1.00  0.00     0.162 HD
BRANCH  17  19
HETATM   19  C8  UNL     1      26.570   1.549  51.584  1.00  0.00     0.030 A 
HETATM   20  C9  UNL     1      27.438   2.225  52.410  1.00  0.00     0.032 A 
HETATM   21  C10 UNL     1      28.214   1.739  53.525  1.00  0.00     0.044 A 
HETATM   22  C11 UNL     1      27.982   0.401  53.720  1.00  0.00     0.116 A 
HETATM   23  F1  UNL     1      28.658  -0.130  54.779  1.00  0.00    -0.206 F 
HETATM   24  C12 UNL     1      27.171  -0.356  52.992  1.00  0.00     0.044 A 
HETATM   25  C13 UNL     1      26.523   0.204  51.994  1.00  0.00     0.032 A 
ENDBRANCH  17  19
ENDBRANCH  10  17
BRANCH  15  26
HETATM   26  C18 UNL     1      27.018  10.243  48.380  1.00  0.00     0.052 C 
BRANCH  26  27
HETATM   27  C19 UNL     1      28.447  10.443  47.835  1.00  0.00     0.274 C 
BRANCH  27  28
HETATM   28  N5  UNL     1      29.414  10.708  48.839  1.00  0.00     0.092 N 
HETATM   29  C20 UNL     1      30.281  11.875  48.615  1.00  0.00     0.298 C 
HETATM   30  C21 UNL     1      31.365  11.412  47.634  1.00  0.00     0.198 C 
HETATM   31  O2  UNL     1      31.173  10.122  47.177  1.00  0.00    -0.388 OA
HETATM   32  C22 UNL     1      31.094   9.146  48.176  1.00  0.00     0.198 C 
HETATM   33  C23 UNL     1      30.204   9.639  49.318  1.00  0.00     0.298 C 
ENDBRANCH  27  28
ENDBRANCH  26  27
ENDBRANCH  15  26
TORSDOF 5
ENDMDL
MODEL 8
REMARK VINA RESULT:      -9.0      1.931      2.374
REMARK  5 active torsions:
REMARK  status: ('A' for Active; 'I' for Inactive)
REMARK    1  A    between atoms: C7_10  and  N3_11 
REMARK    2  A    between atoms: N3_11  and  C8_12 
REMARK    3  A    between atoms: C17_23  and  C18_24 
REMARK    4  A    between atoms: C18_24  and  C19_25 
REMARK    5  A    between atoms: C19_25  and  N5_26 
ROOT
HETATM    1  O1  UNL     1      24.037   3.997  49.755  1.00  0.00    -0.258 OA
HETATM    2  C1  UNL     1      23.590   3.256  50.546  1.00  0.00     0.304 C 
HETATM    3  C2  UNL     1      24.618   2.213  51.082  1.00  0.00     0.081 C 
HETATM    4  C3  UNL     1      24.701   1.077  51.938  1.00  0.00    -0.002 C 
HETATM    5  C4  UNL     1      23.266   1.082  52.347  1.00  0.00     0.080 A 
HETATM    6  C5  UNL     1      22.389   0.570  53.249  1.00  0.00     0.136 A 
HETATM    7  N1  UNL     1      21.490   0.031  54.190  1.00  0.00    -0.262 NA
HETATM    8  C6  UNL     1      22.253  -0.793  55.000  1.00  0.00     0.225 A 
HETATM    9  N2  UNL     1      23.549  -0.756  54.552  1.00  0.00    -0.247 NA
HETATM   10  C7  UNL     1      23.699   0.083  53.458  1.00  0.00     0.174 A 
HETATM   11  C14 UNL     1      21.374   0.794  52.067  1.00  0.00     0.009 C 
HETATM   12  C15 UNL     1      20.832   2.015  51.871  1.00  0.00    -0.006 C 
HETATM   13  C16 UNL     1      20.490   3.401  52.015  1.00  0.00     0.177 C 
HETATM   14  N4  UNL     1      21.242   3.905  50.804  1.00  0.00    -0.281 N 
HETATM   15  C17 UNL     1      21.050   5.108  50.385  1.00  0.00     0.152 C 
HETATM   16  O3  UNL     1      22.388   3.213  51.009  1.00  0.00    -0.198 OA
ENDROOT
BRANCH  10  17
HETATM   17  N3  UNL     1      24.947  -0.931  53.236  1.00  0.00    -0.359 N 
HETATM   18  H4  UNL     1      25.083  -1.947  52.877  1.00  0.00     0.162 HD
BRANCH  17  19
HETATM   19  C8  UNL     1      26.365  -0.745  53.547  1.00  0.00     0.030 A 
HETATM   20  C9  UNL     1      27.268  -1.532  52.871  1.00  0.00     0.032 A 
HETATM   21  C10 UNL     1      28.705  -1.593  52.990  1.00  0.00     0.044 A 
HETATM   22  C11 UNL     1      29.144  -0.697  53.931  1.00  0.00     0.116 A 
HETATM   23  F1  UNL     1      30.499  -0.671  54.082  1.00  0.00    -0.206 F 
HETATM   24  C12 UNL     1      28.372   0.113  54.645  1.00  0.00     0.044 A 
HETATM   25  C13 UNL     1      27.072   0.069  54.450  1.00  0.00     0.032 A 
ENDBRANCH  17  19
ENDBRANCH  10  17
BRANCH  15  26
HETATM   26  C18 UNL     1      21.461   6.294  51.170  1.00  0.00     0.052 C 
BRANCH  26  27
HETATM   27  C19 UNL     1      22.463   7.074  50.295  1.00  0.00     0.274 C 
BRANCH  27  28
HETATM   28  N5  UNL     1      22.097   7.146  48.927  1.00  0.00     0.092 N 
HETATM   29  C20 UNL     1      23.174   6.910  47.952  1.00  0.00     0.298 C 
HETATM   30  C21 UNL     1      23.952   8.228  47.857  1.00  0.00     0.198 C 
HETATM   31  O2  UNL     1      23.509   9.189  48.746  1.00  0.00    -0.388 OA
HETATM   32  C22 UNL     1      22.153   9.515  48.638  1.00  0.00     0.198 C 
HETATM   33  C23 UNL     1      21.319   8.242  48.489  1.00  0.00     0.298 C 
ENDBRANCH  27  28
ENDBRANCH  26  27
ENDBRANCH  15  26
TORSDOF 5
ENDMDL
MODEL 9
REMARK VINA RESULT:      -9.0      4.023      6.700
REMARK  5 active torsions:
REMARK  status: ('A' for Active; 'I' for Inactive)
REMARK    1  A    between atoms: C7_10  and  N3_11 
REMARK    2  A    between atoms: N3_11  and  C8_12 
REMARK    3  A    between atoms: C17_23  and  C18_24 
REMARK    4  A    between atoms: C18_24  and  C19_25 
REMARK    5  A    between atoms: C19_25  and  N5_26 
ROOT
HETATM    1  O1  UNL     1      20.305   3.231  52.729  1.00  0.00    -0.258 OA
HETATM    2  C1  UNL     1      21.279   3.476  52.124  1.00  0.00     0.304 C 
HETATM    3  C2  UNL     1      22.565   2.814  52.708  1.00  0.00     0.081 C 
HETATM    4  C3  UNL     1      23.975   2.768  52.510  1.00  0.00    -0.002 C 
HETATM    5  C4  UNL     1      24.000   3.682  51.331  1.00  0.00     0.080 A 
HETATM    6  C5  UNL     1      24.779   4.119  50.308  1.00  0.00     0.136 A 
HETATM    7  N1  UNL     1      25.598   4.564  49.251  1.00  0.00    -0.262 NA
HETATM    8  C6  UNL     1      26.798   3.889  49.405  1.00  0.00     0.225 A 
HETATM    9  N2  UNL     1      26.701   3.086  50.512  1.00  0.00    -0.247 NA
HETATM   10  C7  UNL     1      25.459   3.184  51.122  1.00  0.00     0.174 A 
HETATM   11  C14 UNL     1      23.885   5.406  50.461  1.00  0.00     0.009 C 
HETATM   12  C15 UNL     1      22.671   5.452  49.874  1.00  0.00    -0.006 C 
HETATM   13  C16 UNL     1      21.503   5.110  49.113  1.00  0.00     0.177 C 
HETATM   14  N4  UNL     1      20.564   4.926  50.283  1.00  0.00    -0.281 N 
HETATM   15  C17 UNL     1      19.297   4.816  50.079  1.00  0.00     0.152 C 
HETATM   16  O3  UNL     1      21.399   4.200  51.065  1.00  0.00    -0.198 OA
ENDROOT
BRANCH  10  17
HETATM   17  N3  UNL     1      26.374   2.714  52.376  1.00  0.00    -0.359 N 
HETATM   18  H4  UNL     1      26.800   3.180  53.260  1.00  0.00     0.162 HD
BRANCH  17  19
HETATM   19  C8  UNL     1      26.981   1.410  52.650  1.00  0.00     0.030 A 
HETATM   20  C9  UNL     1      28.230   1.404  53.226  1.00  0.00     0.032 A 
HETATM   21  C10 UNL     1      29.076   0.288  53.576  1.00  0.00     0.044 A 
HETATM   22  C11 UNL     1      28.459  -0.896  53.258  1.00  0.00     0.116 A 
HETATM   23  F1  UNL     1      29.184  -2.004  53.588  1.00  0.00    -0.206 F 
HETATM   24  C12 UNL     1      27.261  -1.017  52.703  1.00  0.00     0.044 A 
HETATM   25  C13 UNL     1      26.589   0.079  52.423  1.00  0.00     0.032 A 
ENDBRANCH  17  19
ENDBRANCH  10  17
BRANCH  15  26
HETATM   26  C18 UNL     1      18.707   3.650  49.385  1.00  0.00     0.052 C 
BRANCH  26  27
HETATM   27  C19 UNL     1      17.581   3.121  50.296  1.00  0.00     0.274 C 
BRANCH  27  28
HETATM   28  N5  UNL     1      16.625   4.104  50.659  1.00  0.00     0.092 N 
HETATM   29  C20 UNL     1      16.246   4.149  52.079  1.00  0.00     0.298 C 
HETATM   30  C21 UNL     1      15.225   3.022  52.279  1.00  0.00     0.198 C 
HETATM   31  O2  UNL     1      15.034   2.253  51.147  1.00  0.00    -0.388 OA
HETATM   32  C22 UNL     1      14.632   2.961  50.010  1.00  0.00     0.198 C 
HETATM   33  C23 UNL     1      15.459   4.240  49.872  1.00  0.00     0.298 C 
ENDBRANCH  27  28
ENDBRANCH  26  27
ENDBRANCH  15  26
TORSDOF 5
ENDMDL
