MODEL 1
REMARK VINA RESULT:      -7.7      0.000      0.000
REMARK  4 active torsions:
REMARK  status: ('A' for Active; 'I' for Inactive)
REMARK    1  A    between atoms: C10_12  and  N3_13 
REMARK    2  A    between atoms: N3_13  and  C11_14 
REMARK    3  A    between atoms: C12_15  and  C13_16 
REMARK    4  A    between atoms: C16_19  and  C17_20 
ROOT
HETATM    1  C1  UNL     1      24.682  -0.132  53.342  1.00  0.00     0.039 C 
HETATM    2  C2  UNL     1      23.877   0.878  52.979  1.00  0.00     0.013 C 
HETATM    3  N1  UNL     1      24.357   2.207  53.274  1.00  0.00    -0.389 N 
HETATM    4  C3  UNL     1      24.146   3.545  52.629  1.00  0.00     0.162 C 
HETATM    5  C4  UNL     1      22.851   3.458  51.856  1.00  0.00     0.006 C 
HETATM    6  C5  UNL     1      21.637   2.902  52.196  1.00  0.00     0.021 C 
HETATM    7  C6  UNL     1      21.960   1.560  51.585  1.00  0.00    -0.039 C 
HETATM    8  C7  UNL     1      21.855   0.949  50.371  1.00  0.00     0.009 C 
HETATM    9  C8  UNL     1      22.042   1.649  49.063  1.00  0.00     0.020 C 
HETATM   10  C9  UNL     1      22.540   2.841  48.650  1.00  0.00     0.119 C 
HETATM   11  N2  UNL     1      23.128   3.970  49.358  1.00  0.00    -0.243 NA
HETATM   12  C10 UNL     1      23.432   4.130  50.636  1.00  0.00     0.135 C 
HETATM   13  C16 UNL     1      22.642   0.439  52.321  1.00  0.00     0.175 C 
HETATM   14  H3  UNL     1      24.980   2.137  54.136  1.00  0.00     0.159 HD
ENDROOT
BRANCH  12  15
HETATM   15  N3  UNL     1      24.471   5.052  50.934  1.00  0.00    -0.350 N 
HETATM   16  H10 UNL     1      24.285   5.484  51.888  1.00  0.00     0.166 HD
BRANCH  15  17
HETATM   17  C11 UNL     1      25.510   5.266  50.048  1.00  0.00     0.090 C 
HETATM   18  C12 UNL     1      26.465   4.478  49.613  1.00  0.00     0.017 C 
BRANCH  18  19
HETATM   19  C13 UNL     1      27.481   4.904  48.660  1.00  0.00    -0.003 C 
HETATM   20  C14 UNL     1      27.745   6.191  48.509  1.00  0.00    -0.031 C 
HETATM   21  C15 UNL     1      28.783   6.605  47.532  1.00  0.00     0.036 C 
ENDBRANCH  18  19
ENDBRANCH  15  17
ENDBRANCH  12  15
BRANCH  13  22
HETATM   22  C17 UNL     1      21.696  -0.345  53.186  1.00  0.00     0.400 C 
HETATM   23  F1  UNL     1      22.081  -1.688  53.283  1.00  0.00    -0.170 F 
HETATM   24  F2  UNL     1      21.762   0.216  54.469  1.00  0.00    -0.170 F 
HETATM   25  F3  UNL     1      20.417  -0.324  52.806  1.00  0.00    -0.170 F 
ENDBRANCH  13  22
TORSDOF 4
ENDMDL
MODEL 2
REMARK VINA RESULT:      -7.4      4.352      8.723
REMARK  4 active torsions:
REMARK  status: ('A' for Active; 'I' for Inactive)
REMARK    1  A    between atoms: C10_12  and  N3_13 
REMARK    2  A    between atoms: N3_13  and  C11_14 
REMARK    3  A    between atoms: C12_15  and  C13_16 
REMARK    4  A    between atoms: C16_19  and  C17_20 
ROOT
HETATM    1  C1  UNL     1      21.539   0.978  48.950  1.00  0.00     0.039 C 
HETATM    2  C2  UNL     1      21.177   1.102  50.235  1.00  0.00     0.013 C 
HETATM    3  N1  UNL     1      19.779   0.884  50.522  1.00  0.00    -0.389 N 
HETATM    4  C3  UNL     1      19.042   0.381  51.729  1.00  0.00     0.162 C 
HETATM    5  C4  UNL     1      19.941   0.618  52.920  1.00  0.00     0.006 C 
HETATM    6  C5  UNL     1      20.714   1.707  53.260  1.00  0.00     0.021 C 
HETATM    7  C6  UNL     1      21.950   1.176  52.576  1.00  0.00    -0.039 C 
HETATM    8  C7  UNL     1      23.011   0.376  52.881  1.00  0.00     0.009 C 
HETATM    9  C8  UNL     1      22.928  -0.820  53.776  1.00  0.00     0.020 C 
HETATM   10  C9  UNL     1      21.940  -1.577  54.312  1.00  0.00     0.119 C 
HETATM   11  N2  UNL     1      20.488  -1.526  54.216  1.00  0.00    -0.243 NA
HETATM   12  C10 UNL     1      19.692  -0.756  53.492  1.00  0.00     0.135 C 
HETATM   13  C16 UNL     1      22.291   1.426  51.133  1.00  0.00     0.175 C 
HETATM   14  H3  UNL     1      19.228   1.158  49.652  1.00  0.00     0.159 HD
ENDROOT
BRANCH  12  15
HETATM   15  N3  UNL     1      18.412  -1.284  53.172  1.00  0.00    -0.350 N 
HETATM   16  H10 UNL     1      17.903  -0.594  52.542  1.00  0.00     0.166 HD
BRANCH  15  17
HETATM   17  C11 UNL     1      18.005  -2.512  53.657  1.00  0.00     0.090 C 
HETATM   18  C12 UNL     1      16.991  -3.285  53.344  1.00  0.00     0.017 C 
BRANCH  18  19
HETATM   19  C13 UNL     1      16.736  -4.567  53.986  1.00  0.00    -0.003 C 
HETATM   20  C14 UNL     1      15.512  -5.067  53.996  1.00  0.00    -0.031 C 
HETATM   21  C15 UNL     1      15.272  -6.375  54.657  1.00  0.00     0.036 C 
ENDBRANCH  18  19
ENDBRANCH  15  17
ENDBRANCH  12  15
BRANCH  13  22
HETATM   22  C17 UNL     1      22.924   2.772  50.913  1.00  0.00     0.400 C 
HETATM   23  F1  UNL     1      23.329   3.353  52.120  1.00  0.00    -0.170 F 
HETATM   24  F2  UNL     1      24.068   2.558  50.132  1.00  0.00    -0.170 F 
HETATM   25  F3  UNL     1      22.166   3.666  50.274  1.00  0.00    -0.170 F 
ENDBRANCH  13  22
TORSDOF 4
ENDMDL
MODEL 3
REMARK VINA RESULT:      -7.2      3.723      5.386
REMARK  4 active torsions:
REMARK  status: ('A' for Active; 'I' for Inactive)
REMARK    1  A    between atoms: C10_12  and  N3_13 
REMARK    2  A    between atoms: N3_13  and  C11_14 
REMARK    3  A    between atoms: C12_15  and  C13_16 
REMARK    4  A    between atoms: C16_19  and  C17_20 
ROOT
HETATM    1  C1  UNL     1      19.603   3.740  51.945  1.00  0.00     0.039 C 
HETATM    2  C2  UNL     1      20.344   2.641  51.738  1.00  0.00     0.013 C 
HETATM    3  N1  UNL     1      21.733   2.866  51.420  1.00  0.00    -0.389 N 
HETATM    4  C3  UNL     1      22.984   2.068  51.649  1.00  0.00     0.162 C 
HETATM    5  C4  UNL     1      22.559   0.627  51.812  1.00  0.00     0.006 C 
HETATM    6  C5  UNL     1      21.642  -0.124  51.111  1.00  0.00     0.021 C 
HETATM    7  C6  UNL     1      20.502   0.199  52.046  1.00  0.00    -0.039 C 
HETATM    8  C7  UNL     1      19.967  -0.295  53.198  1.00  0.00     0.009 C 
HETATM    9  C8  UNL     1      20.774  -0.898  54.304  1.00  0.00     0.020 C 
HETATM   10  C9  UNL     1      22.084  -0.948  54.649  1.00  0.00     0.119 C 
HETATM   11  N2  UNL     1      23.290  -0.394  54.048  1.00  0.00    -0.243 NA
HETATM   12  C10 UNL     1      23.452   0.408  53.009  1.00  0.00     0.135 C 
HETATM   13  C16 UNL     1      19.596   1.389  51.892  1.00  0.00     0.175 C 
HETATM   14  H3  UNL     1      21.800   3.809  50.927  1.00  0.00     0.159 HD
ENDROOT
BRANCH  12  15
HETATM   15  N3  UNL     1      24.624   1.212  53.000  1.00  0.00    -0.350 N 
HETATM   16  H10 UNL     1      24.360   2.203  52.720  1.00  0.00     0.166 HD
BRANCH  15  17
HETATM   17  C11 UNL     1      25.856   0.679  53.327  1.00  0.00     0.090 C 
HETATM   18  C12 UNL     1      26.632   0.846  54.373  1.00  0.00     0.017 C 
BRANCH  18  19
HETATM   19  C13 UNL     1      27.917   0.177  54.529  1.00  0.00    -0.003 C 
HETATM   20  C14 UNL     1      28.497  -0.390  53.485  1.00  0.00    -0.031 C 
HETATM   21  C15 UNL     1      29.806  -1.067  53.666  1.00  0.00     0.036 C 
ENDBRANCH  18  19
ENDBRANCH  15  17
ENDBRANCH  12  15
BRANCH  13  22
HETATM   22  C17 UNL     1      18.508   1.161  50.879  1.00  0.00     0.400 C 
HETATM   23  F1  UNL     1      18.280  -0.205  50.669  1.00  0.00    -0.170 F 
HETATM   24  F2  UNL     1      17.336   1.716  51.413  1.00  0.00    -0.170 F 
HETATM   25  F3  UNL     1      18.707   1.721  49.685  1.00  0.00    -0.170 F 
ENDBRANCH  13  22
TORSDOF 4
ENDMDL
MODEL 4
REMARK VINA RESULT:      -7.2      9.665     11.004
REMARK  4 active torsions:
REMARK  status: ('A' for Active; 'I' for Inactive)
REMARK    1  A    between atoms: C10_12  and  N3_13 
REMARK    2  A    between atoms: N3_13  and  C11_14 
REMARK    3  A    between atoms: C12_15  and  C13_16 
REMARK    4  A    between atoms: C16_19  and  C17_20 
ROOT
HETATM    1  C1  UNL     1      35.421   5.549  48.942  1.00  0.00     0.039 C 
HETATM    2  C2  UNL     1      34.143   5.381  48.573  1.00  0.00     0.013 C 
HETATM    3  N1  UNL     1      33.149   5.710  49.566  1.00  0.00    -0.389 N 
HETATM    4  C3  UNL     1      31.734   6.205  49.484  1.00  0.00     0.162 C 
HETATM    5  C4  UNL     1      31.214   5.814  48.120  1.00  0.00     0.006 C 
HETATM    6  C5  UNL     1      31.345   4.640  47.411  1.00  0.00     0.021 C 
HETATM    7  C6  UNL     1      32.586   5.095  46.681  1.00  0.00    -0.039 C 
HETATM    8  C7  UNL     1      32.898   5.773  45.541  1.00  0.00     0.009 C 
HETATM    9  C8  UNL     1      32.098   6.915  45.000  1.00  0.00     0.020 C 
HETATM   10  C9  UNL     1      31.113   7.727  45.458  1.00  0.00     0.119 C 
HETATM   11  N2  UNL     1      30.414   7.816  46.732  1.00  0.00    -0.243 NA
HETATM   12  C10 UNL     1      30.597   7.168  47.870  1.00  0.00     0.135 C 
HETATM   13  C16 UNL     1      33.986   4.902  47.196  1.00  0.00     0.175 C 
HETATM   14  H3  UNL     1      33.586   5.542  50.524  1.00  0.00     0.159 HD
ENDROOT
BRANCH  12  15
HETATM   15  N3  UNL     1      30.177   7.831  49.056  1.00  0.00    -0.350 N 
HETATM   16  H10 UNL     1      30.162   7.129  49.855  1.00  0.00     0.166 HD
BRANCH  15  17
HETATM   17  C11 UNL     1      29.871   9.178  49.050  1.00  0.00     0.090 C 
HETATM   18  C12 UNL     1      30.624  10.247  49.162  1.00  0.00     0.017 C 
BRANCH  18  19
HETATM   19  C13 UNL     1      30.095  11.604  49.128  1.00  0.00    -0.003 C 
HETATM   20  C14 UNL     1      28.837  11.813  48.778  1.00  0.00    -0.031 C 
HETATM   21  C15 UNL     1      28.318  13.204  48.748  1.00  0.00     0.036 C 
ENDBRANCH  18  19
ENDBRANCH  15  17
ENDBRANCH  12  15
BRANCH  13  22
HETATM   22  C17 UNL     1      34.514   3.519  46.932  1.00  0.00     0.400 C 
HETATM   23  F1  UNL     1      33.570   2.726  46.268  1.00  0.00    -0.170 F 
HETATM   24  F2  UNL     1      35.624   3.664  46.088  1.00  0.00    -0.170 F 
HETATM   25  F3  UNL     1      34.916   2.842  48.009  1.00  0.00    -0.170 F 
ENDBRANCH  13  22
TORSDOF 4
ENDMDL
MODEL 5
REMARK VINA RESULT:      -7.1      3.511      6.602
REMARK  4 active torsions:
REMARK  status: ('A' for Active; 'I' for Inactive)
REMARK    1  A    between atoms: C10_12  and  N3_13 
REMARK    2  A    between atoms: N3_13  and  C11_14 
REMARK    3  A    between atoms: C12_15  and  C13_16 
REMARK    4  A    between atoms: C16_19  and  C17_20 
ROOT
HETATM    1  C1  UNL     1      25.839   0.385  54.471  1.00  0.00     0.039 C 
HETATM    2  C2  UNL     1      24.996   0.634  53.458  1.00  0.00     0.013 C 
HETATM    3  N1  UNL     1      23.798  -0.170  53.421  1.00  0.00    -0.389 N 
HETATM    4  C3  UNL     1      22.410   0.073  52.901  1.00  0.00     0.162 C 
HETATM    5  C4  UNL     1      22.518   1.164  51.861  1.00  0.00     0.006 C 
HETATM    6  C5  UNL     1      23.439   1.357  50.854  1.00  0.00     0.021 C 
HETATM    7  C6  UNL     1      24.336   2.230  51.698  1.00  0.00    -0.039 C 
HETATM    8  C7  UNL     1      24.459   3.551  52.011  1.00  0.00     0.009 C 
HETATM    9  C8  UNL     1      23.301   4.482  52.186  1.00  0.00     0.020 C 
HETATM   10  C9  UNL     1      21.958   4.360  52.332  1.00  0.00     0.119 C 
HETATM   11  N2  UNL     1      21.066   3.210  52.388  1.00  0.00    -0.243 NA
HETATM   12  C10 UNL     1      21.322   1.913  52.395  1.00  0.00     0.135 C 
HETATM   13  C16 UNL     1      25.447   1.709  52.568  1.00  0.00     0.175 C 
HETATM   14  H3  UNL     1      24.028  -1.108  53.872  1.00  0.00     0.159 HD
ENDROOT
BRANCH  12  15
HETATM   15  N3  UNL     1      20.352   1.074  53.009  1.00  0.00    -0.350 N 
HETATM   16  H10 UNL     1      20.632   0.908  54.021  1.00  0.00     0.166 HD
BRANCH  15  17
HETATM   17  C11 UNL     1      19.258   0.614  52.301  1.00  0.00     0.090 C 
HETATM   18  C12 UNL     1      18.500  -0.446  52.454  1.00  0.00     0.017 C 
BRANCH  18  19
HETATM   19  C13 UNL     1      17.373  -0.755  51.584  1.00  0.00    -0.003 C 
HETATM   20  C14 UNL     1      17.255  -0.147  50.416  1.00  0.00    -0.031 C 
HETATM   21  C15 UNL     1      16.099  -0.475  49.545  1.00  0.00     0.036 C 
ENDBRANCH  18  19
ENDBRANCH  15  17
ENDBRANCH  12  15
BRANCH  13  22
HETATM   22  C17 UNL     1      26.702   1.419  51.793  1.00  0.00     0.400 C 
HETATM   23  F1  UNL     1      27.847   1.769  52.519  1.00  0.00    -0.170 F 
HETATM   24  F2  UNL     1      26.734   0.033  51.580  1.00  0.00    -0.170 F 
HETATM   25  F3  UNL     1      26.790   2.009  50.600  1.00  0.00    -0.170 F 
ENDBRANCH  13  22
TORSDOF 4
ENDMDL
MODEL 6
REMARK VINA RESULT:      -7.0      3.465      6.387
REMARK  4 active torsions:
REMARK  status: ('A' for Active; 'I' for Inactive)
REMARK    1  A    between atoms: C10_12  and  N3_13 
REMARK    2  A    between atoms: N3_13  and  C11_14 
REMARK    3  A    between atoms: C12_15  and  C13_16 
REMARK    4  A    between atoms: C16_19  and  C17_20 
ROOT
HETATM    1  C1  UNL     1      22.781  -0.702  54.411  1.00  0.00     0.039 C 
HETATM    2  C2  UNL     1      22.752   0.017  53.279  1.00  0.00     0.013 C 
HETATM    3  N1  UNL     1      21.593  -0.170  52.440  1.00  0.00    -0.389 N 
HETATM    4  C3  UNL     1      20.867   0.719  51.472  1.00  0.00     0.162 C 
HETATM    5  C4  UNL     1      21.852   1.776  51.028  1.00  0.00     0.006 C 
HETATM    6  C5  UNL     1      23.179   1.674  50.672  1.00  0.00     0.021 C 
HETATM    7  C6  UNL     1      23.685   1.951  52.067  1.00  0.00    -0.039 C 
HETATM    8  C7  UNL     1      24.012   3.034  52.828  1.00  0.00     0.009 C 
HETATM    9  C8  UNL     1      23.297   4.346  52.768  1.00  0.00     0.020 C 
HETATM   10  C9  UNL     1      22.132   4.806  52.248  1.00  0.00     0.119 C 
HETATM   11  N2  UNL     1      21.055   4.165  51.507  1.00  0.00    -0.243 NA
HETATM   12  C10 UNL     1      20.856   2.897  51.188  1.00  0.00     0.135 C 
HETATM   13  C16 UNL     1      23.917   0.891  53.107  1.00  0.00     0.175 C 
HETATM   14  H3  UNL     1      21.240  -1.163  52.599  1.00  0.00     0.159 HD
ENDROOT
BRANCH  12  15
HETATM   15  N3  UNL     1      19.508   2.496  50.979  1.00  0.00    -0.350 N 
HETATM   16  H10 UNL     1      19.496   1.656  50.326  1.00  0.00     0.166 HD
BRANCH  15  17
HETATM   17  C11 UNL     1      18.463   3.166  51.586  1.00  0.00     0.090 C 
HETATM   18  C12 UNL     1      17.308   3.587  51.125  1.00  0.00     0.017 C 
BRANCH  18  19
HETATM   19  C13 UNL     1      16.327   4.285  51.945  1.00  0.00    -0.003 C 
HETATM   20  C14 UNL     1      15.423   3.596  52.620  1.00  0.00    -0.031 C 
HETATM   21  C15 UNL     1      14.431   4.326  53.449  1.00  0.00     0.036 C 
ENDBRANCH  18  19
ENDBRANCH  15  17
ENDBRANCH  12  15
BRANCH  13  22
HETATM   22  C17 UNL     1      25.232   0.183  52.929  1.00  0.00     0.400 C 
HETATM   23  F1  UNL     1      25.950   0.698  51.843  1.00  0.00    -0.170 F 
HETATM   24  F2  UNL     1      25.979   0.419  54.091  1.00  0.00    -0.170 F 
HETATM   25  F3  UNL     1      25.155  -1.139  52.765  1.00  0.00    -0.170 F 
ENDBRANCH  13  22
TORSDOF 4
ENDMDL
MODEL 7
REMARK VINA RESULT:      -7.0      2.259      2.872
REMARK  4 active torsions:
REMARK  status: ('A' for Active; 'I' for Inactive)
REMARK    1  A    between atoms: C10_12  and  N3_13 
REMARK    2  A    between atoms: N3_13  and  C11_14 
REMARK    3  A    between atoms: C12_15  and  C13_16 
REMARK    4  A    between atoms: C16_19  and  C17_20 
ROOT
HETATM    1  C1  UNL     1      26.849  -1.552  52.708  1.00  0.00     0.039 C 
HETATM    2  C2  UNL     1      26.361  -0.309  52.830  1.00  0.00     0.013 C 
HETATM    3  N1  UNL     1      27.267   0.762  52.493  1.00  0.00    -0.389 N 
HETATM    4  C3  UNL     1      27.068   2.149  51.954  1.00  0.00     0.162 C 
HETATM    5  C4  UNL     1      25.654   2.553  52.302  1.00  0.00     0.006 C 
HETATM    6  C5  UNL     1      24.933   2.390  53.465  1.00  0.00     0.021 C 
HETATM    7  C6  UNL     1      24.330   1.075  53.032  1.00  0.00    -0.039 C 
HETATM    8  C7  UNL     1      23.239   0.642  52.340  1.00  0.00     0.009 C 
HETATM    9  C8  UNL     1      22.654   1.358  51.164  1.00  0.00     0.020 C 
HETATM   10  C9  UNL     1      23.039   2.357  50.333  1.00  0.00     0.119 C 
HETATM   11  N2  UNL     1      24.246   3.168  50.249  1.00  0.00    -0.243 NA
HETATM   12  C10 UNL     1      25.381   3.107  50.926  1.00  0.00     0.135 C 
HETATM   13  C16 UNL     1      24.965  -0.266  53.277  1.00  0.00     0.175 C 
HETATM   14  H3  UNL     1      28.257   0.419  52.693  1.00  0.00     0.159 HD
ENDROOT
BRANCH  12  15
HETATM   15  N3  UNL     1      26.539   3.615  50.276  1.00  0.00    -0.350 N 
HETATM   16  H10 UNL     1      27.398   3.133  50.676  1.00  0.00     0.166 HD
BRANCH  15  17
HETATM   17  C11 UNL     1      26.438   4.579  49.291  1.00  0.00     0.090 C 
HETATM   18  C12 UNL     1      26.418   5.890  49.349  1.00  0.00     0.017 C 
BRANCH  18  19
HETATM   19  C13 UNL     1      26.304   6.741  48.171  1.00  0.00    -0.003 C 
HETATM   20  C14 UNL     1      25.147   7.307  47.875  1.00  0.00    -0.031 C 
HETATM   21  C15 UNL     1      25.052   8.169  46.671  1.00  0.00     0.036 C 
ENDBRANCH  18  19
ENDBRANCH  15  17
ENDBRANCH  12  15
BRANCH  13  22
HETATM   22  C17 UNL     1      24.718  -0.778  54.669  1.00  0.00     0.400 C 
HETATM   23  F1  UNL     1      24.911  -2.162  54.749  1.00  0.00    -0.170 F 
HETATM   24  F2  UNL     1      25.665  -0.161  55.499  1.00  0.00    -0.170 F 
HETATM   25  F3  UNL     1      23.512  -0.513  55.173  1.00  0.00    -0.170 F 
ENDBRANCH  13  22
TORSDOF 4
ENDMDL
MODEL 8
REMARK VINA RESULT:      -6.7      9.154     11.442
REMARK  4 active torsions:
REMARK  status: ('A' for Active; 'I' for Inactive)
REMARK    1  A    between atoms: C10_12  and  N3_13 
REMARK    2  A    between atoms: N3_13  and  C11_14 
REMARK    3  A    between atoms: C12_15  and  C13_16 
REMARK    4  A    between atoms: C16_19  and  C17_20 
ROOT
HETATM    1  C1  UNL     1      34.203   5.185  44.451  1.00  0.00     0.039 C 
HETATM    2  C2  UNL     1      33.940   5.629  45.689  1.00  0.00     0.013 C 
HETATM    3  N1  UNL     1      34.283   7.005  45.954  1.00  0.00    -0.389 N 
HETATM    4  C3  UNL     1      33.725   8.046  46.881  1.00  0.00     0.162 C 
HETATM    5  C4  UNL     1      33.019   7.306  47.993  1.00  0.00     0.006 C 
HETATM    6  C5  UNL     1      33.392   6.188  48.708  1.00  0.00     0.021 C 
HETATM    7  C6  UNL     1      32.691   5.229  47.778  1.00  0.00    -0.039 C 
HETATM    8  C7  UNL     1      31.452   4.677  47.638  1.00  0.00     0.009 C 
HETATM    9  C8  UNL     1      30.176   5.397  47.943  1.00  0.00     0.020 C 
HETATM   10  C9  UNL     1      29.805   6.680  48.174  1.00  0.00     0.119 C 
HETATM   11  N2  UNL     1      30.543   7.935  48.212  1.00  0.00    -0.243 NA
HETATM   12  C10 UNL     1      31.809   8.206  47.942  1.00  0.00     0.135 C 
HETATM   13  C16 UNL     1      33.325   4.619  46.558  1.00  0.00     0.175 C 
HETATM   14  H3  UNL     1      35.106   7.257  45.324  1.00  0.00     0.159 HD
ENDROOT
BRANCH  12  15
HETATM   15  N3  UNL     1      32.102   9.531  47.520  1.00  0.00    -0.350 N 
HETATM   16  H10 UNL     1      33.033   9.530  47.005  1.00  0.00     0.166 HD
BRANCH  15  17
HETATM   17  C11 UNL     1      31.236  10.573  47.789  1.00  0.00     0.090 C 
HETATM   18  C12 UNL     1      31.353  11.633  48.555  1.00  0.00     0.017 C 
BRANCH  18  19
HETATM   19  C13 UNL     1      30.303  12.632  48.703  1.00  0.00    -0.003 C 
HETATM   20  C14 UNL     1      29.034  12.274  48.603  1.00  0.00    -0.031 C 
HETATM   21  C15 UNL     1      27.979  13.308  48.757  1.00  0.00     0.036 C 
ENDBRANCH  18  19
ENDBRANCH  15  17
ENDBRANCH  12  15
BRANCH  13  22
HETATM   22  C17 UNL     1      34.195   3.438  46.886  1.00  0.00     0.400 C 
HETATM   23  F1  UNL     1      34.357   3.288  48.269  1.00  0.00    -0.170 F 
HETATM   24  F2  UNL     1      33.531   2.301  46.405  1.00  0.00    -0.170 F 
HETATM   25  F3  UNL     1      35.412   3.450  46.340  1.00  0.00    -0.170 F 
ENDBRANCH  13  22
TORSDOF 4
ENDMDL
MODEL 9
REMARK VINA RESULT:      -6.5      4.658      7.879
REMARK  4 active torsions:
REMARK  status: ('A' for Active; 'I' for Inactive)
REMARK    1  A    between atoms: C10_12  and  N3_13 
REMARK    2  A    between atoms: N3_13  and  C11_14 
REMARK    3  A    between atoms: C12_15  and  C13_16 
REMARK    4  A    between atoms: C16_19  and  C17_20 
ROOT
HETATM    1  C1  UNL     1      23.517   7.342  46.460  1.00  0.00     0.039 C 
HETATM    2  C2  UNL     1      23.866   6.973  47.702  1.00  0.00     0.013 C 
HETATM    3  N1  UNL     1      22.816   6.398  48.509  1.00  0.00    -0.389 N 
HETATM    4  C3  UNL     1      22.808   5.398  49.628  1.00  0.00     0.162 C 
HETATM    5  C4  UNL     1      24.189   5.418  50.241  1.00  0.00     0.006 C 
HETATM    6  C5  UNL     1      25.017   6.473  50.557  1.00  0.00     0.021 C 
HETATM    7  C6  UNL     1      25.731   6.449  49.227  1.00  0.00    -0.039 C 
HETATM    8  C7  UNL     1      26.805   5.824  48.666  1.00  0.00     0.009 C 
HETATM    9  C8  UNL     1      27.205   4.415  48.967  1.00  0.00     0.020 C 
HETATM   10  C9  UNL     1      26.640   3.343  49.575  1.00  0.00     0.119 C 
HETATM   11  N2  UNL     1      25.344   3.128  50.204  1.00  0.00    -0.243 NA
HETATM   12  C10 UNL     1      24.282   3.913  50.294  1.00  0.00     0.135 C 
HETATM   13  C16 UNL     1      25.279   7.211  48.012  1.00  0.00     0.175 C 
HETATM   14  H3  UNL     1      21.893   6.819  48.180  1.00  0.00     0.159 HD
ENDROOT
BRANCH  12  15
HETATM   15  N3  UNL     1      23.024   3.269  50.446  1.00  0.00    -0.350 N 
HETATM   16  H10 UNL     1      22.278   3.854  49.964  1.00  0.00     0.166 HD
BRANCH  15  17
HETATM   17  C11 UNL     1      22.913   2.073  51.128  1.00  0.00     0.090 C 
HETATM   18  C12 UNL     1      22.708   1.805  52.397  1.00  0.00     0.017 C 
BRANCH  18  19
HETATM   19  C13 UNL     1      22.621   0.449  52.924  1.00  0.00    -0.003 C 
HETATM   20  C14 UNL     1      21.829   0.190  53.950  1.00  0.00    -0.031 C 
HETATM   21  C15 UNL     1      21.755  -1.198  54.472  1.00  0.00     0.036 C 
ENDBRANCH  18  19
ENDBRANCH  15  17
ENDBRANCH  12  15
BRANCH  13  22
HETATM   22  C17 UNL     1      25.697   8.655  48.045  1.00  0.00     0.400 C 
HETATM   23  F1  UNL     1      26.017   9.127  46.767  1.00  0.00    -0.170 F 
HETATM   24  F2  UNL     1      24.593   9.383  48.511  1.00  0.00    -0.170 F 
HETATM   25  F3  UNL     1      26.728   8.936  48.844  1.00  0.00    -0.170 F 
ENDBRANCH  13  22
TORSDOF 4
ENDMDL
