MODEL 1
REMARK VINA RESULT:      -9.4      0.000      0.000
REMARK  2 active torsions:
REMARK  status: ('A' for Active; 'I' for Inactive)
REMARK    1  A    between atoms: C9_11  and  N3_12 
REMARK    2  A    between atoms: N3_12  and  C10_13 
ROOT
HETATM    1  C1  UNL     1      22.546  -0.600  54.042  1.00  0.00     0.150 C 
HETATM    2  N1  UNL     1      23.904  -0.248  53.987  1.00  0.00    -0.373 N 
HETATM    3  C2  UNL     1      25.181  -0.966  54.749  1.00  0.00     0.216 C 
HETATM    4  C3  UNL     1      26.017   0.064  54.371  1.00  0.00    -0.086 C 
HETATM    5  C4  UNL     1      26.662   0.890  54.061  1.00  0.00    -0.090 C 
HETATM    6  C5  UNL     1      27.431   1.910  53.666  1.00  0.00     0.186 C 
HETATM    7  N2  UNL     1      25.984   2.858  53.531  1.00  0.00    -0.281 NA
HETATM    8  C6  UNL     1      24.818   2.257  52.854  1.00  0.00     0.034 A 
HETATM    9  C7  UNL     1      24.351   2.956  51.721  1.00  0.00     0.039 A 
HETATM   10  C8  UNL     1      23.204   2.450  50.856  1.00  0.00     0.129 A 
HETATM   11  C9  UNL     1      23.468   3.519  49.938  1.00  0.00     0.068 A 
HETATM   12  C16 UNL     1      22.613   3.105  48.775  1.00  0.00     0.085 A 
HETATM   13  C17 UNL     1      22.377   3.848  47.558  1.00  0.00     0.103 C 
HETATM   14  N4  UNL     1      22.203   4.432  46.601  1.00  0.00    -0.191 NA
HETATM   15  C18 UNL     1      21.840   1.882  48.842  1.00  0.00     0.113 A 
HETATM   16  N5  UNL     1      22.369   1.760  50.133  1.00  0.00    -0.349 N 
HETATM   17  C19 UNL     1      22.441   1.175  51.072  1.00  0.00     0.121 A 
HETATM   18  C20 UNL     1      23.018   0.707  52.142  1.00  0.00     0.041 A 
HETATM   19  C21 UNL     1      24.000   0.969  53.052  1.00  0.00     0.050 A 
HETATM   20  H8  UNL     1      26.272   2.160  52.954  1.00  0.00     0.128 HD
ENDROOT
BRANCH  11  21
HETATM   21  N3  UNL     1      24.299   4.679  49.610  1.00  0.00    -0.356 N 
HETATM   22  H10 UNL     1      23.353   5.075  49.788  1.00  0.00     0.166 HD
BRANCH  21  23
HETATM   23  C10 UNL     1      25.574   4.872  49.228  1.00  0.00     0.033 A 
HETATM   24  C11 UNL     1      26.795   4.387  49.149  1.00  0.00     0.029 A 
HETATM   25  C12 UNL     1      27.941   5.007  48.608  1.00  0.00     0.004 A 
HETATM   26  C13 UNL     1      27.703   6.326  48.090  1.00  0.00     0.019 A 
HETATM   27  C14 UNL     1      26.375   6.879  48.186  1.00  0.00     0.013 A 
HETATM   28 BR1  UNL     1      26.552   8.642  47.401  1.00  0.00    -0.051 Br
HETATM   29  C15 UNL     1      25.241   6.204  48.752  1.00  0.00     0.048 A 
ENDBRANCH  21  23
ENDBRANCH  11  21
TORSDOF 2
ENDMDL
MODEL 2
REMARK VINA RESULT:      -9.3      2.506      6.498
REMARK  2 active torsions:
REMARK  status: ('A' for Active; 'I' for Inactive)
REMARK    1  A    between atoms: C9_11  and  N3_12 
REMARK    2  A    between atoms: N3_12  and  C10_13 
ROOT
HETATM    1  C1  UNL     1      20.916   2.788  47.621  1.00  0.00     0.150 C 
HETATM    2  N1  UNL     1      21.863   3.673  48.160  1.00  0.00    -0.373 N 
HETATM    3  C2  UNL     1      22.185   5.229  47.710  1.00  0.00     0.216 C 
HETATM    4  C3  UNL     1      23.304   5.256  48.517  1.00  0.00    -0.086 C 
HETATM    5  C4  UNL     1      24.186   5.257  49.163  1.00  0.00    -0.090 C 
HETATM    6  C5  UNL     1      25.256   5.233  49.964  1.00  0.00     0.186 C 
HETATM    7  N2  UNL     1      25.238   3.504  49.821  1.00  0.00    -0.281 NA
HETATM    8  C6  UNL     1      23.948   2.806  49.976  1.00  0.00     0.034 A 
HETATM    9  C7  UNL     1      23.895   1.858  51.020  1.00  0.00     0.039 A 
HETATM   10  C8  UNL     1      22.627   1.092  51.374  1.00  0.00     0.129 A 
HETATM   11  C9  UNL     1      23.309   0.554  52.514  1.00  0.00     0.068 A 
HETATM   12  C16 UNL     1      22.163  -0.074  53.253  1.00  0.00     0.085 A 
HETATM   13  C17 UNL     1      22.234  -0.874  54.456  1.00  0.00     0.103 C 
HETATM   14  N4  UNL     1      22.296  -1.493  55.404  1.00  0.00    -0.191 NA
HETATM   15  C18 UNL     1      20.820   0.012  52.719  1.00  0.00     0.113 A 
HETATM   16  N5  UNL     1      21.417   0.704  51.657  1.00  0.00    -0.349 N 
HETATM   17  C19 UNL     1      21.297   1.239  50.693  1.00  0.00     0.121 A 
HETATM   18  C20 UNL     1      21.568   2.133  49.786  1.00  0.00     0.041 A 
HETATM   19  C21 UNL     1      22.573   2.913  49.293  1.00  0.00     0.050 A 
HETATM   20  H8  UNL     1      24.636   4.049  50.315  1.00  0.00     0.128 HD
ENDROOT
BRANCH  11  21
HETATM   21  N3  UNL     1      24.545   0.511  53.298  1.00  0.00    -0.356 N 
HETATM   22  H10 UNL     1      23.968   1.243  53.758  1.00  0.00     0.166 HD
BRANCH  21  23
HETATM   23  C10 UNL     1      25.712  -0.155  53.218  1.00  0.00     0.033 A 
HETATM   24  C11 UNL     1      26.329  -1.285  52.950  1.00  0.00     0.029 A 
HETATM   25  C12 UNL     1      27.713  -1.551  53.001  1.00  0.00     0.004 A 
HETATM   26  C13 UNL     1      28.511  -0.423  53.395  1.00  0.00     0.019 A 
HETATM   27  C14 UNL     1      27.849   0.818  53.711  1.00  0.00     0.013 A 
HETATM   28 BR1  UNL     1      29.300   2.004  54.202  1.00  0.00    -0.051 Br
HETATM   29  C15 UNL     1      26.430   1.034  53.646  1.00  0.00     0.048 A 
ENDBRANCH  21  23
ENDBRANCH  11  21
TORSDOF 2
ENDMDL
MODEL 3
REMARK VINA RESULT:      -9.1      3.280      7.428
REMARK  2 active torsions:
REMARK  status: ('A' for Active; 'I' for Inactive)
REMARK    1  A    between atoms: C9_11  and  N3_12 
REMARK    2  A    between atoms: N3_12  and  C10_13 
ROOT
HETATM    1  C1  UNL     1      26.074   8.477  47.010  1.00  0.00     0.150 C 
HETATM    2  N1  UNL     1      27.338   8.103  47.495  1.00  0.00    -0.373 N 
HETATM    3  C2  UNL     1      28.762   8.933  47.391  1.00  0.00     0.216 C 
HETATM    4  C3  UNL     1      29.461   7.840  47.860  1.00  0.00    -0.086 C 
HETATM    5  C4  UNL     1      29.995   6.963  48.234  1.00  0.00    -0.090 C 
HETATM    6  C5  UNL     1      30.625   5.878  48.697  1.00  0.00     0.186 C 
HETATM    7  N2  UNL     1      29.282   4.940  48.125  1.00  0.00    -0.281 NA
HETATM    8  C6  UNL     1      27.919   5.421  48.424  1.00  0.00     0.034 A 
HETATM    9  C7  UNL     1      27.114   4.531  49.166  1.00  0.00     0.039 A 
HETATM   10  C8  UNL     1      25.706   4.884  49.628  1.00  0.00     0.129 A 
HETATM   11  C9  UNL     1      25.680   3.661  50.375  1.00  0.00     0.068 A 
HETATM   12  C16 UNL     1      24.441   3.865  51.198  1.00  0.00     0.085 A 
HETATM   13  C17 UNL     1      23.823   2.914  52.095  1.00  0.00     0.103 C 
HETATM   14  N4  UNL     1      23.348   2.166  52.803  1.00  0.00    -0.191 NA
HETATM   15  C18 UNL     1      23.678   5.089  51.070  1.00  0.00     0.113 A 
HETATM   16  N5  UNL     1      24.630   5.440  50.105  1.00  0.00    -0.349 N 
HETATM   17  C19 UNL     1      25.003   6.186  49.375  1.00  0.00     0.121 A 
HETATM   18  C20 UNL     1      25.900   6.837  48.690  1.00  0.00     0.041 A 
HETATM   19  C21 UNL     1      27.157   6.734  48.171  1.00  0.00     0.050 A 
HETATM   20  H8  UNL     1      29.304   5.516  48.880  1.00  0.00     0.128 HD
ENDROOT
BRANCH  11  21
HETATM   21  N3  UNL     1      26.399   2.450  50.774  1.00  0.00    -0.356 N 
HETATM   22  H10 UNL     1      26.028   2.236  49.826  1.00  0.00     0.166 HD
BRANCH  21  23
HETATM   23  C10 UNL     1      27.049   2.036  51.876  1.00  0.00     0.033 A 
HETATM   24  C11 UNL     1      27.754   2.364  52.938  1.00  0.00     0.029 A 
HETATM   25  C12 UNL     1      28.279   1.507  53.928  1.00  0.00     0.004 A 
HETATM   26  C13 UNL     1      27.983   0.118  53.717  1.00  0.00     0.019 A 
HETATM   27  C14 UNL     1      27.228  -0.260  52.548  1.00  0.00     0.013 A 
HETATM   28 BR1  UNL     1      27.110  -2.190  52.679  1.00  0.00    -0.051 Br
HETATM   29  C15 UNL     1      26.719   0.656  51.565  1.00  0.00     0.048 A 
ENDBRANCH  21  23
ENDBRANCH  11  21
TORSDOF 2
ENDMDL
MODEL 4
REMARK VINA RESULT:      -8.9      3.048      5.539
REMARK  2 active torsions:
REMARK  status: ('A' for Active; 'I' for Inactive)
REMARK    1  A    between atoms: C9_11  and  N3_12 
REMARK    2  A    between atoms: N3_12  and  C10_13 
ROOT
HETATM    1  C1  UNL     1      18.152   2.073  51.018  1.00  0.00     0.150 C 
HETATM    2  N1  UNL     1      18.677   0.985  51.734  1.00  0.00    -0.373 N 
HETATM    3  C2  UNL     1      17.902  -0.386  52.230  1.00  0.00     0.216 C 
HETATM    4  C3  UNL     1      18.992  -0.754  52.993  1.00  0.00    -0.086 C 
HETATM    5  C4  UNL     1      19.865  -1.028  53.590  1.00  0.00    -0.090 C 
HETATM    6  C5  UNL     1      20.948  -1.343  54.309  1.00  0.00     0.186 C 
HETATM    7  N2  UNL     1      21.356   0.344  54.303  1.00  0.00    -0.281 NA
HETATM    8  C6  UNL     1      21.270   1.077  53.025  1.00  0.00     0.034 A 
HETATM    9  C7  UNL     1      22.474   1.668  52.585  1.00  0.00     0.039 A 
HETATM   10  C8  UNL     1      22.593   2.403  51.257  1.00  0.00     0.129 A 
HETATM   11  C9  UNL     1      24.005   2.510  51.480  1.00  0.00     0.068 A 
HETATM   12  C16 UNL     1      24.465   2.988  50.134  1.00  0.00     0.085 A 
HETATM   13  C17 UNL     1      25.805   3.380  49.758  1.00  0.00     0.103 C 
HETATM   14  N4  UNL     1      26.860   3.678  49.467  1.00  0.00    -0.191 NA
HETATM   15  C18 UNL     1      23.505   3.187  49.068  1.00  0.00     0.113 A 
HETATM   16  N5  UNL     1      22.552   2.795  50.016  1.00  0.00    -0.349 N 
HETATM   17  C19 UNL     1      21.490   2.588  50.256  1.00  0.00     0.121 A 
HETATM   18  C20 UNL     1      20.499   1.986  50.850  1.00  0.00     0.041 A 
HETATM   19  C21 UNL     1      20.161   1.303  51.982  1.00  0.00     0.050 A 
HETATM   20  H8  UNL     1      21.418  -0.267  53.578  1.00  0.00     0.128 HD
ENDROOT
BRANCH  11  21
HETATM   21  N3  UNL     1      25.136   2.206  52.360  1.00  0.00    -0.356 N 
HETATM   22  H10 UNL     1      24.883   3.189  52.588  1.00  0.00     0.166 HD
BRANCH  21  23
HETATM   23  C10 UNL     1      25.962   1.159  52.537  1.00  0.00     0.033 A 
HETATM   24  C11 UNL     1      26.182  -0.125  52.351  1.00  0.00     0.029 A 
HETATM   25  C12 UNL     1      27.309  -0.877  52.744  1.00  0.00     0.004 A 
HETATM   26  C13 UNL     1      28.316  -0.110  53.423  1.00  0.00     0.019 A 
HETATM   27  C14 UNL     1      28.082   1.294  53.651  1.00  0.00     0.013 A 
HETATM   28 BR1  UNL     1      29.667   1.878  54.600  1.00  0.00    -0.051 Br
HETATM   29  C15 UNL     1      26.911   2.012  53.232  1.00  0.00     0.048 A 
ENDBRANCH  21  23
ENDBRANCH  11  21
TORSDOF 2
ENDMDL
MODEL 5
REMARK VINA RESULT:      -8.5      6.085      9.914
REMARK  2 active torsions:
REMARK  status: ('A' for Active; 'I' for Inactive)
REMARK    1  A    between atoms: C9_11  and  N3_12 
REMARK    2  A    between atoms: N3_12  and  C10_13 
ROOT
HETATM    1  C1  UNL     1      28.225  10.251  49.012  1.00  0.00     0.150 C 
HETATM    2  N1  UNL     1      27.740   8.942  48.867  1.00  0.00    -0.373 N 
HETATM    3  C2  UNL     1      26.247   8.352  49.254  1.00  0.00     0.216 C 
HETATM    4  C3  UNL     1      26.675   7.059  49.034  1.00  0.00    -0.086 C 
HETATM    5  C4  UNL     1      27.033   6.042  48.855  1.00  0.00    -0.090 C 
HETATM    6  C5  UNL     1      27.495   4.808  48.625  1.00  0.00     0.186 C 
HETATM    7  N2  UNL     1      29.090   5.426  48.919  1.00  0.00    -0.281 NA
HETATM    8  C6  UNL     1      29.474   6.697  48.274  1.00  0.00     0.034 A 
HETATM    9  C7  UNL     1      30.594   6.626  47.419  1.00  0.00     0.039 A 
HETATM   10  C8  UNL     1      31.093   7.819  46.615  1.00  0.00     0.129 A 
HETATM   11  C9  UNL     1      32.025   6.947  45.961  1.00  0.00     0.068 A 
HETATM   12  C16 UNL     1      32.511   7.839  44.856  1.00  0.00     0.085 A 
HETATM   13  C17 UNL     1      33.558   7.551  43.900  1.00  0.00     0.103 C 
HETATM   14  N4  UNL     1      34.373   7.316  43.148  1.00  0.00    -0.191 NA
HETATM   15  C18 UNL     1      31.985   9.181  44.720  1.00  0.00     0.113 A 
HETATM   16  N5  UNL     1      31.233   8.872  45.861  1.00  0.00    -0.349 N 
HETATM   17  C19 UNL     1      30.480   9.189  46.609  1.00  0.00     0.121 A 
HETATM   18  C20 UNL     1      29.493   9.035  47.446  1.00  0.00     0.041 A 
HETATM   19  C21 UNL     1      28.887   8.119  48.255  1.00  0.00     0.050 A 
HETATM   20  H8  UNL     1      28.544   5.576  48.156  1.00  0.00     0.128 HD
ENDROOT
BRANCH  11  21
HETATM   21  N3  UNL     1      32.542   5.584  45.823  1.00  0.00    -0.356 N 
HETATM   22  H10 UNL     1      32.004   5.752  44.948  1.00  0.00     0.166 HD
BRANCH  21  23
HETATM   23  C10 UNL     1      33.250   4.741  46.595  1.00  0.00     0.033 A 
HETATM   24  C11 UNL     1      34.259   4.577  47.424  1.00  0.00     0.029 A 
HETATM   25  C12 UNL     1      34.670   3.389  48.064  1.00  0.00     0.004 A 
HETATM   26  C13 UNL     1      33.860   2.244  47.749  1.00  0.00     0.019 A 
HETATM   27  C14 UNL     1      32.762   2.404  46.829  1.00  0.00     0.013 A 
HETATM   28 BR1  UNL     1      32.005   0.625  46.701  1.00  0.00    -0.051 Br
HETATM   29  C15 UNL     1      32.389   3.640  46.200  1.00  0.00     0.048 A 
ENDBRANCH  21  23
ENDBRANCH  11  21
TORSDOF 2
ENDMDL
MODEL 6
REMARK VINA RESULT:      -8.4      2.558      3.565
REMARK  2 active torsions:
REMARK  status: ('A' for Active; 'I' for Inactive)
REMARK    1  A    between atoms: C9_11  and  N3_12 
REMARK    2  A    between atoms: N3_12  and  C10_13 
ROOT
HETATM    1  C1  UNL     1      24.511  -1.173  54.801  1.00  0.00     0.150 C 
HETATM    2  N1  UNL     1      25.203  -0.554  53.747  1.00  0.00    -0.373 N 
HETATM    3  C2  UNL     1      26.675  -0.952  53.114  1.00  0.00     0.216 C 
HETATM    4  C3  UNL     1      26.691   0.205  52.362  1.00  0.00    -0.086 C 
HETATM    5  C4  UNL     1      26.684   1.127  51.775  1.00  0.00    -0.090 C 
HETATM    6  C5  UNL     1      26.648   2.259  51.063  1.00  0.00     0.186 C 
HETATM    7  N2  UNL     1      25.535   2.881  52.240  1.00  0.00    -0.281 NA
HETATM    8  C6  UNL     1      24.417   2.017  52.666  1.00  0.00     0.034 A 
HETATM    9  C7  UNL     1      23.127   2.540  52.436  1.00  0.00     0.039 A 
HETATM   10  C8  UNL     1      21.855   1.762  52.746  1.00  0.00     0.129 A 
HETATM   11  C9  UNL     1      21.101   2.809  52.120  1.00  0.00     0.068 A 
HETATM   12  C16 UNL     1      19.749   2.163  52.033  1.00  0.00     0.085 A 
HETATM   13  C17 UNL     1      18.520   2.772  51.576  1.00  0.00     0.103 C 
HETATM   14  N4  UNL     1      17.561   3.253  51.208  1.00  0.00    -0.191 NA
HETATM   15  C18 UNL     1      19.555   0.814  52.522  1.00  0.00     0.113 A 
HETATM   16  N5  UNL     1      20.910   0.876  52.874  1.00  0.00    -0.349 N 
HETATM   17  C19 UNL     1      21.795   0.373  53.311  1.00  0.00     0.121 A 
HETATM   18  C20 UNL     1      23.060   0.093  53.447  1.00  0.00     0.041 A 
HETATM   19  C21 UNL     1      24.312   0.602  53.262  1.00  0.00     0.050 A 
HETATM   20  H8  UNL     1      25.364   2.225  51.574  1.00  0.00     0.128 HD
ENDROOT
BRANCH  11  21
HETATM   21  N3  UNL     1      21.132   4.094  51.419  1.00  0.00    -0.356 N 
HETATM   22  H10 UNL     1      20.629   4.291  52.309  1.00  0.00     0.166 HD
BRANCH  21  23
HETATM   23  C10 UNL     1      21.566   4.527  50.222  1.00  0.00     0.033 A 
HETATM   24  C11 UNL     1      21.626   4.324  48.923  1.00  0.00     0.029 A 
HETATM   25  C12 UNL     1      22.250   5.129  47.948  1.00  0.00     0.004 A 
HETATM   26  C13 UNL     1      22.883   6.305  48.478  1.00  0.00     0.019 A 
HETATM   27  C14 UNL     1      22.843   6.532  49.901  1.00  0.00     0.013 A 
HETATM   28 BR1  UNL     1      23.830   8.183  50.132  1.00  0.00    -0.051 Br
HETATM   29  C15 UNL     1      22.195   5.675  50.853  1.00  0.00     0.048 A 
ENDBRANCH  21  23
ENDBRANCH  11  21
TORSDOF 2
ENDMDL
MODEL 7
REMARK VINA RESULT:      -8.3      3.585      6.651
REMARK  2 active torsions:
REMARK  status: ('A' for Active; 'I' for Inactive)
REMARK    1  A    between atoms: C9_11  and  N3_12 
REMARK    2  A    between atoms: N3_12  and  C10_13 
ROOT
HETATM    1  C1  UNL     1      16.974  -2.291  53.094  1.00  0.00     0.150 C 
HETATM    2  N1  UNL     1      16.940  -0.954  52.669  1.00  0.00    -0.373 N 
HETATM    3  C2  UNL     1      15.625   0.025  52.467  1.00  0.00     0.216 C 
HETATM    4  C3  UNL     1      16.404   0.986  51.856  1.00  0.00    -0.086 C 
HETATM    5  C4  UNL     1      17.039   1.734  51.375  1.00  0.00    -0.090 C 
HETATM    6  C5  UNL     1      17.838   2.636  50.794  1.00  0.00     0.186 C 
HETATM    7  N2  UNL     1      18.926   1.334  50.431  1.00  0.00    -0.281 NA
HETATM    8  C6  UNL     1      19.240   0.369  51.503  1.00  0.00     0.034 A 
HETATM    9  C7  UNL     1      20.605   0.269  51.845  1.00  0.00     0.039 A 
HETATM   10  C8  UNL     1      21.108  -0.621  52.974  1.00  0.00     0.129 A 
HETATM   11  C9  UNL     1      22.414  -0.059  52.792  1.00  0.00     0.068 A 
HETATM   12  C16 UNL     1      23.115  -0.582  54.012  1.00  0.00     0.085 A 
HETATM   13  C17 UNL     1      24.514  -0.435  54.344  1.00  0.00     0.103 C 
HETATM   14  N4  UNL     1      25.611  -0.308  54.603  1.00  0.00    -0.191 NA
HETATM   15  C18 UNL     1      22.399  -1.407  54.962  1.00  0.00     0.113 A 
HETATM   16  N5  UNL     1      21.313  -1.261  54.090  1.00  0.00    -0.349 N 
HETATM   17  C19 UNL     1      20.252  -1.481  53.859  1.00  0.00     0.121 A 
HETATM   18  C20 UNL     1      19.065  -1.246  53.377  1.00  0.00     0.041 A 
HETATM   19  C21 UNL     1      18.400  -0.540  52.418  1.00  0.00     0.050 A 
HETATM   20  H8  UNL     1      18.765   1.732  51.278  1.00  0.00     0.128 HD
ENDROOT
BRANCH  11  21
HETATM   21  N3  UNL     1      23.250   0.891  52.054  1.00  0.00    -0.356 N 
HETATM   22  H10 UNL     1      23.678  -0.039  51.866  1.00  0.00     0.166 HD
BRANCH  21  23
HETATM   23  C10 UNL     1      23.294   2.228  51.916  1.00  0.00     0.033 A 
HETATM   24  C11 UNL     1      22.750   3.392  52.200  1.00  0.00     0.029 A 
HETATM   25  C12 UNL     1      23.186   4.673  51.800  1.00  0.00     0.004 A 
HETATM   26  C13 UNL     1      24.371   4.661  50.988  1.00  0.00     0.019 A 
HETATM   27  C14 UNL     1      24.968   3.392  50.652  1.00  0.00     0.013 A 
HETATM   28 BR1  UNL     1      26.485   3.875  49.548  1.00  0.00    -0.051 Br
HETATM   29  C15 UNL     1      24.480   2.113  51.084  1.00  0.00     0.048 A 
ENDBRANCH  21  23
ENDBRANCH  11  21
TORSDOF 2
ENDMDL
MODEL 8
REMARK VINA RESULT:      -8.2      2.866      4.079
REMARK  2 active torsions:
REMARK  status: ('A' for Active; 'I' for Inactive)
REMARK    1  A    between atoms: C9_11  and  N3_12 
REMARK    2  A    between atoms: N3_12  and  C10_13 
ROOT
HETATM    1  C1  UNL     1      24.922  -1.004  54.803  1.00  0.00     0.150 C 
HETATM    2  N1  UNL     1      25.527  -0.366  53.710  1.00  0.00    -0.373 N 
HETATM    3  C2  UNL     1      27.013  -0.654  53.048  1.00  0.00     0.216 C 
HETATM    4  C3  UNL     1      26.905   0.472  52.257  1.00  0.00    -0.086 C 
HETATM    5  C4  UNL     1      26.800   1.367  51.639  1.00  0.00    -0.090 C 
HETATM    6  C5  UNL     1      26.644   2.464  50.890  1.00  0.00     0.186 C 
HETATM    7  N2  UNL     1      25.510   3.027  52.076  1.00  0.00    -0.281 NA
HETATM    8  C6  UNL     1      24.486   2.084  52.564  1.00  0.00     0.034 A 
HETATM    9  C7  UNL     1      23.148   2.481  52.353  1.00  0.00     0.039 A 
HETATM   10  C8  UNL     1      21.960   1.604  52.726  1.00  0.00     0.129 A 
HETATM   11  C9  UNL     1      21.099   2.556  52.087  1.00  0.00     0.068 A 
HETATM   12  C16 UNL     1      19.809   1.790  52.061  1.00  0.00     0.085 A 
HETATM   13  C17 UNL     1      18.518   2.270  51.619  1.00  0.00     0.103 C 
HETATM   14  N4  UNL     1      17.511   2.649  51.263  1.00  0.00    -0.191 NA
HETATM   15  C18 UNL     1      19.750   0.448  52.601  1.00  0.00     0.113 A 
HETATM   16  N5  UNL     1      21.102   0.643  52.912  1.00  0.00    -0.349 N 
HETATM   17  C19 UNL     1      22.040   0.237  53.340  1.00  0.00     0.121 A 
HETATM   18  C20 UNL     1      23.328   0.077  53.449  1.00  0.00     0.041 A 
HETATM   19  C21 UNL     1      24.524   0.687  53.211  1.00  0.00     0.050 A 
HETATM   20  H8  UNL     1      25.382   2.335  51.438  1.00  0.00     0.128 HD
ENDROOT
BRANCH  11  21
HETATM   21  N3  UNL     1      20.996   3.813  51.342  1.00  0.00    -0.356 N 
HETATM   22  H10 UNL     1      20.493   3.994  52.235  1.00  0.00     0.166 HD
BRANCH  21  23
HETATM   23  C10 UNL     1      21.366   4.240  50.122  1.00  0.00     0.033 A 
HETATM   24  C11 UNL     1      22.166   4.089  49.088  1.00  0.00     0.029 A 
HETATM   25  C12 UNL     1      22.195   4.846  47.897  1.00  0.00     0.004 A 
HETATM   26  C13 UNL     1      21.216   5.896  47.847  1.00  0.00     0.019 A 
HETATM   27  C14 UNL     1      20.345   6.086  48.979  1.00  0.00     0.013 A 
HETATM   28 BR1  UNL     1      19.246   7.598  48.467  1.00  0.00    -0.051 Br
HETATM   29  C15 UNL     1      20.359   5.287  50.172  1.00  0.00     0.048 A 
ENDBRANCH  21  23
ENDBRANCH  11  21
TORSDOF 2
ENDMDL
MODEL 9
REMARK VINA RESULT:      -8.1      3.390      5.734
REMARK  2 active torsions:
REMARK  status: ('A' for Active; 'I' for Inactive)
REMARK    1  A    between atoms: C9_11  and  N3_12 
REMARK    2  A    between atoms: N3_12  and  C10_13 
ROOT
HETATM    1  C1  UNL     1      26.615  -0.281  53.844  1.00  0.00     0.150 C 
HETATM    2  N1  UNL     1      25.315  -0.472  54.340  1.00  0.00    -0.373 N 
HETATM    3  C2  UNL     1      24.853  -1.179  55.759  1.00  0.00     0.216 C 
HETATM    4  C3  UNL     1      23.531  -1.164  55.364  1.00  0.00    -0.086 C 
HETATM    5  C4  UNL     1      22.490  -1.143  55.032  1.00  0.00    -0.090 C 
HETATM    6  C5  UNL     1      21.224  -1.101  54.605  1.00  0.00     0.186 C 
HETATM    7  N2  UNL     1      21.846  -1.033  52.987  1.00  0.00    -0.281 NA
HETATM    8  C6  UNL     1      22.953  -0.099  52.704  1.00  0.00     0.034 A 
HETATM    9  C7  UNL     1      22.685   0.876  51.720  1.00  0.00     0.039 A 
HETATM   10  C8  UNL     1      23.681   1.966  51.348  1.00  0.00     0.129 A 
HETATM   11  C9  UNL     1      22.673   2.558  50.518  1.00  0.00     0.068 A 
HETATM   12  C16 UNL     1      23.314   3.878  50.201  1.00  0.00     0.085 A 
HETATM   13  C17 UNL     1      22.815   4.897  49.304  1.00  0.00     0.103 C 
HETATM   14  N4  UNL     1      22.414   5.696  48.606  1.00  0.00    -0.191 NA
HETATM   15  C18 UNL     1      24.616   4.202  50.745  1.00  0.00     0.113 A 
HETATM   16  N5  UNL     1      24.559   2.927  51.322  1.00  0.00    -0.349 N 
HETATM   17  C19 UNL     1      25.038   2.158  51.959  1.00  0.00     0.121 A 
HETATM   18  C20 UNL     1      25.079   1.175  52.813  1.00  0.00     0.041 A 
HETATM   19  C21 UNL     1      24.358   0.120  53.293  1.00  0.00     0.050 A 
HETATM   20  H8  UNL     1      21.856  -0.342  53.638  1.00  0.00     0.128 HD
ENDROOT
BRANCH  11  21
HETATM   21  N3  UNL     1      21.296   2.494  50.022  1.00  0.00    -0.356 N 
HETATM   22  H10 UNL     1      21.880   2.185  49.219  1.00  0.00     0.166 HD
BRANCH  21  23
HETATM   23  C10 UNL     1      20.082   2.805  50.512  1.00  0.00     0.033 A 
HETATM   24  C11 UNL     1      19.333   3.678  51.150  1.00  0.00     0.029 A 
HETATM   25  C12 UNL     1      17.963   3.573  51.471  1.00  0.00     0.004 A 
HETATM   26  C13 UNL     1      17.350   2.352  51.029  1.00  0.00     0.019 A 
HETATM   27  C14 UNL     1      18.162   1.376  50.344  1.00  0.00     0.013 A 
HETATM   28 BR1  UNL     1      16.931  -0.074  49.980  1.00  0.00    -0.051 Br
HETATM   29  C15 UNL     1      19.558   1.532  50.045  1.00  0.00     0.048 A 
ENDBRANCH  21  23
ENDBRANCH  11  21
TORSDOF 2
ENDMDL
