MODEL 1
REMARK VINA RESULT:      -8.6      0.000      0.000
REMARK  7 active torsions:
REMARK  status: ('A' for Active; 'I' for Inactive)
REMARK    1  A    between atoms: N1_1  and  C1_2 
REMARK    2  A    between atoms: C3_6  and  C4_7 
REMARK    3  A    between atoms: C4_7  and  C5_8 
REMARK    4  A    between atoms: C10_15  and  C11_16 
REMARK    5  A    between atoms: C12_17  and  C13_18 
REMARK    6  A    between atoms: C13_18  and  C14_19 
REMARK    7  A    between atoms: C14_19  and  C15_20 
ROOT
HETATM    1  C1  UNL     1      28.356   1.732  53.452  1.00  0.00     0.114 A 
HETATM    2  N2  UNL     1      28.913   1.391  54.614  1.00  0.00    -0.229 NA
HETATM    3  C2  UNL     1      28.495   0.261  55.214  1.00  0.00     0.235 A 
HETATM    4  N3  UNL     1      27.543  -0.473  54.627  1.00  0.00    -0.245 NA
HETATM    5  C3  UNL     1      26.998  -0.112  53.461  1.00  0.00     0.053 A 
HETATM    6  C10 UNL     1      27.378   1.028  52.796  1.00  0.00     0.029 A 
ENDROOT
BRANCH   6   7
HETATM    7  C11 UNL     1      26.771   1.362  51.529  1.00  0.00     0.013 C 
HETATM    8  C12 UNL     1      26.163   2.370  50.961  1.00  0.00    -0.025 C 
BRANCH   8   9
HETATM    9  C13 UNL     1      25.616   3.728  50.918  1.00  0.00     0.031 C 
BRANCH   9  10
HETATM   10  C14 UNL     1      25.368   4.137  49.467  1.00  0.00     0.038 C 
BRANCH  10  11
HETATM   11  C15 UNL     1      26.452   5.017  48.971  1.00  0.00    -0.076 A 
HETATM   12  C16 UNL     1      27.710   4.708  48.691  1.00  0.00     0.003 A 
HETATM   13  C17 UNL     1      28.446   5.901  48.223  1.00  0.00    -0.003 A 
HETATM   14  C18 UNL     1      27.569   6.898  48.243  1.00  0.00    -0.022 A 
HETATM   15  C19 UNL     1      26.222   6.468  48.712  1.00  0.00     0.061 A 
ENDBRANCH  10  11
ENDBRANCH   9  10
ENDBRANCH   8   9
ENDBRANCH   6   7
BRANCH   1  16
HETATM   16  N1  UNL     1      28.872   2.930  52.929  1.00  0.00    -0.286 NA
HETATM   17  H1  UNL     1      28.139   3.670  52.761  1.00  0.00     0.125 HD
HETATM   18  H2  UNL     1      28.139   3.676  52.759  1.00  0.00     0.125 HD
ENDBRANCH   1  16
BRANCH   5  19
HETATM   19  C4  UNL     1      25.945  -0.981  52.880  1.00  0.00     0.098 C 
BRANCH  19  20
HETATM   20  C5  UNL     1      24.574  -0.437  53.054  1.00  0.00    -0.025 C 
HETATM   21  C6  UNL     1      24.241  -0.151  54.300  1.00  0.00     0.089 C 
HETATM   22  N4  UNL     1      23.468  -0.987  54.873  1.00  0.00    -0.259 NA
HETATM   23  C7  UNL     1      22.301  -1.385  54.176  1.00  0.00     0.115 C 
HETATM   24  C8  UNL     1      22.142  -0.912  52.947  1.00  0.00     0.013 C 
HETATM   25  C9  UNL     1      23.274  -0.015  52.518  1.00  0.00     0.113 C 
HETATM   26 BR1  UNL     1      22.867   1.849  52.880  1.00  0.00    -0.082 Br
ENDBRANCH  19  20
ENDBRANCH   5  19
TORSDOF 7
ENDMDL
MODEL 2
REMARK VINA RESULT:      -8.3      2.607      6.363
REMARK  7 active torsions:
REMARK  status: ('A' for Active; 'I' for Inactive)
REMARK    1  A    between atoms: N1_1  and  C1_2 
REMARK    2  A    between atoms: C3_6  and  C4_7 
REMARK    3  A    between atoms: C4_7  and  C5_8 
REMARK    4  A    between atoms: C10_15  and  C11_16 
REMARK    5  A    between atoms: C12_17  and  C13_18 
REMARK    6  A    between atoms: C13_18  and  C14_19 
REMARK    7  A    between atoms: C14_19  and  C15_20 
ROOT
HETATM    1  C1  UNL     1      24.485   3.839  50.086  1.00  0.00     0.114 A 
HETATM    2  N2  UNL     1      25.608   3.866  49.368  1.00  0.00    -0.229 NA
HETATM    3  C2  UNL     1      26.722   3.336  49.906  1.00  0.00     0.235 A 
HETATM    4  N3  UNL     1      26.662   2.805  51.132  1.00  0.00    -0.245 NA
HETATM    5  C3  UNL     1      25.526   2.787  51.835  1.00  0.00     0.053 A 
HETATM    6  C10 UNL     1      24.354   3.311  51.346  1.00  0.00     0.029 A 
ENDROOT
BRANCH   6   7
HETATM    7  C11 UNL     1      23.148   3.250  52.139  1.00  0.00     0.013 C 
HETATM    8  C12 UNL     1      21.968   2.689  52.098  1.00  0.00    -0.025 C 
BRANCH   8   9
HETATM    9  C13 UNL     1      20.924   1.853  51.503  1.00  0.00     0.031 C 
BRANCH   9  10
HETATM   10  C14 UNL     1      21.425   0.414  51.381  1.00  0.00     0.038 C 
BRANCH  10  11
HETATM   11  C15 UNL     1      21.787  -0.135  52.709  1.00  0.00    -0.076 A 
HETATM   12  C16 UNL     1      22.961  -0.584  53.130  1.00  0.00     0.003 A 
HETATM   13  C17 UNL     1      22.869  -1.042  54.532  1.00  0.00    -0.003 A 
HETATM   14  C18 UNL     1      21.609  -0.840  54.898  1.00  0.00    -0.022 A 
HETATM   15  C19 UNL     1      20.783  -0.251  53.806  1.00  0.00     0.061 A 
ENDBRANCH  10  11
ENDBRANCH   9  10
ENDBRANCH   8   9
ENDBRANCH   6   7
BRANCH   1  16
HETATM   16  N1  UNL     1      23.396   4.425  49.419  1.00  0.00    -0.286 NA
HETATM   17  H1  UNL     1      23.558   4.570  48.387  1.00  0.00     0.125 HD
HETATM   18  H2  UNL     1      23.555   4.571  48.382  1.00  0.00     0.125 HD
ENDBRANCH   1  16
BRANCH   5  19
HETATM   19  C4  UNL     1      25.547   2.182  53.189  1.00  0.00     0.098 C 
BRANCH  19  20
HETATM   20  C5  UNL     1      26.413   0.978  53.279  1.00  0.00    -0.025 C 
HETATM   21  C6  UNL     1      26.325   0.311  54.416  1.00  0.00     0.089 C 
HETATM   22  N4  UNL     1      27.287   0.480  55.234  1.00  0.00    -0.259 NA
HETATM   23  C7  UNL     1      28.605   0.341  54.732  1.00  0.00     0.115 C 
HETATM   24  C8  UNL     1      28.735   0.120  53.431  1.00  0.00     0.013 C 
HETATM   25  C9  UNL     1      27.410   0.059  52.717  1.00  0.00     0.113 C 
HETATM   26 BR1  UNL     1      26.772  -1.769  52.578  1.00  0.00    -0.082 Br
ENDBRANCH  19  20
ENDBRANCH   5  19
TORSDOF 7
ENDMDL
MODEL 3
REMARK VINA RESULT:      -8.2      3.709      6.129
REMARK  7 active torsions:
REMARK  status: ('A' for Active; 'I' for Inactive)
REMARK    1  A    between atoms: N1_1  and  C1_2 
REMARK    2  A    between atoms: C3_6  and  C4_7 
REMARK    3  A    between atoms: C4_7  and  C5_8 
REMARK    4  A    between atoms: C10_15  and  C11_16 
REMARK    5  A    between atoms: C12_17  and  C13_18 
REMARK    6  A    between atoms: C13_18  and  C14_19 
REMARK    7  A    between atoms: C14_19  and  C15_20 
ROOT
HETATM    1  C1  UNL     1      21.689  -0.821  54.055  1.00  0.00     0.114 A 
HETATM    2  N2  UNL     1      20.485  -0.492  53.586  1.00  0.00    -0.229 NA
HETATM    3  C2  UNL     1      20.368   0.641  52.868  1.00  0.00     0.235 A 
HETATM    4  N3  UNL     1      21.455   1.389  52.654  1.00  0.00    -0.245 NA
HETATM    5  C3  UNL     1      22.653   1.041  53.134  1.00  0.00     0.053 A 
HETATM    6  C10 UNL     1      22.842  -0.100  53.873  1.00  0.00     0.029 A 
ENDROOT
BRANCH   6   7
HETATM    7  C11 UNL     1      24.162  -0.441  54.353  1.00  0.00     0.013 C 
HETATM    8  C12 UNL     1      25.301  -0.877  53.882  1.00  0.00    -0.025 C 
BRANCH   8   9
HETATM    9  C13 UNL     1      26.203  -1.334  52.822  1.00  0.00     0.031 C 
BRANCH   9  10
HETATM   10  C14 UNL     1      26.657  -0.140  51.984  1.00  0.00     0.038 C 
BRANCH  10  11
HETATM   11  C15 UNL     1      27.581   0.727  52.752  1.00  0.00    -0.076 A 
HETATM   12  C16 UNL     1      27.591   2.049  52.850  1.00  0.00     0.003 A 
HETATM   13  C17 UNL     1      28.694   2.497  53.726  1.00  0.00    -0.003 A 
HETATM   14  C18 UNL     1      29.310   1.391  54.125  1.00  0.00    -0.022 A 
HETATM   15  C19 UNL     1      28.692   0.155  53.567  1.00  0.00     0.061 A 
ENDBRANCH  10  11
ENDBRANCH   9  10
ENDBRANCH   8   9
ENDBRANCH   6   7
BRANCH   1  16
HETATM   16  N1  UNL     1      21.680  -2.018  54.791  1.00  0.00    -0.286 NA
HETATM   17  H1  UNL     1      22.642  -2.413  54.971  1.00  0.00     0.125 HD
HETATM   18  H2  UNL     1      22.645  -2.417  54.974  1.00  0.00     0.125 HD
ENDBRANCH   1  16
BRANCH   5  19
HETATM   19  C4  UNL     1      23.807   1.930  52.853  1.00  0.00     0.098 C 
BRANCH  19  20
HETATM   20  C5  UNL     1      23.520   2.953  51.814  1.00  0.00    -0.025 C 
HETATM   21  C6  UNL     1      23.658   4.205  52.210  1.00  0.00     0.089 C 
HETATM   22  N4  UNL     1      22.576   4.834  52.451  1.00  0.00    -0.259 NA
HETATM   23  C7  UNL     1      21.558   4.783  51.467  1.00  0.00     0.115 C 
HETATM   24  C8  UNL     1      21.783   4.022  50.404  1.00  0.00     0.013 C 
HETATM   25  C9  UNL     1      23.124   3.336  50.454  1.00  0.00     0.113 C 
HETATM   26 BR1  UNL     1      24.478   4.374  49.527  1.00  0.00    -0.082 Br
ENDBRANCH  19  20
ENDBRANCH   5  19
TORSDOF 7
ENDMDL
MODEL 4
REMARK VINA RESULT:      -8.1      2.908      6.563
REMARK  7 active torsions:
REMARK  status: ('A' for Active; 'I' for Inactive)
REMARK    1  A    between atoms: N1_1  and  C1_2 
REMARK    2  A    between atoms: C3_6  and  C4_7 
REMARK    3  A    between atoms: C4_7  and  C5_8 
REMARK    4  A    between atoms: C10_15  and  C11_16 
REMARK    5  A    between atoms: C12_17  and  C13_18 
REMARK    6  A    between atoms: C13_18  and  C14_19 
REMARK    7  A    between atoms: C14_19  and  C15_20 
ROOT
HETATM    1  C1  UNL     1      23.732   5.403  51.147  1.00  0.00     0.114 A 
HETATM    2  N2  UNL     1      24.678   5.973  50.401  1.00  0.00    -0.229 NA
HETATM    3  C2  UNL     1      25.679   5.198  49.940  1.00  0.00     0.235 A 
HETATM    4  N3  UNL     1      25.688   3.897  50.248  1.00  0.00    -0.245 NA
HETATM    5  C3  UNL     1      24.728   3.346  50.998  1.00  0.00     0.053 A 
HETATM    6  C10 UNL     1      23.680   4.078  51.499  1.00  0.00     0.029 A 
ENDROOT
BRANCH   6   7
HETATM    7  C11 UNL     1      22.659   3.430  52.289  1.00  0.00     0.013 C 
HETATM    8  C12 UNL     1      21.660   2.603  52.124  1.00  0.00    -0.025 C 
BRANCH   8   9
HETATM    9  C13 UNL     1      20.777   1.740  51.336  1.00  0.00     0.031 C 
BRANCH   9  10
HETATM   10  C14 UNL     1      21.367   0.333  51.260  1.00  0.00     0.038 C 
BRANCH  10  11
HETATM   11  C15 UNL     1      21.672  -0.188  52.613  1.00  0.00    -0.076 A 
HETATM   12  C16 UNL     1      22.843  -0.550  53.118  1.00  0.00     0.003 A 
HETATM   13  C17 UNL     1      22.685  -1.014  54.513  1.00  0.00    -0.003 A 
HETATM   14  C18 UNL     1      21.391  -0.903  54.787  1.00  0.00    -0.022 A 
HETATM   15  C19 UNL     1      20.604  -0.376  53.636  1.00  0.00     0.061 A 
ENDBRANCH  10  11
ENDBRANCH   9  10
ENDBRANCH   8   9
ENDBRANCH   6   7
BRANCH   1  16
HETATM   16  N1  UNL     1      22.748   6.313  51.570  1.00  0.00    -0.286 NA
HETATM   17  H1  UNL     1      22.290   6.050  52.482  1.00  0.00     0.125 HD
HETATM   18  H2  UNL     1      22.286   6.052  52.486  1.00  0.00     0.125 HD
ENDBRANCH   1  16
BRANCH   5  19
HETATM   19  C4  UNL     1      24.815   1.895  51.294  1.00  0.00     0.098 C 
BRANCH  19  20
HETATM   20  C5  UNL     1      25.868   1.562  52.288  1.00  0.00    -0.025 C 
HETATM   21  C6  UNL     1      26.748   0.662  51.889  1.00  0.00     0.089 C 
HETATM   22  N4  UNL     1      26.597  -0.511  52.365  1.00  0.00    -0.259 NA
HETATM   23  C7  UNL     1      26.434  -0.632  53.767  1.00  0.00     0.115 C 
HETATM   24  C8  UNL     1      26.376   0.493  54.467  1.00  0.00     0.013 C 
HETATM   25  C9  UNL     1      26.499   1.722  53.604  1.00  0.00     0.113 C 
HETATM   26 BR1  UNL     1      28.341   2.325  53.500  1.00  0.00    -0.082 Br
ENDBRANCH  19  20
ENDBRANCH   5  19
TORSDOF 7
ENDMDL
MODEL 5
REMARK VINA RESULT:      -8.0      2.087      5.733
REMARK  7 active torsions:
REMARK  status: ('A' for Active; 'I' for Inactive)
REMARK    1  A    between atoms: N1_1  and  C1_2 
REMARK    2  A    between atoms: C3_6  and  C4_7 
REMARK    3  A    between atoms: C4_7  and  C5_8 
REMARK    4  A    between atoms: C10_15  and  C11_16 
REMARK    5  A    between atoms: C12_17  and  C13_18 
REMARK    6  A    between atoms: C13_18  and  C14_19 
REMARK    7  A    between atoms: C14_19  and  C15_20 
ROOT
HETATM    1  C1  UNL     1      27.238   0.639  54.201  1.00  0.00     0.114 A 
HETATM    2  N2  UNL     1      28.262   1.421  54.543  1.00  0.00    -0.229 NA
HETATM    3  C2  UNL     1      28.649   2.378  53.678  1.00  0.00     0.235 A 
HETATM    4  N3  UNL     1      27.999   2.506  52.517  1.00  0.00    -0.245 NA
HETATM    5  C3  UNL     1      26.974   1.710  52.194  1.00  0.00     0.053 A 
HETATM    6  C10 UNL     1      26.529   0.716  53.030  1.00  0.00     0.029 A 
ENDROOT
BRANCH   6   7
HETATM    7  C11 UNL     1      25.404  -0.104  52.641  1.00  0.00     0.013 C 
HETATM    8  C12 UNL     1      24.257  -0.499  53.126  1.00  0.00    -0.025 C 
BRANCH   8   9
HETATM    9  C13 UNL     1      23.209  -0.571  54.148  1.00  0.00     0.031 C 
BRANCH   9  10
HETATM   10  C14 UNL     1      21.885  -0.968  53.498  1.00  0.00     0.038 C 
BRANCH  10  11
HETATM   11  C15 UNL     1      21.308   0.163  52.734  1.00  0.00    -0.076 A 
HETATM   12  C16 UNL     1      20.799   1.299  53.190  1.00  0.00     0.003 A 
HETATM   13  C17 UNL     1      20.336   2.147  52.071  1.00  0.00    -0.003 A 
HETATM   14  C18 UNL     1      20.598   1.460  50.965  1.00  0.00    -0.022 A 
HETATM   15  C19 UNL     1      21.235   0.142  51.245  1.00  0.00     0.061 A 
ENDBRANCH  10  11
ENDBRANCH   9  10
ENDBRANCH   8   9
ENDBRANCH   6   7
BRANCH   1  16
HETATM   16  N1  UNL     1      26.932  -0.321  55.182  1.00  0.00    -0.286 NA
HETATM   17  H1  UNL     1      26.357  -1.128  54.821  1.00  0.00     0.125 HD
HETATM   18  H2  UNL     1      26.356  -1.133  54.823  1.00  0.00     0.125 HD
ENDBRANCH   1  16
BRANCH   5  19
HETATM   19  C4  UNL     1      26.310   1.918  50.884  1.00  0.00     0.098 C 
BRANCH  19  20
HETATM   20  C5  UNL     1      25.243   2.951  50.926  1.00  0.00    -0.025 C 
HETATM   21  C6  UNL     1      24.039   2.524  50.592  1.00  0.00     0.089 C 
HETATM   22  N4  UNL     1      23.642   2.842  49.423  1.00  0.00    -0.259 NA
HETATM   23  C7  UNL     1      23.759   4.201  49.040  1.00  0.00     0.115 C 
HETATM   24  C8  UNL     1      24.343   5.023  49.902  1.00  0.00     0.013 C 
HETATM   25  C9  UNL     1      24.784   4.325  51.162  1.00  0.00     0.113 C 
HETATM   26 BR1  UNL     1      23.426   4.450  52.545  1.00  0.00    -0.082 Br
ENDBRANCH  19  20
ENDBRANCH   5  19
TORSDOF 7
ENDMDL
MODEL 6
REMARK VINA RESULT:      -7.9      2.943      5.725
REMARK  7 active torsions:
REMARK  status: ('A' for Active; 'I' for Inactive)
REMARK    1  A    between atoms: N1_1  and  C1_2 
REMARK    2  A    between atoms: C3_6  and  C4_7 
REMARK    3  A    between atoms: C4_7  and  C5_8 
REMARK    4  A    between atoms: C10_15  and  C11_16 
REMARK    5  A    between atoms: C12_17  and  C13_18 
REMARK    6  A    between atoms: C13_18  and  C14_19 
REMARK    7  A    between atoms: C14_19  and  C15_20 
ROOT
HETATM    1  C1  UNL     1      25.455   3.842  50.538  1.00  0.00     0.114 A 
HETATM    2  N2  UNL     1      25.347   4.457  49.360  1.00  0.00    -0.229 NA
HETATM    3  C2  UNL     1      24.131   4.891  48.976  1.00  0.00     0.235 A 
HETATM    4  N3  UNL     1      23.085   4.688  49.784  1.00  0.00    -0.245 NA
HETATM    5  C3  UNL     1      23.216   4.069  50.961  1.00  0.00     0.053 A 
HETATM    6  C10 UNL     1      24.426   3.603  51.413  1.00  0.00     0.029 A 
ENDROOT
BRANCH   6   7
HETATM    7  C11 UNL     1      24.516   2.957  52.702  1.00  0.00     0.013 C 
HETATM    8  C12 UNL     1      24.759   1.772  53.197  1.00  0.00    -0.025 C 
BRANCH   8   9
HETATM    9  C13 UNL     1      25.078   0.345  53.111  1.00  0.00     0.031 C 
BRANCH   9  10
HETATM   10  C14 UNL     1      26.203   0.131  52.100  1.00  0.00     0.038 C 
BRANCH  10  11
HETATM   11  C15 UNL     1      27.506  -0.041  52.785  1.00  0.00    -0.076 A 
HETATM   12  C16 UNL     1      28.136  -1.163  53.102  1.00  0.00     0.003 A 
HETATM   13  C17 UNL     1      29.415  -0.867  53.782  1.00  0.00    -0.003 A 
HETATM   14  C18 UNL     1      29.495   0.457  53.841  1.00  0.00    -0.022 A 
HETATM   15  C19 UNL     1      28.315   1.131  53.227  1.00  0.00     0.061 A 
ENDBRANCH  10  11
ENDBRANCH   9  10
ENDBRANCH   8   9
ENDBRANCH   6   7
BRANCH   1  16
HETATM   16  N1  UNL     1      26.770   3.435  50.823  1.00  0.00    -0.286 NA
HETATM   17  H1  UNL     1      27.453   4.234  50.905  1.00  0.00     0.125 HD
HETATM   18  H2  UNL     1      27.459   4.235  50.907  1.00  0.00     0.125 HD
ENDBRANCH   1  16
BRANCH   5  19
HETATM   19  C4  UNL     1      22.003   3.882  51.795  1.00  0.00     0.098 C 
BRANCH  19  20
HETATM   20  C5  UNL     1      21.307   2.595  51.538  1.00  0.00    -0.025 C 
HETATM   21  C6  UNL     1      20.394   2.265  52.433  1.00  0.00     0.089 C 
HETATM   22  N4  UNL     1      20.736   1.366  53.270  1.00  0.00    -0.259 NA
HETATM   23  C7  UNL     1      21.310   0.178  52.754  1.00  0.00     0.115 C 
HETATM   24  C8  UNL     1      21.516   0.126  51.445  1.00  0.00     0.013 C 
HETATM   25  C9  UNL     1      21.085   1.385  50.738  1.00  0.00     0.113 C 
HETATM   26 BR1  UNL     1      19.266   1.229  50.076  1.00  0.00    -0.082 Br
ENDBRANCH  19  20
ENDBRANCH   5  19
TORSDOF 7
ENDMDL
MODEL 7
REMARK VINA RESULT:      -7.8      3.336      6.153
REMARK  7 active torsions:
REMARK  status: ('A' for Active; 'I' for Inactive)
REMARK    1  A    between atoms: N1_1  and  C1_2 
REMARK    2  A    between atoms: C3_6  and  C4_7 
REMARK    3  A    between atoms: C4_7  and  C5_8 
REMARK    4  A    between atoms: C10_15  and  C11_16 
REMARK    5  A    between atoms: C12_17  and  C13_18 
REMARK    6  A    between atoms: C13_18  and  C14_19 
REMARK    7  A    between atoms: C14_19  and  C15_20 
ROOT
HETATM    1  C1  UNL     1      26.443   2.789  51.431  1.00  0.00     0.114 A 
HETATM    2  N2  UNL     1      26.843   3.388  50.310  1.00  0.00    -0.229 NA
HETATM    3  C2  UNL     1      25.928   3.621  49.350  1.00  0.00     0.235 A 
HETATM    4  N3  UNL     1      24.662   3.243  49.555  1.00  0.00    -0.245 NA
HETATM    5  C3  UNL     1      24.282   2.644  50.687  1.00  0.00     0.053 A 
HETATM    6  C10 UNL     1      25.163   2.378  51.706  1.00  0.00     0.029 A 
ENDROOT
BRANCH   6   7
HETATM    7  C11 UNL     1      24.697   1.744  52.918  1.00  0.00     0.013 C 
HETATM    8  C12 UNL     1      24.899   0.647  53.598  1.00  0.00    -0.025 C 
BRANCH   8   9
HETATM    9  C13 UNL     1      25.527  -0.652  53.854  1.00  0.00     0.031 C 
BRANCH   9  10
HETATM   10  C14 UNL     1      26.377  -1.056  52.651  1.00  0.00     0.038 C 
BRANCH  10  11
HETATM   11  C15 UNL     1      27.795  -1.242  53.041  1.00  0.00    -0.076 A 
HETATM   12  C16 UNL     1      28.663  -0.337  53.468  1.00  0.00     0.003 A 
HETATM   13  C17 UNL     1      29.973  -0.964  53.744  1.00  0.00    -0.003 A 
HETATM   14  C18 UNL     1      29.824  -2.253  53.463  1.00  0.00    -0.022 A 
HETATM   15  C19 UNL     1      28.449  -2.582  52.991  1.00  0.00     0.061 A 
ENDBRANCH  10  11
ENDBRANCH   9  10
ENDBRANCH   8   9
ENDBRANCH   6   7
BRANCH   1  16
HETATM   16  N1  UNL     1      27.488   2.599  52.352  1.00  0.00    -0.286 NA
HETATM   17  H1  UNL     1      28.075   3.461  52.512  1.00  0.00     0.125 HD
HETATM   18  H2  UNL     1      28.079   3.463  52.515  1.00  0.00     0.125 HD
ENDBRANCH   1  16
BRANCH   5  19
HETATM   19  C4  UNL     1      22.857   2.255  50.832  1.00  0.00     0.098 C 
BRANCH  19  20
HETATM   20  C5  UNL     1      21.938   3.419  50.918  1.00  0.00    -0.025 C 
HETATM   21  C6  UNL     1      21.536   3.724  52.139  1.00  0.00     0.089 C 
HETATM   22  N4  UNL     1      20.349   3.369  52.437  1.00  0.00    -0.259 NA
HETATM   23  C7  UNL     1      19.317   3.706  51.526  1.00  0.00     0.115 C 
HETATM   24  C8  UNL     1      19.679   4.300  50.397  1.00  0.00     0.013 C 
HETATM   25  C9  UNL     1      21.169   4.505  50.300  1.00  0.00     0.113 C 
HETATM   26 BR1  UNL     1      21.677   6.265  50.945  1.00  0.00    -0.082 Br
ENDBRANCH  19  20
ENDBRANCH   5  19
TORSDOF 7
ENDMDL
MODEL 8
REMARK VINA RESULT:      -7.8      2.072      2.858
REMARK  7 active torsions:
REMARK  status: ('A' for Active; 'I' for Inactive)
REMARK    1  A    between atoms: N1_1  and  C1_2 
REMARK    2  A    between atoms: C3_6  and  C4_7 
REMARK    3  A    between atoms: C4_7  and  C5_8 
REMARK    4  A    between atoms: C10_15  and  C11_16 
REMARK    5  A    between atoms: C12_17  and  C13_18 
REMARK    6  A    between atoms: C13_18  and  C14_19 
REMARK    7  A    between atoms: C14_19  and  C15_20 
ROOT
HETATM    1  C1  UNL     1      26.595  -0.101  53.313  1.00  0.00     0.114 A 
HETATM    2  N2  UNL     1      25.924  -1.079  53.921  1.00  0.00    -0.229 NA
HETATM    3  C2  UNL     1      24.614  -0.895  54.169  1.00  0.00     0.235 A 
HETATM    4  N3  UNL     1      24.038   0.254  53.800  1.00  0.00    -0.245 NA
HETATM    5  C3  UNL     1      24.730   1.223  53.191  1.00  0.00     0.053 A 
HETATM    6  C10 UNL     1      26.068   1.099  52.909  1.00  0.00     0.029 A 
ENDROOT
BRANCH   6   7
HETATM    7  C11 UNL     1      26.765   2.168  52.231  1.00  0.00     0.013 C 
HETATM    8  C12 UNL     1      26.797   2.736  51.054  1.00  0.00    -0.025 C 
BRANCH   8   9
HETATM    9  C13 UNL     1      26.379   2.910  49.661  1.00  0.00     0.031 C 
BRANCH   9  10
HETATM   10  C14 UNL     1      25.771   4.300  49.477  1.00  0.00     0.038 C 
BRANCH  10  11
HETATM   11  C15 UNL     1      26.767   5.245  48.920  1.00  0.00    -0.076 A 
HETATM   12  C16 UNL     1      27.999   5.000  48.499  1.00  0.00     0.003 A 
HETATM   13  C17 UNL     1      28.641   6.243  48.020  1.00  0.00    -0.003 A 
HETATM   14  C18 UNL     1      27.738   7.202  48.181  1.00  0.00    -0.022 A 
HETATM   15  C19 UNL     1      26.461   6.697  48.761  1.00  0.00     0.061 A 
ENDBRANCH  10  11
ENDBRANCH   9  10
ENDBRANCH   8   9
ENDBRANCH   6   7
BRANCH   1  16
HETATM   16  N1  UNL     1      27.952  -0.411  53.114  1.00  0.00    -0.286 NA
HETATM   17  H1  UNL     1      28.420   0.184  52.380  1.00  0.00     0.125 HD
HETATM   18  H2  UNL     1      28.425   0.186  52.378  1.00  0.00     0.125 HD
ENDBRANCH   1  16
BRANCH   5  19
HETATM   19  C4  UNL     1      24.015   2.468  52.818  1.00  0.00     0.098 C 
BRANCH  19  20
HETATM   20  C5  UNL     1      23.022   2.270  51.731  1.00  0.00    -0.025 C 
HETATM   21  C6  UNL     1      21.845   2.833  51.941  1.00  0.00     0.089 C 
HETATM   22  N4  UNL     1      20.908   2.043  52.293  1.00  0.00    -0.259 NA
HETATM   23  C7  UNL     1      20.715   0.871  51.521  1.00  0.00     0.115 C 
HETATM   24  C8  UNL     1      21.575   0.650  50.535  1.00  0.00     0.013 C 
HETATM   25  C9  UNL     1      22.625   1.725  50.428  1.00  0.00     0.113 C 
HETATM   26 BR1  UNL     1      22.100   3.092  49.154  1.00  0.00    -0.082 Br
ENDBRANCH  19  20
ENDBRANCH   5  19
TORSDOF 7
ENDMDL
MODEL 9
REMARK VINA RESULT:      -7.7      3.026      6.535
REMARK  7 active torsions:
REMARK  status: ('A' for Active; 'I' for Inactive)
REMARK    1  A    between atoms: N1_1  and  C1_2 
REMARK    2  A    between atoms: C3_6  and  C4_7 
REMARK    3  A    between atoms: C4_7  and  C5_8 
REMARK    4  A    between atoms: C10_15  and  C11_16 
REMARK    5  A    between atoms: C12_17  and  C13_18 
REMARK    6  A    between atoms: C13_18  and  C14_19 
REMARK    7  A    between atoms: C14_19  and  C15_20 
ROOT
HETATM    1  C1  UNL     1      26.131  -0.077  53.642  1.00  0.00     0.114 A 
HETATM    2  N2  UNL     1      27.120   0.795  53.840  1.00  0.00    -0.229 NA
HETATM    3  C2  UNL     1      26.860   2.105  53.666  1.00  0.00     0.235 A 
HETATM    4  N3  UNL     1      25.629   2.479  53.303  1.00  0.00    -0.245 NA
HETATM    5  C3  UNL     1      24.651   1.588  53.110  1.00  0.00     0.053 A 
HETATM    6  C10 UNL     1      24.849   0.239  53.270  1.00  0.00     0.029 A 
ENDROOT
BRANCH   6   7
HETATM    7  C11 UNL     1      23.753  -0.681  53.068  1.00  0.00     0.013 C 
HETATM    8  C12 UNL     1      22.641  -1.034  53.655  1.00  0.00    -0.025 C 
BRANCH   8   9
HETATM    9  C13 UNL     1      21.629  -0.974  54.713  1.00  0.00     0.031 C 
BRANCH   9  10
HETATM   10  C14 UNL     1      20.795   0.296  54.553  1.00  0.00     0.038 C 
BRANCH  10  11
HETATM   11  C15 UNL     1      19.955   0.230  53.334  1.00  0.00    -0.076 A 
HETATM   12  C16 UNL     1      19.989   1.006  52.260  1.00  0.00     0.003 A 
HETATM   13  C17 UNL     1      18.968   0.581  51.279  1.00  0.00    -0.003 A 
HETATM   14  C18 UNL     1      18.353  -0.461  51.827  1.00  0.00    -0.022 A 
HETATM   15  C19 UNL     1      18.893  -0.804  53.173  1.00  0.00     0.061 A 
ENDBRANCH  10  11
ENDBRANCH   9  10
ENDBRANCH   8   9
ENDBRANCH   6   7
BRANCH   1  16
HETATM   16  N1  UNL     1      26.528  -1.409  53.850  1.00  0.00    -0.286 NA
HETATM   17  H1  UNL     1      26.579  -1.980  52.964  1.00  0.00     0.125 HD
HETATM   18  H2  UNL     1      26.581  -1.985  52.963  1.00  0.00     0.125 HD
ENDBRANCH   1  16
BRANCH   5  19
HETATM   19  C4  UNL     1      23.315   2.089  52.705  1.00  0.00     0.098 C 
BRANCH  19  20
HETATM   20  C5  UNL     1      23.314   2.745  51.372  1.00  0.00    -0.025 C 
HETATM   21  C6  UNL     1      22.771   3.949  51.342  1.00  0.00     0.089 C 
HETATM   22  N4  UNL     1      21.598   4.016  50.848  1.00  0.00    -0.259 NA
HETATM   23  C7  UNL     1      21.379   3.393  49.595  1.00  0.00     0.115 C 
HETATM   24  C8  UNL     1      22.396   2.723  49.069  1.00  0.00     0.013 C 
HETATM   25  C9  UNL     1      23.626   2.756  49.938  1.00  0.00     0.113 C 
HETATM   26 BR1  UNL     1      24.809   4.207  49.424  1.00  0.00    -0.082 Br
ENDBRANCH  19  20
ENDBRANCH   5  19
TORSDOF 7
ENDMDL
