MODEL 1
REMARK VINA RESULT:      -6.7      0.000      0.000
REMARK  8 active torsions:
REMARK  status: ('A' for Active; 'I' for Inactive)
REMARK    1  A    between atoms: N1_2  and  C3_4 
REMARK    2  A    between atoms: C3_4  and  C4_5 
REMARK    3  A    between atoms: C5_6  and  N2_7 
REMARK    4  A    between atoms: N2_7  and  C6_8 
REMARK    5  A    between atoms: C7_9  and  C8_10 
REMARK    6  A    between atoms: C9_11  and  S1_13 
REMARK    7  A    between atoms: S1_13  and  N3_14 
REMARK    8  A    between atoms: N3_14  and  C10_15 
ROOT
HETATM    1  C8  UNL     1      24.953   1.772  51.403  1.00  0.00     0.034 C 
HETATM    2  C9  UNL     1      24.235   1.923  52.528  1.00  0.00     0.091 C 
HETATM    3 CL1  UNL     1      24.121   3.539  53.181  1.00  0.00    -0.075 Cl
ENDROOT
BRANCH   2   4
HETATM    4  S1  UNL     1      23.588   0.317  52.966  1.00  0.00    -0.002 SA
BRANCH   4   5
HETATM    5  N3  UNL     1      24.673  -0.422  54.166  1.00  0.00    -0.325 N 
HETATM    6  H15 UNL     1      23.976  -0.770  54.887  1.00  0.00     0.174 HD
BRANCH   5   7
HETATM    7  C10 UNL     1      26.106  -0.450  54.049  1.00  0.00     0.038 A 
HETATM    8  C11 UNL     1      26.573  -1.248  53.005  1.00  0.00     0.033 A 
HETATM    9  C12 UNL     1      27.948  -1.299  52.881  1.00  0.00     0.044 A 
HETATM   10  C13 UNL     1      28.753  -0.605  53.738  1.00  0.00     0.116 A 
HETATM   11  F1  UNL     1      30.109  -0.672  53.600  1.00  0.00    -0.206 F 
HETATM   12  C14 UNL     1      28.271   0.177  54.760  1.00  0.00     0.044 A 
HETATM   13  C15 UNL     1      26.906   0.243  54.903  1.00  0.00     0.033 A 
ENDBRANCH   5   7
ENDBRANCH   4   5
ENDBRANCH   2   4
BRANCH   1  14
HETATM   14  C7  UNL     1      25.464   3.121  51.035  1.00  0.00     0.019 C 
HETATM   15  C6  UNL     1      26.469   3.259  50.161  1.00  0.00     0.087 C 
BRANCH  15  16
HETATM   16  N2  UNL     1      27.088   4.437  49.681  1.00  0.00    -0.376 N 
HETATM   17  H11 UNL     1      27.043   5.289  50.320  1.00  0.00     0.164 HD
BRANCH  16  18
HETATM   18  C5  UNL     1      27.814   4.981  48.587  1.00  0.00     0.085 C 
HETATM   19  C4  UNL     1      27.747   6.231  48.161  1.00  0.00     0.009 C 
BRANCH  19  20
HETATM   20  C3  UNL     1      26.868   7.184  48.831  1.00  0.00     0.144 C 
BRANCH  20  21
HETATM   21  N1  UNL     1      27.452   8.285  49.485  1.00  0.00    -0.418 N 
HETATM   22  C1  UNL     1      26.501   9.243  50.018  1.00  0.00     0.142 C 
HETATM   23  C2  UNL     1      28.669   8.822  49.009  1.00  0.00     0.142 C 
ENDBRANCH  20  21
ENDBRANCH  19  20
ENDBRANCH  16  18
ENDBRANCH  15  16
ENDBRANCH   1  14
TORSDOF 8
ENDMDL
MODEL 2
REMARK VINA RESULT:      -6.7      1.300      1.725
REMARK  8 active torsions:
REMARK  status: ('A' for Active; 'I' for Inactive)
REMARK    1  A    between atoms: N1_2  and  C3_4 
REMARK    2  A    between atoms: C3_4  and  C4_5 
REMARK    3  A    between atoms: C5_6  and  N2_7 
REMARK    4  A    between atoms: N2_7  and  C6_8 
REMARK    5  A    between atoms: C7_9  and  C8_10 
REMARK    6  A    between atoms: C9_11  and  S1_13 
REMARK    7  A    between atoms: S1_13  and  N3_14 
REMARK    8  A    between atoms: N3_14  and  C10_15 
ROOT
HETATM    1  C8  UNL     1      24.673   1.892  51.337  1.00  0.00     0.034 C 
HETATM    2  C9  UNL     1      24.203   1.972  52.593  1.00  0.00     0.091 C 
HETATM    3 CL1  UNL     1      24.451   3.483  53.435  1.00  0.00    -0.075 Cl
ENDROOT
BRANCH   2   4
HETATM    4  S1  UNL     1      23.416   0.413  52.966  1.00  0.00    -0.002 SA
BRANCH   4   5
HETATM    5  N3  UNL     1      24.477  -0.511  54.054  1.00  0.00    -0.325 N 
HETATM    6  H15 UNL     1      23.764  -1.004  54.666  1.00  0.00     0.174 HD
BRANCH   5   7
HETATM    7  C10 UNL     1      25.913  -0.480  53.998  1.00  0.00     0.038 A 
HETATM    8  C11 UNL     1      26.454  -1.220  52.947  1.00  0.00     0.033 A 
HETATM    9  C12 UNL     1      27.834  -1.215  52.879  1.00  0.00     0.044 A 
HETATM   10  C13 UNL     1      28.576  -0.524  53.794  1.00  0.00     0.116 A 
HETATM   11  F1  UNL     1      29.937  -0.534  53.711  1.00  0.00    -0.206 F 
HETATM   12  C14 UNL     1      28.021   0.201  54.822  1.00  0.00     0.044 A 
HETATM   13  C15 UNL     1      26.650   0.210  54.909  1.00  0.00     0.033 A 
ENDBRANCH   5   7
ENDBRANCH   4   5
ENDBRANCH   2   4
BRANCH   1  14
HETATM   14  C7  UNL     1      25.303   3.207  51.030  1.00  0.00     0.019 C 
HETATM   15  C6  UNL     1      26.259   3.307  50.098  1.00  0.00     0.087 C 
BRANCH  15  16
HETATM   16  N2  UNL     1      26.971   4.449  49.660  1.00  0.00    -0.376 N 
HETATM   17  H11 UNL     1      27.926   4.611  50.104  1.00  0.00     0.164 HD
BRANCH  16  18
HETATM   18  C5  UNL     1      26.909   5.564  48.782  1.00  0.00     0.085 C 
HETATM   19  C4  UNL     1      27.938   6.117  48.162  1.00  0.00     0.009 C 
BRANCH  19  20
HETATM   20  C3  UNL     1      29.281   5.580  48.356  1.00  0.00     0.144 C 
BRANCH  20  21
HETATM   21  N1  UNL     1      30.348   6.487  48.501  1.00  0.00    -0.418 N 
HETATM   22  C1  UNL     1      31.485   5.966  49.236  1.00  0.00     0.142 C 
HETATM   23  C2  UNL     1      30.083   7.864  48.667  1.00  0.00     0.142 C 
ENDBRANCH  20  21
ENDBRANCH  19  20
ENDBRANCH  16  18
ENDBRANCH  15  16
ENDBRANCH   1  14
TORSDOF 8
ENDMDL
MODEL 3
REMARK VINA RESULT:      -6.5      1.324      2.002
REMARK  8 active torsions:
REMARK  status: ('A' for Active; 'I' for Inactive)
REMARK    1  A    between atoms: N1_2  and  C3_4 
REMARK    2  A    between atoms: C3_4  and  C4_5 
REMARK    3  A    between atoms: C5_6  and  N2_7 
REMARK    4  A    between atoms: N2_7  and  C6_8 
REMARK    5  A    between atoms: C7_9  and  C8_10 
REMARK    6  A    between atoms: C9_11  and  S1_13 
REMARK    7  A    between atoms: S1_13  and  N3_14 
REMARK    8  A    between atoms: N3_14  and  C10_15 
ROOT
HETATM    1  C8  UNL     1      24.233   1.645  51.403  1.00  0.00     0.034 C 
HETATM    2  C9  UNL     1      23.952   1.796  52.708  1.00  0.00     0.091 C 
HETATM    3 CL1  UNL     1      24.350   3.338  53.428  1.00  0.00    -0.075 Cl
ENDROOT
BRANCH   2   4
HETATM    4  S1  UNL     1      23.197   0.279  53.269  1.00  0.00    -0.002 SA
BRANCH   4   5
HETATM    5  N3  UNL     1      24.386  -0.620  54.240  1.00  0.00    -0.325 N 
HETATM    6  H15 UNL     1      23.754  -1.115  54.934  1.00  0.00     0.174 HD
BRANCH   5   7
HETATM    7  C10 UNL     1      25.807  -0.573  54.020  1.00  0.00     0.038 A 
HETATM    8  C11 UNL     1      26.500   0.190  54.959  1.00  0.00     0.033 A 
HETATM    9  C12 UNL     1      27.865   0.259  54.761  1.00  0.00     0.044 A 
HETATM   10  C13 UNL     1      28.452  -0.387  53.711  1.00  0.00     0.116 A 
HETATM   11  F1  UNL     1      29.802  -0.304  53.531  1.00  0.00    -0.206 F 
HETATM   12  C14 UNL     1      27.749  -1.136  52.797  1.00  0.00     0.044 A 
HETATM   13  C15 UNL     1      26.389  -1.218  52.974  1.00  0.00     0.033 A 
ENDBRANCH   5   7
ENDBRANCH   4   5
ENDBRANCH   2   4
BRANCH   1  14
HETATM   14  C7  UNL     1      24.836   2.926  50.942  1.00  0.00     0.019 C 
HETATM   15  C6  UNL     1      26.113   2.977  50.539  1.00  0.00     0.087 C 
BRANCH  15  16
HETATM   16  N2  UNL     1      26.863   4.079  50.067  1.00  0.00    -0.376 N 
HETATM   17  H11 UNL     1      27.475   4.577  50.783  1.00  0.00     0.164 HD
BRANCH  16  18
HETATM   18  C5  UNL     1      27.149   4.853  48.910  1.00  0.00     0.085 C 
HETATM   19  C4  UNL     1      26.766   6.101  48.701  1.00  0.00     0.009 C 
BRANCH  19  20
HETATM   20  C3  UNL     1      25.975   6.800  49.709  1.00  0.00     0.144 C 
BRANCH  20  21
HETATM   21  N1  UNL     1      24.573   6.764  49.601  1.00  0.00    -0.418 N 
HETATM   22  C1  UNL     1      24.071   6.825  48.241  1.00  0.00     0.142 C 
HETATM   23  C2  UNL     1      23.775   7.394  50.583  1.00  0.00     0.142 C 
ENDBRANCH  20  21
ENDBRANCH  19  20
ENDBRANCH  16  18
ENDBRANCH  15  16
ENDBRANCH   1  14
TORSDOF 8
ENDMDL
MODEL 4
REMARK VINA RESULT:      -6.3      2.912      3.703
REMARK  8 active torsions:
REMARK  status: ('A' for Active; 'I' for Inactive)
REMARK    1  A    between atoms: N1_2  and  C3_4 
REMARK    2  A    between atoms: C3_4  and  C4_5 
REMARK    3  A    between atoms: C5_6  and  N2_7 
REMARK    4  A    between atoms: N2_7  and  C6_8 
REMARK    5  A    between atoms: C7_9  and  C8_10 
REMARK    6  A    between atoms: C9_11  and  S1_13 
REMARK    7  A    between atoms: S1_13  and  N3_14 
REMARK    8  A    between atoms: N3_14  and  C10_15 
ROOT
HETATM    1  C8  UNL     1      23.229   2.612  52.660  1.00  0.00     0.034 C 
HETATM    2  C9  UNL     1      24.029   1.582  52.339  1.00  0.00     0.091 C 
HETATM    3 CL1  UNL     1      25.457   1.953  51.403  1.00  0.00    -0.075 Cl
ENDROOT
BRANCH   2   4
HETATM    4  S1  UNL     1      23.315   0.111  53.055  1.00  0.00    -0.002 SA
BRANCH   4   5
HETATM    5  N3  UNL     1      24.480  -0.581  54.207  1.00  0.00    -0.325 N 
HETATM    6  H15 UNL     1      23.831  -0.940  54.966  1.00  0.00     0.174 HD
BRANCH   5   7
HETATM    7  C10 UNL     1      25.905  -0.569  54.017  1.00  0.00     0.038 A 
HETATM    8  C11 UNL     1      26.596   0.179  54.970  1.00  0.00     0.033 A 
HETATM    9  C12 UNL     1      27.967   0.216  54.801  1.00  0.00     0.044 A 
HETATM   10  C13 UNL     1      28.561  -0.445  53.764  1.00  0.00     0.116 A 
HETATM   11  F1  UNL     1      29.916  -0.394  53.613  1.00  0.00    -0.206 F 
HETATM   12  C14 UNL     1      27.860  -1.178  52.836  1.00  0.00     0.044 A 
HETATM   13  C15 UNL     1      26.495  -1.228  52.984  1.00  0.00     0.033 A 
ENDBRANCH   5   7
ENDBRANCH   4   5
ENDBRANCH   2   4
BRANCH   1  14
HETATM   14  C7  UNL     1      23.849   3.835  52.080  1.00  0.00     0.019 C 
HETATM   15  C6  UNL     1      23.604   5.043  52.604  1.00  0.00     0.087 C 
BRANCH  15  16
HETATM   16  N2  UNL     1      24.092   6.310  52.208  1.00  0.00    -0.376 N 
HETATM   17  H11 UNL     1      24.332   6.991  52.992  1.00  0.00     0.164 HD
BRANCH  16  18
HETATM   18  C5  UNL     1      24.421   7.104  51.076  1.00  0.00     0.085 C 
HETATM   19  C4  UNL     1      23.556   7.691  50.266  1.00  0.00     0.009 C 
BRANCH  19  20
HETATM   20  C3  UNL     1      22.123   7.547  50.502  1.00  0.00     0.144 C 
BRANCH  20  21
HETATM   21  N1  UNL     1      21.397   6.661  49.685  1.00  0.00    -0.418 N 
HETATM   22  C1  UNL     1      20.698   5.613  50.405  1.00  0.00     0.142 C 
HETATM   23  C2  UNL     1      21.898   6.307  48.412  1.00  0.00     0.142 C 
ENDBRANCH  20  21
ENDBRANCH  19  20
ENDBRANCH  16  18
ENDBRANCH  15  16
ENDBRANCH   1  14
TORSDOF 8
ENDMDL
MODEL 5
REMARK VINA RESULT:      -6.3      3.290      4.278
REMARK  8 active torsions:
REMARK  status: ('A' for Active; 'I' for Inactive)
REMARK    1  A    between atoms: N1_2  and  C3_4 
REMARK    2  A    between atoms: C3_4  and  C4_5 
REMARK    3  A    between atoms: C5_6  and  N2_7 
REMARK    4  A    between atoms: N2_7  and  C6_8 
REMARK    5  A    between atoms: C7_9  and  C8_10 
REMARK    6  A    between atoms: C9_11  and  S1_13 
REMARK    7  A    between atoms: S1_13  and  N3_14 
REMARK    8  A    between atoms: N3_14  and  C10_15 
ROOT
HETATM    1  C8  UNL     1      26.999   4.120  49.359  1.00  0.00     0.034 C 
HETATM    2  C9  UNL     1      25.693   4.382  49.535  1.00  0.00     0.091 C 
HETATM    3 CL1  UNL     1      25.067   5.823  48.769  1.00  0.00    -0.075 Cl
ENDROOT
BRANCH   2   4
HETATM    4  S1  UNL     1      25.015   3.064  50.529  1.00  0.00    -0.002 SA
BRANCH   4   5
HETATM    5  N3  UNL     1      25.974   2.929  52.021  1.00  0.00    -0.325 N 
HETATM    6  H15 UNL     1      25.830   3.890  52.447  1.00  0.00     0.174 HD
BRANCH   5   7
HETATM    7  C10 UNL     1      26.708   1.753  52.404  1.00  0.00     0.038 A 
HETATM    8  C11 UNL     1      27.884   2.022  53.103  1.00  0.00     0.033 A 
HETATM    9  C12 UNL     1      28.612   0.907  53.471  1.00  0.00     0.044 A 
HETATM   10  C13 UNL     1      28.177  -0.348  53.152  1.00  0.00     0.116 A 
HETATM   11  F1  UNL     1      28.913  -1.436  53.522  1.00  0.00    -0.206 F 
HETATM   12  C14 UNL     1      27.013  -0.590  52.463  1.00  0.00     0.044 A 
HETATM   13  C15 UNL     1      26.273   0.504  52.086  1.00  0.00     0.033 A 
ENDBRANCH   5   7
ENDBRANCH   4   5
ENDBRANCH   2   4
BRANCH   1  14
HETATM   14  C7  UNL     1      27.546   5.212  48.506  1.00  0.00     0.019 C 
HETATM   15  C6  UNL     1      28.867   5.413  48.413  1.00  0.00     0.087 C 
BRANCH  15  16
HETATM   16  N2  UNL     1      29.578   6.379  47.665  1.00  0.00    -0.376 N 
HETATM   17  H11 UNL     1      29.515   6.297  46.604  1.00  0.00     0.164 HD
BRANCH  16  18
HETATM   18  C5  UNL     1      30.417   7.521  47.779  1.00  0.00     0.085 C 
HETATM   19  C4  UNL     1      31.582   7.564  48.403  1.00  0.00     0.009 C 
BRANCH  19  20
HETATM   20  C3  UNL     1      32.106   6.367  49.052  1.00  0.00     0.144 C 
BRANCH  20  21
HETATM   21  N1  UNL     1      33.065   5.600  48.364  1.00  0.00    -0.418 N 
HETATM   22  C1  UNL     1      32.581   4.317  47.888  1.00  0.00     0.142 C 
HETATM   23  C2  UNL     1      34.418   5.638  48.768  1.00  0.00     0.142 C 
ENDBRANCH  20  21
ENDBRANCH  19  20
ENDBRANCH  16  18
ENDBRANCH  15  16
ENDBRANCH   1  14
TORSDOF 8
ENDMDL
MODEL 6
REMARK VINA RESULT:      -6.3      2.176      2.880
REMARK  8 active torsions:
REMARK  status: ('A' for Active; 'I' for Inactive)
REMARK    1  A    between atoms: N1_2  and  C3_4 
REMARK    2  A    between atoms: C3_4  and  C4_5 
REMARK    3  A    between atoms: C5_6  and  N2_7 
REMARK    4  A    between atoms: N2_7  and  C6_8 
REMARK    5  A    between atoms: C7_9  and  C8_10 
REMARK    6  A    between atoms: C9_11  and  S1_13 
REMARK    7  A    between atoms: S1_13  and  N3_14 
REMARK    8  A    between atoms: N3_14  and  C10_15 
ROOT
HETATM    1  C8  UNL     1      26.874   4.016  49.349  1.00  0.00     0.034 C 
HETATM    2  C9  UNL     1      25.846   4.262  50.178  1.00  0.00     0.091 C 
HETATM    3 CL1  UNL     1      25.198   5.885  50.171  1.00  0.00    -0.075 Cl
ENDROOT
BRANCH   2   4
HETATM    4  S1  UNL     1      25.468   2.737  51.024  1.00  0.00    -0.002 SA
BRANCH   4   5
HETATM    5  N3  UNL     1      26.489   2.626  52.476  1.00  0.00    -0.325 N 
HETATM    6  H15 UNL     1      26.303   3.566  52.931  1.00  0.00     0.174 HD
BRANCH   5   7
HETATM    7  C10 UNL     1      27.307   1.488  52.802  1.00  0.00     0.038 A 
HETATM    8  C11 UNL     1      26.719   0.262  52.493  1.00  0.00     0.033 A 
HETATM    9  C12 UNL     1      27.482  -0.846  52.808  1.00  0.00     0.044 A 
HETATM   10  C13 UNL     1      28.714  -0.706  53.379  1.00  0.00     0.116 A 
HETATM   11  F1  UNL     1      29.450  -1.814  53.685  1.00  0.00    -0.206 F 
HETATM   12  C14 UNL     1      29.275   0.514  53.674  1.00  0.00     0.044 A 
HETATM   13  C15 UNL     1      28.534   1.630  53.370  1.00  0.00     0.033 A 
ENDBRANCH   5   7
ENDBRANCH   4   5
ENDBRANCH   2   4
BRANCH   1  14
HETATM   14  C7  UNL     1      27.162   5.288  48.630  1.00  0.00     0.019 C 
HETATM   15  C6  UNL     1      28.422   5.654  48.362  1.00  0.00     0.087 C 
BRANCH  15  16
HETATM   16  N2  UNL     1      28.900   6.806  47.695  1.00  0.00    -0.376 N 
HETATM   17  H11 UNL     1      29.889   7.119  47.940  1.00  0.00     0.164 HD
BRANCH  16  18
HETATM   18  C5  UNL     1      28.552   7.798  46.739  1.00  0.00     0.085 C 
HETATM   19  C4  UNL     1      28.438   9.094  46.977  1.00  0.00     0.009 C 
BRANCH  19  20
HETATM   20  C3  UNL     1      28.676   9.612  48.320  1.00  0.00     0.144 C 
BRANCH  20  21
HETATM   21  N1  UNL     1      27.564   9.983  49.100  1.00  0.00    -0.418 N 
HETATM   22  C1  UNL     1      27.214   9.036  50.141  1.00  0.00     0.142 C 
HETATM   23  C2  UNL     1      26.484  10.671  48.502  1.00  0.00     0.142 C 
ENDBRANCH  20  21
ENDBRANCH  19  20
ENDBRANCH  16  18
ENDBRANCH  15  16
ENDBRANCH   1  14
TORSDOF 8
ENDMDL
MODEL 7
REMARK VINA RESULT:      -6.2      2.195      3.072
REMARK  8 active torsions:
REMARK  status: ('A' for Active; 'I' for Inactive)
REMARK    1  A    between atoms: N1_2  and  C3_4 
REMARK    2  A    between atoms: C3_4  and  C4_5 
REMARK    3  A    between atoms: C5_6  and  N2_7 
REMARK    4  A    between atoms: N2_7  and  C6_8 
REMARK    5  A    between atoms: C7_9  and  C8_10 
REMARK    6  A    between atoms: C9_11  and  S1_13 
REMARK    7  A    between atoms: S1_13  and  N3_14 
REMARK    8  A    between atoms: N3_14  and  C10_15 
ROOT
HETATM    1  C8  UNL     1      26.645   3.681  49.700  1.00  0.00     0.034 C 
HETATM    2  C9  UNL     1      25.551   3.945  50.433  1.00  0.00     0.091 C 
HETATM    3 CL1  UNL     1      24.795   5.502  50.191  1.00  0.00    -0.075 Cl
ENDROOT
BRANCH   2   4
HETATM    4  S1  UNL     1      25.223   2.505  51.436  1.00  0.00    -0.002 SA
BRANCH   4   5
HETATM    5  N3  UNL     1      26.456   2.412  52.715  1.00  0.00    -0.325 N 
HETATM    6  H15 UNL     1      26.366   3.372  53.157  1.00  0.00     0.174 HD
BRANCH   5   7
HETATM    7  C10 UNL     1      27.286   1.262  52.951  1.00  0.00     0.038 A 
HETATM    8  C11 UNL     1      28.552   1.571  53.448  1.00  0.00     0.033 A 
HETATM    9  C12 UNL     1      29.372   0.482  53.672  1.00  0.00     0.044 A 
HETATM   10  C13 UNL     1      28.937  -0.786  53.412  1.00  0.00     0.116 A 
HETATM   11  F1  UNL     1      29.763  -1.848  53.637  1.00  0.00    -0.206 F 
HETATM   12  C14 UNL     1      27.683  -1.068  52.923  1.00  0.00     0.044 A 
HETATM   13  C15 UNL     1      26.850   0.001  52.692  1.00  0.00     0.033 A 
ENDBRANCH   5   7
ENDBRANCH   4   5
ENDBRANCH   2   4
BRANCH   1  14
HETATM   14  C7  UNL     1      26.892   4.879  48.850  1.00  0.00     0.019 C 
HETATM   15  C6  UNL     1      28.138   5.239  48.517  1.00  0.00     0.087 C 
BRANCH  15  16
HETATM   16  N2  UNL     1      28.579   6.325  47.726  1.00  0.00    -0.376 N 
HETATM   17  H11 UNL     1      29.534   6.219  47.265  1.00  0.00     0.164 HD
BRANCH  16  18
HETATM   18  C5  UNL     1      28.217   7.618  47.259  1.00  0.00     0.085 C 
HETATM   19  C4  UNL     1      28.629   8.766  47.769  1.00  0.00     0.009 C 
BRANCH  19  20
HETATM   20  C3  UNL     1      29.534   8.774  48.913  1.00  0.00     0.144 C 
BRANCH  20  21
HETATM   21  N1  UNL     1      30.919   8.849  48.668  1.00  0.00    -0.418 N 
HETATM   22  C1  UNL     1      31.734   8.062  49.575  1.00  0.00     0.142 C 
HETATM   23  C2  UNL     1      31.489  10.060  48.218  1.00  0.00     0.142 C 
ENDBRANCH  20  21
ENDBRANCH  19  20
ENDBRANCH  16  18
ENDBRANCH  15  16
ENDBRANCH   1  14
TORSDOF 8
ENDMDL
MODEL 8
REMARK VINA RESULT:      -6.1      3.782      5.310
REMARK  8 active torsions:
REMARK  status: ('A' for Active; 'I' for Inactive)
REMARK    1  A    between atoms: N1_2  and  C3_4 
REMARK    2  A    between atoms: C3_4  and  C4_5 
REMARK    3  A    between atoms: C5_6  and  N2_7 
REMARK    4  A    between atoms: N2_7  and  C6_8 
REMARK    5  A    between atoms: C7_9  and  C8_10 
REMARK    6  A    between atoms: C9_11  and  S1_13 
REMARK    7  A    between atoms: S1_13  and  N3_14 
REMARK    8  A    between atoms: N3_14  and  C10_15 
ROOT
HETATM    1  C8  UNL     1      26.210   5.555  49.221  1.00  0.00     0.034 C 
HETATM    2  C9  UNL     1      25.693   4.477  49.833  1.00  0.00     0.091 C 
HETATM    3 CL1  UNL     1      26.605   2.991  49.719  1.00  0.00    -0.075 Cl
ENDROOT
BRANCH   2   4
HETATM    4  S1  UNL     1      24.175   4.990  50.621  1.00  0.00    -0.002 SA
BRANCH   4   5
HETATM    5  N3  UNL     1      24.159   4.359  52.284  1.00  0.00    -0.325 N 
HETATM    6  H15 UNL     1      24.185   5.259  52.846  1.00  0.00     0.174 HD
BRANCH   5   7
HETATM    7  C10 UNL     1      24.129   2.960  52.615  1.00  0.00     0.038 A 
HETATM    8  C11 UNL     1      22.896   2.350  52.386  1.00  0.00     0.033 A 
HETATM    9  C12 UNL     1      22.840   1.008  52.708  1.00  0.00     0.044 A 
HETATM   10  C13 UNL     1      23.934   0.365  53.211  1.00  0.00     0.116 A 
HETATM   11  F1  UNL     1      23.857  -0.961  53.526  1.00  0.00    -0.206 F 
HETATM   12  C14 UNL     1      25.141   0.985  53.428  1.00  0.00     0.044 A 
HETATM   13  C15 UNL     1      25.220   2.321  53.115  1.00  0.00     0.033 A 
ENDBRANCH   5   7
ENDBRANCH   4   5
ENDBRANCH   2   4
BRANCH   1  14
HETATM   14  C7  UNL     1      27.488   5.120  48.591  1.00  0.00     0.019 C 
HETATM   15  C6  UNL     1      28.462   6.003  48.335  1.00  0.00     0.087 C 
BRANCH  15  16
HETATM   16  N2  UNL     1      29.734   5.794  47.754  1.00  0.00    -0.376 N 
HETATM   17  H11 UNL     1      29.981   4.789  47.503  1.00  0.00     0.164 HD
BRANCH  16  18
HETATM   18  C5  UNL     1      30.919   6.456  47.332  1.00  0.00     0.085 C 
HETATM   19  C4  UNL     1      32.149   5.984  47.443  1.00  0.00     0.009 C 
BRANCH  19  20
HETATM   20  C3  UNL     1      32.375   4.673  48.043  1.00  0.00     0.144 C 
BRANCH  20  21
HETATM   21  N1  UNL     1      33.068   3.705  47.291  1.00  0.00    -0.418 N 
HETATM   22  C1  UNL     1      32.215   2.767  46.585  1.00  0.00     0.142 C 
HETATM   23  C2  UNL     1      34.292   3.188  47.768  1.00  0.00     0.142 C 
ENDBRANCH  20  21
ENDBRANCH  19  20
ENDBRANCH  16  18
ENDBRANCH  15  16
ENDBRANCH   1  14
TORSDOF 8
ENDMDL
MODEL 9
REMARK VINA RESULT:      -5.9      4.814      8.146
REMARK  8 active torsions:
REMARK  status: ('A' for Active; 'I' for Inactive)
REMARK    1  A    between atoms: N1_2  and  C3_4 
REMARK    2  A    between atoms: C3_4  and  C4_5 
REMARK    3  A    between atoms: C5_6  and  N2_7 
REMARK    4  A    between atoms: N2_7  and  C6_8 
REMARK    5  A    between atoms: C7_9  and  C8_10 
REMARK    6  A    between atoms: C9_11  and  S1_13 
REMARK    7  A    between atoms: S1_13  and  N3_14 
REMARK    8  A    between atoms: N3_14  and  C10_15 
ROOT
HETATM    1  C8  UNL     1      28.314   4.973  48.543  1.00  0.00     0.034 C 
HETATM    2  C9  UNL     1      28.277   6.252  48.135  1.00  0.00     0.091 C 
HETATM    3 CL1  UNL     1      26.722   7.047  48.168  1.00  0.00    -0.075 Cl
ENDROOT
BRANCH   2   4
HETATM    4  S1  UNL     1      29.945   6.721  47.704  1.00  0.00    -0.002 SA
BRANCH   4   5
HETATM    5  N3  UNL     1      31.075   5.642  48.555  1.00  0.00    -0.325 N 
HETATM    6  H15 UNL     1      30.701   5.693  49.546  1.00  0.00     0.174 HD
BRANCH   5   7
HETATM    7  C10 UNL     1      32.170   4.959  47.919  1.00  0.00     0.038 A 
HETATM    8  C11 UNL     1      31.775   3.944  47.049  1.00  0.00     0.033 A 
HETATM    9  C12 UNL     1      32.811   3.266  46.436  1.00  0.00     0.044 A 
HETATM   10  C13 UNL     1      34.111   3.597  46.692  1.00  0.00     0.116 A 
HETATM   11  F1  UNL     1      35.119   2.913  46.079  1.00  0.00    -0.206 F 
HETATM   12  C14 UNL     1      34.477   4.603  47.554  1.00  0.00     0.044 A 
HETATM   13  C15 UNL     1      33.463   5.291  48.175  1.00  0.00     0.033 A 
ENDBRANCH   5   7
ENDBRANCH   4   5
ENDBRANCH   2   4
BRANCH   1  14
HETATM   14  C7  UNL     1      26.923   4.603  48.924  1.00  0.00     0.019 C 
HETATM   15  C6  UNL     1      26.693   3.697  49.884  1.00  0.00     0.087 C 
BRANCH  15  16
HETATM   16  N2  UNL     1      25.462   3.217  50.390  1.00  0.00    -0.376 N 
HETATM   17  H11 UNL     1      24.763   2.856  49.671  1.00  0.00     0.164 HD
BRANCH  16  18
HETATM   18  C5  UNL     1      24.725   3.005  51.586  1.00  0.00     0.085 C 
HETATM   19  C4  UNL     1      24.961   2.063  52.482  1.00  0.00     0.009 C 
BRANCH  19  20
HETATM   20  C3  UNL     1      26.061   1.125  52.283  1.00  0.00     0.144 C 
BRANCH  20  21
HETATM   21  N1  UNL     1      27.111   1.117  53.221  1.00  0.00    -0.418 N 
HETATM   22  C1  UNL     1      26.775   0.512  54.496  1.00  0.00     0.142 C 
HETATM   23  C2  UNL     1      28.018   2.199  53.271  1.00  0.00     0.142 C 
ENDBRANCH  20  21
ENDBRANCH  19  20
ENDBRANCH  16  18
ENDBRANCH  15  16
ENDBRANCH   1  14
TORSDOF 8
ENDMDL
