MODEL 1
REMARK VINA RESULT:      -8.3      0.000      0.000
REMARK  0 active torsions:
REMARK  status: ('A' for Active; 'I' for Inactive)
ROOT
HETATM    1  C1  UNL     1      26.022   2.107  52.782  1.00  0.00     0.062 C 
HETATM    2  C2  UNL     1      24.692   1.958  52.141  1.00  0.00     0.100 C 
HETATM    3  C3  UNL     1      23.824   1.125  52.850  1.00  0.00     0.062 C 
HETATM    4  C4  UNL     1      22.694   0.296  52.328  1.00  0.00     0.026 C 
HETATM    5  C5  UNL     1      22.670  -1.040  53.106  1.00  0.00    -0.009 C 
HETATM    6  C6  UNL     1      22.406  -0.979  54.354  1.00  0.00    -0.030 C 
HETATM    7  C7  UNL     1      21.541  -0.141  54.867  1.00  0.00     0.009 C 
HETATM    8  C8  UNL     1      20.727   0.574  53.862  1.00  0.00    -0.014 C 
HETATM    9  C9  UNL     1      21.267   0.776  52.669  1.00  0.00    -0.001 A 
HETATM   10  C10 UNL     1      20.309   1.427  51.629  1.00  0.00     0.065 A 
HETATM   11  C11 UNL     1      21.343   1.745  50.578  1.00  0.00    -0.024 A 
HETATM   12 BR1  UNL     1      21.556   1.357  48.737  1.00  0.00    -0.060 Br
HETATM   13  C12 UNL     1      21.650   2.265  51.776  1.00  0.00     0.049 A 
HETATM   14  C13 UNL     1      22.533   3.001  52.613  1.00  0.00    -0.016 C 
HETATM   15  C14 UNL     1      23.553   3.662  53.083  1.00  0.00     0.131 C 
HETATM   16  N1  UNL     1      24.262   3.495  51.929  1.00  0.00    -0.331 N 
HETATM   17  C15 UNL     1      25.089   3.433  50.496  1.00  0.00     0.309 A 
HETATM   18  C16 UNL     1      26.418   2.658  50.520  1.00  0.00     0.141 A 
HETATM   19  C17 UNL     1      25.501   3.427  50.061  1.00  0.00     0.299 A 
HETATM   20  N2  UNL     1      24.599   4.208  49.568  1.00  0.00     0.099 N 
HETATM   21  C18 UNL     1      23.733   4.939  49.128  1.00  0.00     0.372 A 
HETATM   22  N3  UNL     1      23.924   4.207  50.298  1.00  0.00    -0.041 NA
HETATM   23  N4  UNL     1      24.719   1.940  50.655  1.00  0.00    -0.358 N 
HETATM   24  H17 UNL     1      24.154   1.050  50.342  1.00  0.00     0.158 HD
ENDROOT
TORSDOF 0
ENDMDL
MODEL 2
REMARK VINA RESULT:      -8.0      2.449      4.319
REMARK  0 active torsions:
REMARK  status: ('A' for Active; 'I' for Inactive)
ROOT
HETATM    1  C1  UNL     1      18.175   1.549  51.499  1.00  0.00     0.062 C 
HETATM    2  C2  UNL     1      19.608   1.845  51.744  1.00  0.00     0.100 C 
HETATM    3  C3  UNL     1      20.241   0.897  52.550  1.00  0.00     0.062 C 
HETATM    4  C4  UNL     1      21.417   1.081  53.457  1.00  0.00     0.026 C 
HETATM    5  C5  UNL     1      21.188   0.232  54.728  1.00  0.00    -0.009 C 
HETATM    6  C6  UNL     1      21.155  -1.036  54.582  1.00  0.00    -0.030 C 
HETATM    7  C7  UNL     1      21.918  -1.683  53.739  1.00  0.00     0.009 C 
HETATM    8  C8  UNL     1      22.981  -0.855  53.132  1.00  0.00    -0.014 C 
HETATM    9  C9  UNL     1      22.747   0.443  53.002  1.00  0.00    -0.001 A 
HETATM   10  C10 UNL     1      23.955   1.266  52.467  1.00  0.00     0.065 A 
HETATM   11  C11 UNL     1      23.214   2.551  52.193  1.00  0.00    -0.024 A 
HETATM   12 BR1  UNL     1      23.418   4.361  52.713  1.00  0.00    -0.060 Br
HETATM   13  C12 UNL     1      22.663   1.497  51.573  1.00  0.00     0.049 A 
HETATM   14  C13 UNL     1      21.648   0.944  50.745  1.00  0.00    -0.016 C 
HETATM   15  C14 UNL     1      20.582   0.774  50.015  1.00  0.00     0.131 C 
HETATM   16  N1  UNL     1      20.156   2.049  50.244  1.00  0.00    -0.331 N 
HETATM   17  C15 UNL     1      19.685   3.630  50.385  1.00  0.00     0.309 A 
HETATM   18  C16 UNL     1      18.349   3.871  51.109  1.00  0.00     0.141 A 
HETATM   19  C17 UNL     1      19.386   4.149  50.410  1.00  0.00     0.299 A 
HETATM   20  N2  UNL     1      20.418   4.464  49.702  1.00  0.00     0.099 N 
HETATM   21  C18 UNL     1      21.400   4.734  49.037  1.00  0.00     0.372 A 
HETATM   22  N3  UNL     1      20.903   3.597  49.671  1.00  0.00    -0.041 NA
HETATM   23  N4  UNL     1      19.928   3.291  51.874  1.00  0.00    -0.358 N 
HETATM   24  H17 UNL     1      20.503   3.401  52.805  1.00  0.00     0.158 HD
ENDROOT
TORSDOF 0
ENDMDL
MODEL 3
REMARK VINA RESULT:      -7.9      1.681      3.601
REMARK  0 active torsions:
REMARK  status: ('A' for Active; 'I' for Inactive)
ROOT
HETATM    1  C1  UNL     1      25.088   5.530  49.686  1.00  0.00     0.062 C 
HETATM    2  C2  UNL     1      24.367   4.365  50.254  1.00  0.00     0.100 C 
HETATM    3  C3  UNL     1      25.173   3.546  51.048  1.00  0.00     0.062 C 
HETATM    4  C4  UNL     1      25.032   2.081  51.318  1.00  0.00     0.026 C 
HETATM    5  C5  UNL     1      26.446   1.458  51.362  1.00  0.00    -0.009 C 
HETATM    6  C6  UNL     1      27.218   1.834  52.307  1.00  0.00    -0.030 C 
HETATM    7  C7  UNL     1      26.798   2.089  53.521  1.00  0.00     0.009 C 
HETATM    8  C8  UNL     1      25.398   1.687  53.770  1.00  0.00    -0.014 C 
HETATM    9  C9  UNL     1      24.569   1.680  52.736  1.00  0.00    -0.001 A 
HETATM   10  C10 UNL     1      23.147   1.132  53.051  1.00  0.00     0.065 A 
HETATM   11  C11 UNL     1      22.480   1.563  51.769  1.00  0.00    -0.024 A 
HETATM   12 BR1  UNL     1      21.487   0.695  50.409  1.00  0.00    -0.060 Br
HETATM   13  C12 UNL     1      23.074   2.582  52.406  1.00  0.00     0.049 A 
HETATM   14  C13 UNL     1      23.430   3.957  52.474  1.00  0.00    -0.016 C 
HETATM   15  C14 UNL     1      23.611   5.218  52.200  1.00  0.00     0.131 C 
HETATM   16  N1  UNL     1      23.098   5.076  50.944  1.00  0.00    -0.331 N 
HETATM   17  C15 UNL     1      22.351   4.968  49.471  1.00  0.00     0.309 A 
HETATM   18  C16 UNL     1      23.237   5.251  48.246  1.00  0.00     0.141 A 
HETATM   19  C17 UNL     1      22.160   5.041  48.908  1.00  0.00     0.299 A 
HETATM   20  N2  UNL     1      21.056   4.834  49.543  1.00  0.00     0.099 N 
HETATM   21  C18 UNL     1      20.030   4.636  50.165  1.00  0.00     0.372 A 
HETATM   22  N3  UNL     1      21.387   4.713  50.472  1.00  0.00    -0.041 NA
HETATM   23  N4  UNL     1      23.333   3.779  49.359  1.00  0.00    -0.358 N 
HETATM   24  H17 UNL     1      23.537   2.699  49.312  1.00  0.00     0.158 HD
ENDROOT
TORSDOF 0
ENDMDL
MODEL 4
REMARK VINA RESULT:      -7.9      9.248     11.254
REMARK  0 active torsions:
REMARK  status: ('A' for Active; 'I' for Inactive)
ROOT
HETATM    1  C1  UNL     1      31.592   4.224  47.335  1.00  0.00     0.062 C 
HETATM    2  C2  UNL     1      31.734   5.694  47.483  1.00  0.00     0.100 C 
HETATM    3  C3  UNL     1      30.513   6.361  47.595  1.00  0.00     0.062 C 
HETATM    4  C4  UNL     1      30.182   7.768  47.208  1.00  0.00     0.026 C 
HETATM    5  C5  UNL     1      28.757   7.784  46.610  1.00  0.00    -0.009 C 
HETATM    6  C6  UNL     1      27.794   7.487  47.394  1.00  0.00    -0.030 C 
HETATM    7  C7  UNL     1      27.760   7.836  48.656  1.00  0.00     0.009 C 
HETATM    8  C8  UNL     1      28.814   8.797  49.043  1.00  0.00    -0.014 C 
HETATM    9  C9  UNL     1      29.950   8.767  48.362  1.00  0.00    -0.001 A 
HETATM   10  C10 UNL     1      30.963   9.885  48.746  1.00  0.00     0.065 A 
HETATM   11  C11 UNL     1      32.156   9.334  48.006  1.00  0.00    -0.024 A 
HETATM   12 BR1  UNL     1      33.357   9.999  46.702  1.00  0.00    -0.060 Br
HETATM   13  C12 UNL     1      31.625   8.446  48.860  1.00  0.00     0.049 A 
HETATM   14  C13 UNL     1      31.612   7.149  49.443  1.00  0.00    -0.016 C 
HETATM   15  C14 UNL     1      31.859   5.901  49.725  1.00  0.00     0.131 C 
HETATM   16  N1  UNL     1      32.768   5.794  48.714  1.00  0.00    -0.331 N 
HETATM   17  C15 UNL     1      33.977   5.673  47.589  1.00  0.00     0.309 A 
HETATM   18  C16 UNL     1      33.730   4.680  46.441  1.00  0.00     0.141 A 
HETATM   19  C17 UNL     1      34.382   5.493  47.187  1.00  0.00     0.299 A 
HETATM   20  N2  UNL     1      35.070   6.303  47.918  1.00  0.00     0.099 N 
HETATM   21  C18 UNL     1      35.695   7.073  48.623  1.00  0.00     0.372 A 
HETATM   22  N3  UNL     1      34.386   6.596  48.578  1.00  0.00    -0.041 NA
HETATM   23  N4  UNL     1      32.860   6.288  46.714  1.00  0.00    -0.358 N 
HETATM   24  H17 UNL     1      32.438   7.125  46.139  1.00  0.00     0.158 HD
ENDROOT
TORSDOF 0
ENDMDL
MODEL 5
REMARK VINA RESULT:      -7.7      1.540      1.915
REMARK  0 active torsions:
REMARK  status: ('A' for Active; 'I' for Inactive)
ROOT
HETATM    1  C1  UNL     1      25.790   1.780  51.490  1.00  0.00     0.062 C 
HETATM    2  C2  UNL     1      24.536   2.470  51.099  1.00  0.00     0.100 C 
HETATM    3  C3  UNL     1      23.382   1.798  51.508  1.00  0.00     0.062 C 
HETATM    4  C4  UNL     1      22.023   1.817  50.883  1.00  0.00     0.026 C 
HETATM    5  C5  UNL     1      21.424   0.395  50.978  1.00  0.00    -0.009 C 
HETATM    6  C6  UNL     1      21.177  -0.054  52.147  1.00  0.00    -0.030 C 
HETATM    7  C7  UNL     1      20.728   0.692  53.125  1.00  0.00     0.009 C 
HETATM    8  C8  UNL     1      20.313   2.047  52.706  1.00  0.00    -0.014 C 
HETATM    9  C9  UNL     1      20.918   2.574  51.652  1.00  0.00    -0.001 A 
HETATM   10  C10 UNL     1      20.346   3.949  51.199  1.00  0.00     0.065 A 
HETATM   11  C11 UNL     1      21.445   4.314  50.233  1.00  0.00    -0.024 A 
HETATM   12 BR1  UNL     1      21.524   4.806  48.406  1.00  0.00    -0.060 Br
HETATM   13  C12 UNL     1      21.910   4.037  51.460  1.00  0.00     0.049 A 
HETATM   14  C13 UNL     1      22.998   3.886  52.364  1.00  0.00    -0.016 C 
HETATM   15  C14 UNL     1      24.188   3.801  52.886  1.00  0.00     0.131 C 
HETATM   16  N1  UNL     1      24.792   3.953  51.673  1.00  0.00    -0.331 N 
HETATM   17  C15 UNL     1      25.555   4.276  50.239  1.00  0.00     0.309 A 
HETATM   18  C16 UNL     1      26.437   3.148  49.678  1.00  0.00     0.141 A 
HETATM   19  C17 UNL     1      25.937   4.324  49.781  1.00  0.00     0.299 A 
HETATM   20  N2  UNL     1      25.456   5.519  49.856  1.00  0.00     0.099 N 
HETATM   21  C18 UNL     1      24.986   6.637  49.949  1.00  0.00     0.372 A 
HETATM   22  N3  UNL     1      24.824   5.424  50.618  1.00  0.00    -0.041 NA
HETATM   23  N4  UNL     1      24.592   3.156  49.782  1.00  0.00    -0.358 N 
HETATM   24  H17 UNL     1      23.715   2.813  49.213  1.00  0.00     0.158 HD
ENDROOT
TORSDOF 0
ENDMDL
MODEL 6
REMARK VINA RESULT:      -7.7      2.408      4.531
REMARK  0 active torsions:
REMARK  status: ('A' for Active; 'I' for Inactive)
ROOT
HETATM    1  C1  UNL     1      20.912   1.536  52.180  1.00  0.00     0.062 C 
HETATM    2  C2  UNL     1      21.976   2.477  51.751  1.00  0.00     0.100 C 
HETATM    3  C3  UNL     1      23.264   2.039  52.062  1.00  0.00     0.062 C 
HETATM    4  C4  UNL     1      24.489   2.857  52.322  1.00  0.00     0.026 C 
HETATM    5  C5  UNL     1      25.292   2.183  53.457  1.00  0.00    -0.009 C 
HETATM    6  C6  UNL     1      25.785   1.030  53.215  1.00  0.00    -0.030 C 
HETATM    7  C7  UNL     1      26.273   0.686  52.050  1.00  0.00     0.009 C 
HETATM    8  C8  UNL     1      26.418   1.812  51.103  1.00  0.00    -0.014 C 
HETATM    9  C9  UNL     1      25.582   2.832  51.232  1.00  0.00    -0.001 A 
HETATM   10  C10 UNL     1      25.872   4.029  50.279  1.00  0.00     0.065 A 
HETATM   11  C11 UNL     1      24.592   4.789  50.520  1.00  0.00    -0.024 A 
HETATM   12 BR1  UNL     1      24.152   6.548  51.065  1.00  0.00    -0.060 Br
HETATM   13  C12 UNL     1      24.374   3.525  50.128  1.00  0.00     0.049 A 
HETATM   14  C13 UNL     1      23.477   2.464  49.823  1.00  0.00    -0.016 C 
HETATM   15  C14 UNL     1      22.410   1.732  49.667  1.00  0.00     0.131 C 
HETATM   16  N1  UNL     1      21.605   2.696  50.199  1.00  0.00    -0.331 N 
HETATM   17  C15 UNL     1      20.585   3.897  50.707  1.00  0.00     0.309 A 
HETATM   18  C16 UNL     1      19.794   3.607  51.995  1.00  0.00     0.141 A 
HETATM   19  C17 UNL     1      20.131   4.224  50.922  1.00  0.00     0.299 A 
HETATM   20  N2  UNL     1      20.441   4.868  49.848  1.00  0.00     0.099 N 
HETATM   21  C18 UNL     1      20.755   5.457  48.831  1.00  0.00     0.372 A 
HETATM   22  N3  UNL     1      21.195   4.318  49.504  1.00  0.00    -0.041 NA
HETATM   23  N4  UNL     1      21.612   3.915  51.862  1.00  0.00    -0.358 N 
HETATM   24  H17 UNL     1      22.427   4.401  52.419  1.00  0.00     0.158 HD
ENDROOT
TORSDOF 0
ENDMDL
MODEL 7
REMARK VINA RESULT:      -7.2      2.108      3.669
REMARK  0 active torsions:
REMARK  status: ('A' for Active; 'I' for Inactive)
ROOT
HETATM    1  C1  UNL     1      21.967   5.774  49.424  1.00  0.00     0.062 C 
HETATM    2  C2  UNL     1      22.500   4.620  50.188  1.00  0.00     0.100 C 
HETATM    3  C3  UNL     1      21.506   3.768  50.672  1.00  0.00     0.062 C 
HETATM    4  C4  UNL     1      21.543   2.884  51.879  1.00  0.00     0.026 C 
HETATM    5  C5  UNL     1      20.149   2.913  52.546  1.00  0.00    -0.009 C 
HETATM    6  C6  UNL     1      19.177   2.420  51.880  1.00  0.00    -0.030 C 
HETATM    7  C7  UNL     1      19.290   1.364  51.115  1.00  0.00     0.009 C 
HETATM    8  C8  UNL     1      20.577   0.652  51.260  1.00  0.00    -0.014 C 
HETATM    9  C9  UNL     1      21.634   1.364  51.622  1.00  0.00    -0.001 A 
HETATM   10  C10 UNL     1      22.923   0.527  51.870  1.00  0.00     0.065 A 
HETATM   11  C11 UNL     1      23.894   1.678  51.951  1.00  0.00    -0.024 A 
HETATM   12 BR1  UNL     1      25.171   2.277  53.214  1.00  0.00    -0.060 Br
HETATM   13  C12 UNL     1      23.184   1.683  50.813  1.00  0.00     0.049 A 
HETATM   14  C13 UNL     1      22.853   2.283  49.567  1.00  0.00    -0.016 C 
HETATM   15  C14 UNL     1      22.772   3.093  48.550  1.00  0.00     0.131 C 
HETATM   16  N1  UNL     1      23.575   4.017  49.152  1.00  0.00    -0.331 N 
HETATM   17  C15 UNL     1      24.659   5.091  49.794  1.00  0.00     0.309 A 
HETATM   18  C16 UNL     1      24.108   6.491  50.114  1.00  0.00     0.141 A 
HETATM   19  C17 UNL     1      24.985   5.572  49.943  1.00  0.00     0.299 A 
HETATM   20  N2  UNL     1      25.894   4.671  49.777  1.00  0.00     0.099 N 
HETATM   21  C18 UNL     1      26.730   3.803  49.615  1.00  0.00     0.372 A 
HETATM   22  N3  UNL     1      25.341   3.882  49.533  1.00  0.00    -0.041 NA
HETATM   23  N4  UNL     1      23.709   4.919  51.001  1.00  0.00    -0.358 N 
HETATM   24  H17 UNL     1      23.499   4.556  52.018  1.00  0.00     0.158 HD
ENDROOT
TORSDOF 0
ENDMDL
MODEL 8
REMARK VINA RESULT:      -6.8      9.398     11.967
REMARK  0 active torsions:
REMARK  status: ('A' for Active; 'I' for Inactive)
ROOT
HETATM    1  C1  UNL     1      29.905   5.576  48.258  1.00  0.00     0.062 C 
HETATM    2  C2  UNL     1      30.852   6.606  47.765  1.00  0.00     0.100 C 
HETATM    3  C3  UNL     1      30.262   7.856  47.572  1.00  0.00     0.062 C 
HETATM    4  C4  UNL     1      30.661   8.937  46.618  1.00  0.00     0.026 C 
HETATM    5  C5  UNL     1      29.377   9.591  46.059  1.00  0.00    -0.009 C 
HETATM    6  C6  UNL     1      28.639  10.222  46.889  1.00  0.00    -0.030 C 
HETATM    7  C7  UNL     1      29.115  10.933  47.879  1.00  0.00     0.009 C 
HETATM    8  C8  UNL     1      30.578  11.135  47.826  1.00  0.00    -0.014 C 
HETATM    9  C9  UNL     1      31.304  10.200  47.232  1.00  0.00    -0.001 A 
HETATM   10  C10 UNL     1      32.818  10.538  47.109  1.00  0.00     0.065 A 
HETATM   11  C11 UNL     1      33.294   9.171  46.685  1.00  0.00    -0.024 A 
HETATM   12 BR1  UNL     1      34.293   8.483  45.231  1.00  0.00    -0.060 Br
HETATM   13  C12 UNL     1      32.599   9.141  47.832  1.00  0.00     0.049 A 
HETATM   14  C13 UNL     1      32.032   8.412  48.914  1.00  0.00    -0.016 C 
HETATM   15  C14 UNL     1      31.624   7.460  49.705  1.00  0.00     0.131 C 
HETATM   16  N1  UNL     1      32.044   6.490  48.843  1.00  0.00    -0.331 N 
HETATM   17  C15 UNL     1      32.668   5.291  47.887  1.00  0.00     0.309 A 
HETATM   18  C16 UNL     1      31.645   4.320  47.272  1.00  0.00     0.141 A 
HETATM   19  C17 UNL     1      32.795   4.778  47.604  1.00  0.00     0.299 A 
HETATM   20  N2  UNL     1      33.969   5.209  47.923  1.00  0.00     0.099 N 
HETATM   21  C18 UNL     1      35.063   5.638  48.236  1.00  0.00     0.372 A 
HETATM   22  N3  UNL     1      33.743   6.058  48.389  1.00  0.00    -0.041 NA
HETATM   23  N4  UNL     1      31.886   6.098  46.825  1.00  0.00    -0.358 N 
HETATM   24  H17 UNL     1      31.858   6.756  45.944  1.00  0.00     0.158 HD
ENDROOT
TORSDOF 0
ENDMDL
MODEL 9
REMARK VINA RESULT:      -6.7      7.516     10.238
REMARK  0 active torsions:
REMARK  status: ('A' for Active; 'I' for Inactive)
ROOT
HETATM    1  C1  UNL     1      27.010   6.035  48.610  1.00  0.00     0.062 C 
HETATM    2  C2  UNL     1      28.101   7.036  48.507  1.00  0.00     0.100 C 
HETATM    3  C3  UNL     1      29.330   6.482  48.145  1.00  0.00     0.062 C 
HETATM    4  C4  UNL     1      30.706   6.977  48.465  1.00  0.00     0.026 C 
HETATM    5  C5  UNL     1      31.608   5.754  48.747  1.00  0.00    -0.009 C 
HETATM    6  C6  UNL     1      31.828   4.957  47.774  1.00  0.00    -0.030 C 
HETATM    7  C7  UNL     1      31.982   5.357  46.537  1.00  0.00     0.009 C 
HETATM    8  C8  UNL     1      32.109   6.822  46.390  1.00  0.00    -0.014 C 
HETATM    9  C9  UNL     1      31.513   7.583  47.297  1.00  0.00    -0.001 A 
HETATM   10  C10 UNL     1      31.791   9.107  47.145  1.00  0.00     0.065 A 
HETATM   11  C11 UNL     1      30.746   9.597  48.116  1.00  0.00    -0.024 A 
HETATM   12 BR1  UNL     1      30.748  10.706  49.651  1.00  0.00    -0.060 Br
HETATM   13  C12 UNL     1      30.231   8.807  47.162  1.00  0.00     0.049 A 
HETATM   14  C13 UNL     1      29.119   8.139  46.579  1.00  0.00    -0.016 C 
HETATM   15  C14 UNL     1      27.934   7.652  46.344  1.00  0.00     0.131 C 
HETATM   16  N1  UNL     1      27.444   8.129  47.525  1.00  0.00    -0.331 N 
HETATM   17  C15 UNL     1      26.784   8.816  48.879  1.00  0.00     0.309 A 
HETATM   18  C16 UNL     1      26.256   7.835  49.940  1.00  0.00     0.141 A 
HETATM   19  C17 UNL     1      26.452   8.959  49.357  1.00  0.00     0.299 A 
HETATM   20  N2  UNL     1      26.627  10.108  48.795  1.00  0.00     0.099 N 
HETATM   21  C18 UNL     1      26.809  11.177  48.245  1.00  0.00     0.372 A 
HETATM   22  N3  UNL     1      27.180   9.855  48.008  1.00  0.00    -0.041 NA
HETATM   23  N4  UNL     1      28.026   8.138  49.502  1.00  0.00    -0.358 N 
HETATM   24  H17 UNL     1      29.014   8.194  49.982  1.00  0.00     0.158 HD
ENDROOT
TORSDOF 0
ENDMDL
