MODEL 1
REMARK VINA RESULT:      -8.8      0.000      0.000
REMARK  6 active torsions:
REMARK  status: ('A' for Active; 'I' for Inactive)
REMARK    1  A    between atoms: C2_2  and  C3_3 
REMARK    2  A    between atoms: C2_2  and  C18_23 
REMARK    3  A    between atoms: C4_4  and  C5_5 
REMARK    4  A    between atoms: C5_5  and  N1_6 
REMARK    5  A    between atoms: N1_6  and  C6_7 
REMARK    6  A    between atoms: C18_23  and  O2_25 
ROOT
HETATM    1  C6  UNL     1      26.288   2.467  50.905  1.00  0.00     0.723 A 
HETATM    2  N2  UNL     1      27.405   2.521  51.655  1.00  0.00    -0.075 NA
HETATM    3  C7  UNL     1      27.454   1.944  52.887  1.00  0.00     0.147 A 
HETATM    4  C8  UNL     1      26.364   1.279  53.415  1.00  0.00     0.010 A 
HETATM    5  C9  UNL     1      25.237   1.257  52.589  1.00  0.00     0.096 A 
HETATM    6  N3  UNL     1      25.195   1.834  51.368  1.00  0.00    -0.062 NA
HETATM    7  C10 UNL     1      23.961   0.611  52.938  1.00  0.00     0.006 A 
HETATM    8  C11 UNL     1      22.930   1.126  52.187  1.00  0.00     0.016 A 
HETATM    9  C12 UNL     1      21.667   0.614  52.405  1.00  0.00     0.025 A 
HETATM   10  C13 UNL     1      21.474  -0.377  53.348  1.00  0.00     0.035 A 
HETATM   11 CL1  UNL     1      19.845  -0.998  53.589  1.00  0.00    -0.084 Cl
HETATM   12  C14 UNL     1      22.510  -0.900  54.108  1.00  0.00     0.037 A 
HETATM   13  C15 UNL     1      23.775  -0.392  53.895  1.00  0.00    -0.005 A 
HETATM   14  C16 UNL     1      24.806  -1.000  54.739  1.00  0.00     0.123 C 
HETATM   15  N4  UNL     1      25.950  -0.493  55.052  1.00  0.00    -0.296 NA
HETATM   16  C17 UNL     1      26.626   0.731  54.751  1.00  0.00     0.191 C 
ENDROOT
BRANCH   1  17
HETATM   17  N1  UNL     1      26.265   3.080  49.622  1.00  0.00    -0.219 N 
HETATM   18  H7  UNL     1      26.696   2.594  48.804  1.00  0.00     0.178 HD
BRANCH  17  19
HETATM   19  C5  UNL     1      25.640   4.384  49.464  1.00  0.00     0.165 C 
BRANCH  19  20
HETATM   20  C4  UNL     1      26.613   5.411  49.040  1.00  0.00    -0.006 C 
HETATM   21  C3  UNL     1      27.795   5.022  48.626  1.00  0.00     0.011 C 
BRANCH  21  22
HETATM   22  C2  UNL     1      28.783   6.003  48.198  1.00  0.00     0.015 C 
HETATM   23  C1  UNL     1      28.696   6.997  47.332  1.00  0.00     0.050 C 
BRANCH  22  24
HETATM   24  C18 UNL     1      30.152   6.062  48.691  1.00  0.00     0.172 C 
HETATM   25  O1  UNL     1      30.893   5.093  48.384  1.00  0.00    -0.646 OA
BRANCH  24  26
HETATM   26  O2  UNL     1      31.162   6.688  49.387  1.00  0.00    -0.773 OA
HETATM   27  H15 UNL     1      31.411   7.653  49.267  1.00  0.00     0.167 HD
ENDBRANCH  24  26
ENDBRANCH  22  24
ENDBRANCH  21  22
ENDBRANCH  19  20
ENDBRANCH  17  19
ENDBRANCH   1  17
TORSDOF 6
ENDMDL
MODEL 2
REMARK VINA RESULT:      -8.8      1.919      2.109
REMARK  6 active torsions:
REMARK  status: ('A' for Active; 'I' for Inactive)
REMARK    1  A    between atoms: C2_2  and  C3_3 
REMARK    2  A    between atoms: C2_2  and  C18_23 
REMARK    3  A    between atoms: C4_4  and  C5_5 
REMARK    4  A    between atoms: C5_5  and  N1_6 
REMARK    5  A    between atoms: N1_6  and  C6_7 
REMARK    6  A    between atoms: C18_23  and  O2_25 
ROOT
HETATM    1  C6  UNL     1      26.459   2.505  51.119  1.00  0.00     0.723 A 
HETATM    2  N2  UNL     1      27.560   2.471  51.892  1.00  0.00    -0.075 NA
HETATM    3  C7  UNL     1      27.557   1.834  53.094  1.00  0.00     0.147 A 
HETATM    4  C8  UNL     1      26.425   1.197  53.569  1.00  0.00     0.010 A 
HETATM    5  C9  UNL     1      25.316   1.268  52.722  1.00  0.00     0.096 A 
HETATM    6  N3  UNL     1      25.328   1.904  51.529  1.00  0.00    -0.062 NA
HETATM    7  C10 UNL     1      24.005   0.667  53.014  1.00  0.00     0.006 A 
HETATM    8  C11 UNL     1      23.016   1.265  52.270  1.00  0.00     0.016 A 
HETATM    9  C12 UNL     1      21.725   0.804  52.438  1.00  0.00     0.025 A 
HETATM   10  C13 UNL     1      21.466  -0.222  53.328  1.00  0.00     0.035 A 
HETATM   11 CL1  UNL     1      19.806  -0.776  53.507  1.00  0.00    -0.084 Cl
HETATM   12  C14 UNL     1      22.460  -0.829  54.081  1.00  0.00     0.037 A 
HETATM   13  C15 UNL     1      23.753  -0.372  53.916  1.00  0.00    -0.005 A 
HETATM   14  C16 UNL     1      24.736  -1.068  54.749  1.00  0.00     0.123 C 
HETATM   15  N4  UNL     1      25.895  -0.631  55.109  1.00  0.00    -0.296 NA
HETATM   16  C17 UNL     1      26.634   0.573  54.881  1.00  0.00     0.191 C 
ENDROOT
BRANCH   1  17
HETATM   17  N1  UNL     1      26.491   3.180  49.868  1.00  0.00    -0.219 N 
HETATM   18  H7  UNL     1      27.164   2.877  49.129  1.00  0.00     0.178 HD
BRANCH  17  19
HETATM   19  C5  UNL     1      25.582   4.291  49.631  1.00  0.00     0.165 C 
BRANCH  19  20
HETATM   20  C4  UNL     1      26.300   5.496  49.166  1.00  0.00    -0.006 C 
HETATM   21  C3  UNL     1      25.939   6.664  49.639  1.00  0.00     0.011 C 
BRANCH  21  22
HETATM   22  C2  UNL     1      26.623   7.875  49.206  1.00  0.00     0.015 C 
HETATM   23  C1  UNL     1      27.035   8.255  48.010  1.00  0.00     0.050 C 
BRANCH  22  24
HETATM   24  C18 UNL     1      27.002   8.968  50.092  1.00  0.00     0.172 C 
HETATM   25  O1  UNL     1      26.625  10.117  49.744  1.00  0.00    -0.646 OA
BRANCH  24  26
HETATM   26  O2  UNL     1      27.619   9.449  51.225  1.00  0.00    -0.773 OA
HETATM   27  H15 UNL     1      28.531   9.162  51.531  1.00  0.00     0.167 HD
ENDBRANCH  24  26
ENDBRANCH  22  24
ENDBRANCH  21  22
ENDBRANCH  19  20
ENDBRANCH  17  19
ENDBRANCH   1  17
TORSDOF 6
ENDMDL
MODEL 3
REMARK VINA RESULT:      -8.5      3.269      4.344
REMARK  6 active torsions:
REMARK  status: ('A' for Active; 'I' for Inactive)
REMARK    1  A    between atoms: C2_2  and  C3_3 
REMARK    2  A    between atoms: C2_2  and  C18_23 
REMARK    3  A    between atoms: C4_4  and  C5_5 
REMARK    4  A    between atoms: C5_5  and  N1_6 
REMARK    5  A    between atoms: N1_6  and  C6_7 
REMARK    6  A    between atoms: C18_23  and  O2_25 
ROOT
HETATM    1  C6  UNL     1      23.353   4.519  52.291  1.00  0.00     0.723 A 
HETATM    2  N2  UNL     1      22.036   4.261  52.188  1.00  0.00    -0.075 NA
HETATM    3  C7  UNL     1      21.559   2.989  52.271  1.00  0.00     0.147 A 
HETATM    4  C8  UNL     1      22.406   1.913  52.464  1.00  0.00     0.010 A 
HETATM    5  C9  UNL     1      23.759   2.246  52.563  1.00  0.00     0.096 A 
HETATM    6  N3  UNL     1      24.225   3.512  52.478  1.00  0.00    -0.062 NA
HETATM    7  C10 UNL     1      24.844   1.272  52.768  1.00  0.00     0.006 A 
HETATM    8  C11 UNL     1      26.052   1.793  52.370  1.00  0.00     0.016 A 
HETATM    9  C12 UNL     1      27.167   0.990  52.503  1.00  0.00     0.025 A 
HETATM   10  C13 UNL     1      27.045  -0.286  53.020  1.00  0.00     0.035 A 
HETATM   11 CL1  UNL     1      28.494  -1.271  53.172  1.00  0.00    -0.084 Cl
HETATM   12  C14 UNL     1      25.828  -0.817  53.423  1.00  0.00     0.037 A 
HETATM   13  C15 UNL     1      24.710  -0.018  53.292  1.00  0.00    -0.005 A 
HETATM   14  C16 UNL     1      23.471  -0.658  53.740  1.00  0.00     0.123 C 
HETATM   15  N4  UNL     1      22.268  -0.348  53.393  1.00  0.00    -0.296 NA
HETATM   16  C17 UNL     1      21.691   0.633  52.525  1.00  0.00     0.191 C 
ENDROOT
BRANCH   1  17
HETATM   17  N1  UNL     1      23.823   5.858  52.199  1.00  0.00    -0.219 N 
HETATM   18  H7  UNL     1      24.432   6.250  52.951  1.00  0.00     0.178 HD
BRANCH  17  19
HETATM   19  C5  UNL     1      23.445   6.671  51.053  1.00  0.00     0.165 C 
BRANCH  19  20
HETATM   20  C4  UNL     1      24.553   7.543  50.612  1.00  0.00    -0.006 C 
HETATM   21  C3  UNL     1      25.548   7.006  49.950  1.00  0.00     0.011 C 
BRANCH  21  22
HETATM   22  C2  UNL     1      26.659   7.832  49.496  1.00  0.00     0.015 C 
HETATM   23  C1  UNL     1      27.464   7.704  48.456  1.00  0.00     0.050 C 
BRANCH  22  24
HETATM   24  C18 UNL     1      27.115   9.041  50.169  1.00  0.00     0.172 C 
HETATM   25  O1  UNL     1      27.093  10.096  49.484  1.00  0.00    -0.646 OA
BRANCH  24  26
HETATM   26  O2  UNL     1      27.605   9.700  51.274  1.00  0.00    -0.773 OA
HETATM   27  H15 UNL     1      27.197  10.535  51.654  1.00  0.00     0.167 HD
ENDBRANCH  24  26
ENDBRANCH  22  24
ENDBRANCH  21  22
ENDBRANCH  19  20
ENDBRANCH  17  19
ENDBRANCH   1  17
TORSDOF 6
ENDMDL
MODEL 4
REMARK VINA RESULT:      -8.4      3.286      4.755
REMARK  6 active torsions:
REMARK  status: ('A' for Active; 'I' for Inactive)
REMARK    1  A    between atoms: C2_2  and  C3_3 
REMARK    2  A    between atoms: C2_2  and  C18_23 
REMARK    3  A    between atoms: C4_4  and  C5_5 
REMARK    4  A    between atoms: C5_5  and  N1_6 
REMARK    5  A    between atoms: N1_6  and  C6_7 
REMARK    6  A    between atoms: C18_23  and  O2_25 
ROOT
HETATM    1  C6  UNL     1      21.122   2.184  51.990  1.00  0.00     0.723 A 
HETATM    2  N2  UNL     1      20.030   1.527  52.421  1.00  0.00    -0.075 NA
HETATM    3  C7  UNL     1      20.138   0.389  53.160  1.00  0.00     0.147 A 
HETATM    4  C8  UNL     1      21.372  -0.136  53.497  1.00  0.00     0.010 A 
HETATM    5  C9  UNL     1      22.466   0.591  53.020  1.00  0.00     0.096 A 
HETATM    6  N3  UNL     1      22.349   1.720  52.286  1.00  0.00    -0.062 NA
HETATM    7  C10 UNL     1      23.873   0.227  53.252  1.00  0.00     0.006 A 
HETATM    8  C11 UNL     1      24.692   0.817  52.318  1.00  0.00     0.016 A 
HETATM    9  C12 UNL     1      26.046   0.565  52.409  1.00  0.00     0.025 A 
HETATM   10  C13 UNL     1      26.533  -0.253  53.411  1.00  0.00     0.035 A 
HETATM   11 CL1  UNL     1      28.267  -0.543  53.486  1.00  0.00    -0.084 Cl
HETATM   12  C14 UNL     1      25.712  -0.852  54.355  1.00  0.00     0.037 A 
HETATM   13  C15 UNL     1      24.357  -0.603  54.268  1.00  0.00    -0.005 A 
HETATM   14  C16 UNL     1      23.566  -1.274  55.303  1.00  0.00     0.123 C 
HETATM   15  N4  UNL     1      22.309  -1.557  55.257  1.00  0.00    -0.296 NA
HETATM   16  C17 UNL     1      21.267  -1.363  54.295  1.00  0.00     0.191 C 
ENDROOT
BRANCH   1  17
HETATM   17  N1  UNL     1      20.978   3.370  51.218  1.00  0.00    -0.219 N 
HETATM   18  H7  UNL     1      20.428   4.174  51.595  1.00  0.00     0.178 HD
BRANCH  17  19
HETATM   19  C5  UNL     1      21.601   3.449  49.906  1.00  0.00     0.165 C 
BRANCH  19  20
HETATM   20  C4  UNL     1      22.968   4.003  49.982  1.00  0.00    -0.006 C 
HETATM   21  C3  UNL     1      23.968   3.267  49.561  1.00  0.00     0.011 C 
BRANCH  21  22
HETATM   22  C2  UNL     1      25.331   3.778  49.618  1.00  0.00     0.015 C 
HETATM   23  C1  UNL     1      26.493   3.153  49.548  1.00  0.00     0.050 C 
BRANCH  22  24
HETATM   24  C18 UNL     1      25.678   5.184  49.777  1.00  0.00     0.172 C 
HETATM   25  O1  UNL     1      26.292   5.714  48.816  1.00  0.00    -0.646 OA
BRANCH  24  26
HETATM   26  O2  UNL     1      25.685   6.354  50.503  1.00  0.00    -0.773 OA
HETATM   27  H15 UNL     1      24.872   6.924  50.654  1.00  0.00     0.167 HD
ENDBRANCH  24  26
ENDBRANCH  22  24
ENDBRANCH  21  22
ENDBRANCH  19  20
ENDBRANCH  17  19
ENDBRANCH   1  17
TORSDOF 6
ENDMDL
MODEL 5
REMARK VINA RESULT:      -8.1      2.803      4.195
REMARK  6 active torsions:
REMARK  status: ('A' for Active; 'I' for Inactive)
REMARK    1  A    between atoms: C2_2  and  C3_3 
REMARK    2  A    between atoms: C2_2  and  C18_23 
REMARK    3  A    between atoms: C4_4  and  C5_5 
REMARK    4  A    between atoms: C5_5  and  N1_6 
REMARK    5  A    between atoms: N1_6  and  C6_7 
REMARK    6  A    between atoms: C18_23  and  O2_25 
ROOT
HETATM    1  C6  UNL     1      22.160   4.248  52.166  1.00  0.00     0.723 A 
HETATM    2  N2  UNL     1      20.860   3.905  52.217  1.00  0.00    -0.075 NA
HETATM    3  C7  UNL     1      20.480   2.616  52.436  1.00  0.00     0.147 A 
HETATM    4  C8  UNL     1      21.412   1.612  52.617  1.00  0.00     0.010 A 
HETATM    5  C9  UNL     1      22.743   2.031  52.553  1.00  0.00     0.096 A 
HETATM    6  N3  UNL     1      23.112   3.313  52.334  1.00  0.00    -0.062 NA
HETATM    7  C10 UNL     1      23.905   1.143  52.715  1.00  0.00     0.006 A 
HETATM    8  C11 UNL     1      25.031   1.704  52.160  1.00  0.00     0.016 A 
HETATM    9  C12 UNL     1      26.206   0.982  52.235  1.00  0.00     0.025 A 
HETATM   10  C13 UNL     1      26.220  -0.256  52.850  1.00  0.00     0.035 A 
HETATM   11 CL1  UNL     1      27.741  -1.138  52.921  1.00  0.00    -0.084 Cl
HETATM   12  C14 UNL     1      25.087  -0.827  53.410  1.00  0.00     0.037 A 
HETATM   13  C15 UNL     1      23.910  -0.109  53.338  1.00  0.00    -0.005 A 
HETATM   14  C16 UNL     1      22.767  -0.786  53.954  1.00  0.00     0.123 C 
HETATM   15  N4  UNL     1      21.518  -0.576  53.710  1.00  0.00    -0.296 NA
HETATM   16  C17 UNL     1      20.794   0.299  52.840  1.00  0.00     0.191 C 
ENDROOT
BRANCH   1  17
HETATM   17  N1  UNL     1      22.527   5.602  51.934  1.00  0.00    -0.219 N 
HETATM   18  H7  UNL     1      22.368   6.321  52.675  1.00  0.00     0.178 HD
BRANCH  17  19
HETATM   19  C5  UNL     1      23.124   5.973  50.659  1.00  0.00     0.165 C 
BRANCH  19  20
HETATM   20  C4  UNL     1      24.406   5.276  50.432  1.00  0.00    -0.006 C 
HETATM   21  C3  UNL     1      25.133   5.619  49.397  1.00  0.00     0.011 C 
BRANCH  21  22
HETATM   22  C2  UNL     1      26.404   4.956  49.139  1.00  0.00     0.015 C 
HETATM   23  C1  UNL     1      26.808   3.726  49.405  1.00  0.00     0.050 C 
BRANCH  22  24
HETATM   24  C18 UNL     1      27.545   5.587  48.489  1.00  0.00     0.172 C 
HETATM   25  O1  UNL     1      28.629   4.949  48.535  1.00  0.00    -0.646 OA
BRANCH  24  26
HETATM   26  O2  UNL     1      28.115   6.620  47.780  1.00  0.00    -0.773 OA
HETATM   27  H15 UNL     1      29.078   6.640  47.497  1.00  0.00     0.167 HD
ENDBRANCH  24  26
ENDBRANCH  22  24
ENDBRANCH  21  22
ENDBRANCH  19  20
ENDBRANCH  17  19
ENDBRANCH   1  17
TORSDOF 6
ENDMDL
MODEL 6
REMARK VINA RESULT:      -8.0      3.217      4.118
REMARK  6 active torsions:
REMARK  status: ('A' for Active; 'I' for Inactive)
REMARK    1  A    between atoms: C2_2  and  C3_3 
REMARK    2  A    between atoms: C2_2  and  C18_23 
REMARK    3  A    between atoms: C4_4  and  C5_5 
REMARK    4  A    between atoms: C5_5  and  N1_6 
REMARK    5  A    between atoms: N1_6  and  C6_7 
REMARK    6  A    between atoms: C18_23  and  O2_25 
ROOT
HETATM    1  C6  UNL     1      26.376   2.419  51.118  1.00  0.00     0.723 A 
HETATM    2  N2  UNL     1      27.481   2.445  51.886  1.00  0.00    -0.075 NA
HETATM    3  C7  UNL     1      27.508   1.833  53.101  1.00  0.00     0.147 A 
HETATM    4  C8  UNL     1      26.406   1.160  53.593  1.00  0.00     0.010 A 
HETATM    5  C9  UNL     1      25.292   1.168  52.750  1.00  0.00     0.096 A 
HETATM    6  N3  UNL     1      25.272   1.780  51.545  1.00  0.00    -0.062 NA
HETATM    7  C10 UNL     1      24.007   0.520  53.061  1.00  0.00     0.006 A 
HETATM    8  C11 UNL     1      22.991   1.063  52.310  1.00  0.00     0.016 A 
HETATM    9  C12 UNL     1      21.721   0.552  52.494  1.00  0.00     0.025 A 
HETATM   10  C13 UNL     1      21.508  -0.465  53.405  1.00  0.00     0.035 A 
HETATM   11 CL1  UNL     1      19.873  -1.082  53.604  1.00  0.00    -0.084 Cl
HETATM   12  C14 UNL     1      22.530  -1.015  54.166  1.00  0.00     0.037 A 
HETATM   13  C15 UNL     1      23.801  -0.509  53.986  1.00  0.00    -0.005 A 
HETATM   14  C16 UNL     1      24.815  -1.147  54.828  1.00  0.00     0.123 C 
HETATM   15  N4  UNL     1      25.957  -0.656  55.172  1.00  0.00    -0.296 NA
HETATM   16  C17 UNL     1      26.645   0.572  54.917  1.00  0.00     0.191 C 
ENDROOT
BRANCH   1  17
HETATM   17  N1  UNL     1      26.376   3.069  49.853  1.00  0.00    -0.219 N 
HETATM   18  H7  UNL     1      26.676   2.548  48.999  1.00  0.00     0.178 HD
BRANCH  17  19
HETATM   19  C5  UNL     1      25.955   4.459  49.763  1.00  0.00     0.165 C 
BRANCH  19  20
HETATM   20  C4  UNL     1      24.507   4.610  50.015  1.00  0.00    -0.006 C 
HETATM   21  C3  UNL     1      24.115   5.032  51.193  1.00  0.00     0.011 C 
BRANCH  21  22
HETATM   22  C2  UNL     1      22.696   5.194  51.480  1.00  0.00     0.015 C 
HETATM   23  C1  UNL     1      21.855   4.424  52.146  1.00  0.00     0.050 C 
BRANCH  22  24
HETATM   24  C18 UNL     1      21.893   6.329  51.044  1.00  0.00     0.172 C 
HETATM   25  O1  UNL     1      21.006   6.081  50.187  1.00  0.00    -0.646 OA
BRANCH  24  26
HETATM   26  O2  UNL     1      21.562   7.665  51.085  1.00  0.00    -0.773 OA
HETATM   27  H15 UNL     1      22.108   8.390  50.658  1.00  0.00     0.167 HD
ENDBRANCH  24  26
ENDBRANCH  22  24
ENDBRANCH  21  22
ENDBRANCH  19  20
ENDBRANCH  17  19
ENDBRANCH   1  17
TORSDOF 6
ENDMDL
MODEL 7
REMARK VINA RESULT:      -8.0      4.084      6.078
REMARK  6 active torsions:
REMARK  status: ('A' for Active; 'I' for Inactive)
REMARK    1  A    between atoms: C2_2  and  C3_3 
REMARK    2  A    between atoms: C2_2  and  C18_23 
REMARK    3  A    between atoms: C4_4  and  C5_5 
REMARK    4  A    between atoms: C5_5  and  N1_6 
REMARK    5  A    between atoms: N1_6  and  C6_7 
REMARK    6  A    between atoms: C18_23  and  O2_25 
ROOT
HETATM    1  C6  UNL     1      24.752   2.434  51.372  1.00  0.00     0.723 A 
HETATM    2  N2  UNL     1      24.907   2.915  50.124  1.00  0.00    -0.075 NA
HETATM    3  C7  UNL     1      23.917   2.799  49.197  1.00  0.00     0.147 A 
HETATM    4  C8  UNL     1      22.716   2.185  49.499  1.00  0.00     0.010 A 
HETATM    5  C9  UNL     1      22.617   1.707  50.808  1.00  0.00     0.096 A 
HETATM    6  N3  UNL     1      23.605   1.825  51.722  1.00  0.00    -0.062 NA
HETATM    7  C10 UNL     1      21.437   1.020  51.356  1.00  0.00     0.006 A 
HETATM    8  C11 UNL     1      21.774   0.275  52.462  1.00  0.00     0.016 A 
HETATM    9  C12 UNL     1      20.765  -0.430  53.087  1.00  0.00     0.025 A 
HETATM   10  C13 UNL     1      19.473  -0.372  52.599  1.00  0.00     0.035 A 
HETATM   11 CL1  UNL     1      18.221  -1.286  53.430  1.00  0.00    -0.084 Cl
HETATM   12  C14 UNL     1      19.128   0.378  51.483  1.00  0.00     0.037 A 
HETATM   13  C15 UNL     1      20.133   1.084  50.855  1.00  0.00    -0.005 A 
HETATM   14  C16 UNL     1      19.679   1.846  49.689  1.00  0.00     0.123 C 
HETATM   15  N4  UNL     1      20.402   2.260  48.704  1.00  0.00    -0.296 NA
HETATM   16  C17 UNL     1      21.788   2.166  48.362  1.00  0.00     0.191 C 
ENDROOT
BRANCH   1  17
HETATM   17  N1  UNL     1      25.804   2.568  52.319  1.00  0.00    -0.219 N 
HETATM   18  H7  UNL     1      26.692   3.047  52.049  1.00  0.00     0.178 HD
BRANCH  17  19
HETATM   19  C5  UNL     1      25.630   2.034  53.661  1.00  0.00     0.165 C 
BRANCH  19  20
HETATM   20  C4  UNL     1      26.482   0.850  53.894  1.00  0.00    -0.006 C 
HETATM   21  C3  UNL     1      27.468   0.614  53.063  1.00  0.00     0.011 C 
BRANCH  21  22
HETATM   22  C2  UNL     1      28.332  -0.543  53.259  1.00  0.00     0.015 C 
HETATM   23  C1  UNL     1      29.553  -0.637  53.755  1.00  0.00     0.050 C 
BRANCH  22  24
HETATM   24  C18 UNL     1      27.970  -1.910  52.910  1.00  0.00     0.172 C 
HETATM   25  O1  UNL     1      26.823  -2.070  52.418  1.00  0.00    -0.646 OA
BRANCH  24  26
HETATM   26  O2  UNL     1      28.256  -3.255  52.828  1.00  0.00    -0.773 OA
HETATM   27  H15 UNL     1      27.694  -3.973  53.247  1.00  0.00     0.167 HD
ENDBRANCH  24  26
ENDBRANCH  22  24
ENDBRANCH  21  22
ENDBRANCH  19  20
ENDBRANCH  17  19
ENDBRANCH   1  17
TORSDOF 6
ENDMDL
MODEL 8
REMARK VINA RESULT:      -7.9      4.033      7.820
REMARK  6 active torsions:
REMARK  status: ('A' for Active; 'I' for Inactive)
REMARK    1  A    between atoms: C2_2  and  C3_3 
REMARK    2  A    between atoms: C2_2  and  C18_23 
REMARK    3  A    between atoms: C4_4  and  C5_5 
REMARK    4  A    between atoms: C5_5  and  N1_6 
REMARK    5  A    between atoms: N1_6  and  C6_7 
REMARK    6  A    between atoms: C18_23  and  O2_25 
ROOT
HETATM    1  C6  UNL     1      23.385   3.574  50.434  1.00  0.00     0.723 A 
HETATM    2  N2  UNL     1      22.506   4.364  51.077  1.00  0.00    -0.075 NA
HETATM    3  C7  UNL     1      22.703   5.707  51.170  1.00  0.00     0.147 A 
HETATM    4  C8  UNL     1      23.810   6.313  50.608  1.00  0.00     0.010 A 
HETATM    5  C9  UNL     1      24.685   5.441  49.954  1.00  0.00     0.096 A 
HETATM    6  N3  UNL     1      24.483   4.108  49.868  1.00  0.00    -0.062 NA
HETATM    7  C10 UNL     1      25.928   5.855  49.283  1.00  0.00     0.006 A 
HETATM    8  C11 UNL     1      26.788   4.792  49.146  1.00  0.00     0.016 A 
HETATM    9  C12 UNL     1      28.001   5.029  48.532  1.00  0.00     0.025 A 
HETATM   10  C13 UNL     1      28.314   6.298  48.081  1.00  0.00     0.035 A 
HETATM   11 CL1  UNL     1      29.871   6.550  47.303  1.00  0.00    -0.084 Cl
HETATM   12  C14 UNL     1      27.450   7.374  48.217  1.00  0.00     0.037 A 
HETATM   13  C15 UNL     1      26.235   7.143  48.831  1.00  0.00    -0.005 A 
HETATM   14  C16 UNL     1      25.388   8.333  48.932  1.00  0.00     0.123 C 
HETATM   15  N4  UNL     1      24.422   8.529  49.764  1.00  0.00    -0.296 NA
HETATM   16  C17 UNL     1      23.832   7.766  50.820  1.00  0.00     0.191 C 
ENDROOT
BRANCH   1  17
HETATM   17  N1  UNL     1      23.154   2.173  50.354  1.00  0.00    -0.219 N 
HETATM   18  H7  UNL     1      22.791   1.754  49.469  1.00  0.00     0.178 HD
BRANCH  17  19
HETATM   19  C5  UNL     1      23.427   1.336  51.513  1.00  0.00     0.165 C 
BRANCH  19  20
HETATM   20  C4  UNL     1      24.851   1.386  51.901  1.00  0.00    -0.006 C 
HETATM   21  C3  UNL     1      25.294   0.520  52.779  1.00  0.00     0.011 C 
BRANCH  21  22
HETATM   22  C2  UNL     1      26.692   0.536  53.187  1.00  0.00     0.015 C 
HETATM   23  C1  UNL     1      27.537  -0.453  53.419  1.00  0.00     0.050 C 
BRANCH  22  24
HETATM   24  C18 UNL     1      27.465   1.746  53.431  1.00  0.00     0.172 C 
HETATM   25  O1  UNL     1      28.297   2.060  52.540  1.00  0.00    -0.646 OA
BRANCH  24  26
HETATM   26  O2  UNL     1      27.794   2.837  54.204  1.00  0.00    -0.773 OA
HETATM   27  H15 UNL     1      27.848   3.776  53.853  1.00  0.00     0.167 HD
ENDBRANCH  24  26
ENDBRANCH  22  24
ENDBRANCH  21  22
ENDBRANCH  19  20
ENDBRANCH  17  19
ENDBRANCH   1  17
TORSDOF 6
ENDMDL
MODEL 9
REMARK VINA RESULT:      -7.9      4.861      9.364
REMARK  6 active torsions:
REMARK  status: ('A' for Active; 'I' for Inactive)
REMARK    1  A    between atoms: C2_2  and  C3_3 
REMARK    2  A    between atoms: C2_2  and  C18_23 
REMARK    3  A    between atoms: C4_4  and  C5_5 
REMARK    4  A    between atoms: C5_5  and  N1_6 
REMARK    5  A    between atoms: N1_6  and  C6_7 
REMARK    6  A    between atoms: C18_23  and  O2_25 
ROOT
HETATM    1  C6  UNL     1      26.629   4.267  49.348  1.00  0.00     0.723 A 
HETATM    2  N2  UNL     1      25.605   5.110  49.573  1.00  0.00    -0.075 NA
HETATM    3  C7  UNL     1      25.676   6.419  49.206  1.00  0.00     0.147 A 
HETATM    4  C8  UNL     1      26.800   6.933  48.588  1.00  0.00     0.010 A 
HETATM    5  C9  UNL     1      27.828   6.010  48.382  1.00  0.00     0.096 A 
HETATM    6  N3  UNL     1      27.750   4.712  48.750  1.00  0.00    -0.062 NA
HETATM    7  C10 UNL     1      29.116   6.325  47.744  1.00  0.00     0.006 A 
HETATM    8  C11 UNL     1      30.071   5.396  48.084  1.00  0.00     0.016 A 
HETATM    9  C12 UNL     1      31.337   5.563  47.558  1.00  0.00     0.025 A 
HETATM   10  C13 UNL     1      31.606   6.632  46.725  1.00  0.00     0.035 A 
HETATM   11 CL1  UNL     1      33.234   6.801  46.079  1.00  0.00    -0.084 Cl
HETATM   12  C14 UNL     1      30.647   7.573  46.379  1.00  0.00     0.037 A 
HETATM   13  C15 UNL     1      29.380   7.411  46.902  1.00  0.00    -0.005 A 
HETATM   14  C16 UNL     1      28.432   8.447  46.486  1.00  0.00     0.123 C 
HETATM   15  N4  UNL     1      27.344   8.790  47.087  1.00  0.00    -0.296 NA
HETATM   16  C17 UNL     1      26.672   8.362  48.275  1.00  0.00     0.191 C 
ENDROOT
BRANCH   1  17
HETATM   17  N1  UNL     1      26.527   2.905  49.743  1.00  0.00    -0.219 N 
HETATM   18  H7  UNL     1      26.859   2.150  49.103  1.00  0.00     0.178 HD
BRANCH  17  19
HETATM   19  C5  UNL     1      25.957   2.579  51.042  1.00  0.00     0.165 C 
BRANCH  19  20
HETATM   20  C4  UNL     1      26.805   1.626  51.787  1.00  0.00    -0.006 C 
HETATM   21  C3  UNL     1      26.395   0.388  51.916  1.00  0.00     0.011 C 
BRANCH  21  22
HETATM   22  C2  UNL     1      27.202  -0.582  52.643  1.00  0.00     0.015 C 
HETATM   23  C1  UNL     1      27.107  -1.897  52.728  1.00  0.00     0.050 C 
BRANCH  22  24
HETATM   24  C18 UNL     1      28.350  -0.241  53.473  1.00  0.00     0.172 C 
HETATM   25  O1  UNL     1      28.284  -0.592  54.679  1.00  0.00    -0.646 OA
BRANCH  24  26
HETATM   26  O2  UNL     1      29.596   0.321  53.645  1.00  0.00    -0.773 OA
HETATM   27  H15 UNL     1      30.422   0.004  53.171  1.00  0.00     0.167 HD
ENDBRANCH  24  26
ENDBRANCH  22  24
ENDBRANCH  21  22
ENDBRANCH  19  20
ENDBRANCH  17  19
ENDBRANCH   1  17
TORSDOF 6
ENDMDL
