MODEL 1
REMARK VINA RESULT:      -7.6      0.000      0.000
REMARK  6 active torsions:
REMARK  status: ('A' for Active; 'I' for Inactive)
REMARK       I    between atoms: N1_6  and  C6_7 
REMARK    1  A    between atoms: C6_7  and  C7_9 
REMARK    2  A    between atoms: C7_9  and  C8_10 
REMARK    3  A    between atoms: N2_12  and  C10_13 
REMARK    4  A    between atoms: C10_13  and  C11_14 
REMARK    5  A    between atoms: C11_14  and  C12_15 
REMARK    6  A    between atoms: C18_21  and  N3_22 
ROOT
HETATM    1  C1  UNL     1      30.200  -1.030  53.884  1.00  0.00     0.048 C 
HETATM    2  C2  UNL     1      28.781  -0.851  53.475  1.00  0.00    -0.032 A 
HETATM    3  C3  UNL     1      28.194  -1.896  52.910  1.00  0.00     0.008 A 
HETATM    4  C4  UNL     1      26.810  -1.678  52.527  1.00  0.00     0.018 A 
HETATM    5  C5  UNL     1      26.192  -0.533  52.726  1.00  0.00     0.096 A 
HETATM    6  N1  UNL     1      26.858   0.543  53.327  1.00  0.00    -0.293 N 
HETATM    7  C6  UNL     1      26.164   1.792  53.532  1.00  0.00     0.231 C 
HETATM    8  O1  UNL     1      26.735   2.799  54.075  1.00  0.00    -0.273 OA
HETATM    9  C18 UNL     1      28.237   0.486  53.770  1.00  0.00     0.355 A 
ENDROOT
BRANCH   7  10
HETATM   10  C7  UNL     1      24.765   2.029  53.147  1.00  0.00     0.157 C 
BRANCH  10  11
HETATM   11  C8  UNL     1      24.613   2.501  51.734  1.00  0.00     0.011 C 
HETATM   12  C9  UNL     1      25.835   2.638  50.897  1.00  0.00     0.065 C 
HETATM   13  N2  UNL     1      23.609   2.841  51.014  1.00  0.00    -0.298 NA
BRANCH  13  14
HETATM   14  C10 UNL     1      22.300   2.794  51.602  1.00  0.00     0.153 C 
BRANCH  14  15
HETATM   15  C11 UNL     1      21.695   1.468  51.127  1.00  0.00     0.060 C 
BRANCH  15  16
HETATM   16  C12 UNL     1      21.549   0.657  52.388  1.00  0.00    -0.057 A 
HETATM   17  C13 UNL     1      22.268  -0.524  52.465  1.00  0.00     0.007 A 
HETATM   18  C14 UNL     1      22.176  -1.308  53.591  1.00  0.00     0.001 A 
HETATM   19  C15 UNL     1      21.377  -0.941  54.658  1.00  0.00     0.000 A 
HETATM   20  C16 UNL     1      20.674   0.248  54.540  1.00  0.00     0.001 A 
HETATM   21  C17 UNL     1      20.750   1.053  53.418  1.00  0.00     0.007 A 
ENDBRANCH  15  16
ENDBRANCH  14  15
ENDBRANCH  13  14
ENDBRANCH  10  11
ENDBRANCH   7  10
BRANCH   9  22
HETATM   22  N3  UNL     1      29.012   1.550  53.153  1.00  0.00     0.106 N 
HETATM   23  H22 UNL     1      28.608   1.801  52.228  1.00  0.00     0.316 HD
HETATM   24  H23 UNL     1      29.093   2.393  53.728  1.00  0.00     0.316 HD
ENDBRANCH   9  22
TORSDOF 6
ENDMDL
MODEL 2
REMARK VINA RESULT:      -7.6      2.694      5.738
REMARK  6 active torsions:
REMARK  status: ('A' for Active; 'I' for Inactive)
REMARK       I    between atoms: N1_6  and  C6_7 
REMARK    1  A    between atoms: C6_7  and  C7_9 
REMARK    2  A    between atoms: C7_9  and  C8_10 
REMARK    3  A    between atoms: N2_12  and  C10_13 
REMARK    4  A    between atoms: C10_13  and  C11_14 
REMARK    5  A    between atoms: C11_14  and  C12_15 
REMARK    6  A    between atoms: C18_21  and  N3_22 
ROOT
HETATM    1  C1  UNL     1      29.022  -1.727  53.332  1.00  0.00     0.048 C 
HETATM    2  C2  UNL     1      28.458  -0.351  53.388  1.00  0.00    -0.032 A 
HETATM    3  C3  UNL     1      29.311   0.624  53.664  1.00  0.00     0.008 A 
HETATM    4  C4  UNL     1      28.719   1.951  53.709  1.00  0.00     0.018 A 
HETATM    5  C5  UNL     1      27.437   2.161  53.492  1.00  0.00     0.096 A 
HETATM    6  N1  UNL     1      26.577   1.093  53.204  1.00  0.00    -0.293 N 
HETATM    7  C6  UNL     1      25.174   1.345  52.974  1.00  0.00     0.231 C 
HETATM    8  O1  UNL     1      24.354   0.401  52.711  1.00  0.00    -0.273 OA
HETATM    9  C18 UNL     1      27.011  -0.287  53.120  1.00  0.00     0.355 A 
ENDROOT
BRANCH   7  10
HETATM   10  C7  UNL     1      24.559   2.681  53.019  1.00  0.00     0.157 C 
BRANCH  10  11
HETATM   11  C8  UNL     1      23.539   2.897  51.943  1.00  0.00     0.011 C 
HETATM   12  C9  UNL     1      22.118   2.579  52.241  1.00  0.00     0.065 C 
HETATM   13  N2  UNL     1      23.597   3.323  50.737  1.00  0.00    -0.298 NA
BRANCH  13  14
HETATM   14  C10 UNL     1      24.878   3.700  50.207  1.00  0.00     0.153 C 
BRANCH  14  15
HETATM   15  C11 UNL     1      24.612   4.956  49.369  1.00  0.00     0.060 C 
BRANCH  15  16
HETATM   16  C12 UNL     1      25.980   5.391  48.914  1.00  0.00    -0.057 A 
HETATM   17  C13 UNL     1      26.100   6.681  48.424  1.00  0.00     0.007 A 
HETATM   18  C14 UNL     1      27.324   7.137  47.993  1.00  0.00     0.001 A 
HETATM   19  C15 UNL     1      28.446   6.330  48.037  1.00  0.00     0.000 A 
HETATM   20  C16 UNL     1      28.282   5.047  48.534  1.00  0.00     0.001 A 
HETATM   21  C17 UNL     1      27.062   4.566  48.973  1.00  0.00     0.007 A 
ENDBRANCH  15  16
ENDBRANCH  14  15
ENDBRANCH  13  14
ENDBRANCH  10  11
ENDBRANCH   7  10
BRANCH   9  22
HETATM   22  N3  UNL     1      26.239  -1.117  54.029  1.00  0.00     0.106 N 
HETATM   23  H22 UNL     1      26.197  -0.679  54.970  1.00  0.00     0.316 HD
HETATM   24  H23 UNL     1      25.289  -1.317  53.705  1.00  0.00     0.316 HD
ENDBRANCH   9  22
TORSDOF 6
ENDMDL
MODEL 3
REMARK VINA RESULT:      -7.4      2.806      7.119
REMARK  6 active torsions:
REMARK  status: ('A' for Active; 'I' for Inactive)
REMARK       I    between atoms: N1_6  and  C6_7 
REMARK    1  A    between atoms: C6_7  and  C7_9 
REMARK    2  A    between atoms: C7_9  and  C8_10 
REMARK    3  A    between atoms: N2_12  and  C10_13 
REMARK    4  A    between atoms: C10_13  and  C11_14 
REMARK    5  A    between atoms: C11_14  and  C12_15 
REMARK    6  A    between atoms: C18_21  and  N3_22 
ROOT
HETATM    1  C1  UNL     1      18.940  -0.245  52.422  1.00  0.00     0.048 C 
HETATM    2  C2  UNL     1      20.317  -0.222  52.986  1.00  0.00    -0.032 A 
HETATM    3  C3  UNL     1      20.596  -1.142  53.898  1.00  0.00     0.008 A 
HETATM    4  C4  UNL     1      21.951  -1.083  54.420  1.00  0.00     0.018 A 
HETATM    5  C5  UNL     1      22.827  -0.186  54.018  1.00  0.00     0.096 A 
HETATM    6  N1  UNL     1      22.480   0.766  53.051  1.00  0.00    -0.293 N 
HETATM    7  C6  UNL     1      23.454   1.744  52.628  1.00  0.00     0.231 C 
HETATM    8  O1  UNL     1      23.180   2.632  51.750  1.00  0.00    -0.273 OA
HETATM    9  C18 UNL     1      21.174   0.840  52.429  1.00  0.00     0.355 A 
ENDROOT
BRANCH   7  10
HETATM   10  C7  UNL     1      24.827   1.818  53.149  1.00  0.00     0.157 C 
BRANCH  10  11
HETATM   11  C8  UNL     1      25.844   1.226  52.223  1.00  0.00     0.011 C 
HETATM   12  C9  UNL     1      26.137  -0.229  52.330  1.00  0.00     0.065 C 
HETATM   13  N2  UNL     1      26.580   1.702  51.289  1.00  0.00    -0.298 NA
BRANCH  13  14
HETATM   14  C10 UNL     1      26.480   3.103  50.989  1.00  0.00     0.153 C 
BRANCH  14  15
HETATM   15  C11 UNL     1      26.117   3.170  49.501  1.00  0.00     0.060 C 
BRANCH  15  16
HETATM   16  C12 UNL     1      26.629   4.516  49.058  1.00  0.00    -0.057 A 
HETATM   17  C13 UNL     1      25.734   5.571  49.090  1.00  0.00     0.007 A 
HETATM   18  C14 UNL     1      26.141   6.825  48.698  1.00  0.00     0.001 A 
HETATM   19  C15 UNL     1      27.435   7.058  48.268  1.00  0.00     0.000 A 
HETATM   20  C16 UNL     1      28.298   5.974  48.252  1.00  0.00     0.001 A 
HETATM   21  C17 UNL     1      27.912   4.704  48.641  1.00  0.00     0.007 A 
ENDBRANCH  15  16
ENDBRANCH  14  15
ENDBRANCH  13  14
ENDBRANCH  10  11
ENDBRANCH   7  10
BRANCH   9  22
HETATM   22  N3  UNL     1      20.602   2.165  52.605  1.00  0.00     0.106 N 
HETATM   23  H22 UNL     1      21.345   2.889  52.540  1.00  0.00     0.316 HD
HETATM   24  H23 UNL     1      19.852   2.386  51.944  1.00  0.00     0.316 HD
ENDBRANCH   9  22
TORSDOF 6
ENDMDL
MODEL 4
REMARK VINA RESULT:      -7.4      2.166      6.440
REMARK  6 active torsions:
REMARK  status: ('A' for Active; 'I' for Inactive)
REMARK       I    between atoms: N1_6  and  C6_7 
REMARK    1  A    between atoms: C6_7  and  C7_9 
REMARK    2  A    between atoms: C7_9  and  C8_10 
REMARK    3  A    between atoms: N2_12  and  C10_13 
REMARK    4  A    between atoms: C10_13  and  C11_14 
REMARK    5  A    between atoms: C11_14  and  C12_15 
REMARK    6  A    between atoms: C18_21  and  N3_22 
ROOT
HETATM    1  C1  UNL     1      18.527  -1.126  53.419  1.00  0.00     0.048 C 
HETATM    2  C2  UNL     1      19.989  -0.853  53.394  1.00  0.00    -0.032 A 
HETATM    3  C3  UNL     1      20.730  -1.526  54.262  1.00  0.00     0.008 A 
HETATM    4  C4  UNL     1      22.151  -1.229  54.204  1.00  0.00     0.018 A 
HETATM    5  C5  UNL     1      22.658  -0.359  53.356  1.00  0.00     0.096 A 
HETATM    6  N1  UNL     1      21.831   0.328  52.458  1.00  0.00    -0.293 N 
HETATM    7  C6  UNL     1      22.406   1.282  51.540  1.00  0.00     0.231 C 
HETATM    8  O1  UNL     1      21.688   1.933  50.706  1.00  0.00    -0.273 OA
HETATM    9  C18 UNL     1      20.395   0.144  52.387  1.00  0.00     0.355 A 
ENDROOT
BRANCH   7  10
HETATM   10  C7  UNL     1      23.841   1.596  51.471  1.00  0.00     0.157 C 
BRANCH  10  11
HETATM   11  C8  UNL     1      24.271   2.620  52.475  1.00  0.00     0.011 C 
HETATM   12  C9  UNL     1      23.665   3.976  52.408  1.00  0.00     0.065 C 
HETATM   13  N2  UNL     1      25.098   2.612  53.454  1.00  0.00    -0.298 NA
BRANCH  13  14
HETATM   14  C10 UNL     1      25.819   1.401  53.728  1.00  0.00     0.153 C 
BRANCH  14  15
HETATM   15  C11 UNL     1      27.042   1.445  52.804  1.00  0.00     0.060 C 
BRANCH  15  16
HETATM   16  C12 UNL     1      27.641   0.068  52.921  1.00  0.00    -0.057 A 
HETATM   17  C13 UNL     1      28.931  -0.018  53.417  1.00  0.00     0.007 A 
HETATM   18  C14 UNL     1      29.532  -1.248  53.548  1.00  0.00     0.001 A 
HETATM   19  C15 UNL     1      28.874  -2.411  53.192  1.00  0.00     0.000 A 
HETATM   20  C16 UNL     1      27.584  -2.280  52.699  1.00  0.00     0.001 A 
HETATM   21  C17 UNL     1      26.958  -1.054  52.559  1.00  0.00     0.007 A 
ENDBRANCH  15  16
ENDBRANCH  14  15
ENDBRANCH  13  14
ENDBRANCH  10  11
ENDBRANCH   7  10
BRANCH   9  22
HETATM   22  N3  UNL     1      19.711   1.415  52.555  1.00  0.00     0.106 N 
HETATM   23  H22 UNL     1      18.708   1.258  52.780  1.00  0.00     0.316 HD
HETATM   24  H23 UNL     1      20.128   2.021  53.267  1.00  0.00     0.316 HD
ENDBRANCH   9  22
TORSDOF 6
ENDMDL
MODEL 5
REMARK VINA RESULT:      -7.4      2.320      6.656
REMARK  6 active torsions:
REMARK  status: ('A' for Active; 'I' for Inactive)
REMARK       I    between atoms: N1_6  and  C6_7 
REMARK    1  A    between atoms: C6_7  and  C7_9 
REMARK    2  A    between atoms: C7_9  and  C8_10 
REMARK    3  A    between atoms: N2_12  and  C10_13 
REMARK    4  A    between atoms: C10_13  and  C11_14 
REMARK    5  A    between atoms: C11_14  and  C12_15 
REMARK    6  A    between atoms: C18_21  and  N3_22 
ROOT
HETATM    1  C1  UNL     1      24.513   6.466  48.289  1.00  0.00     0.048 C 
HETATM    2  C2  UNL     1      24.048   5.888  49.579  1.00  0.00    -0.032 A 
HETATM    3  C3  UNL     1      23.042   6.510  50.176  1.00  0.00     0.008 A 
HETATM    4  C4  UNL     1      22.621   5.912  51.432  1.00  0.00     0.018 A 
HETATM    5  C5  UNL     1      23.196   4.839  51.933  1.00  0.00     0.096 A 
HETATM    6  N1  UNL     1      24.258   4.219  51.262  1.00  0.00    -0.293 N 
HETATM    7  C6  UNL     1      24.878   3.046  51.831  1.00  0.00     0.231 C 
HETATM    8  O1  UNL     1      25.851   2.450  51.254  1.00  0.00    -0.273 OA
HETATM    9  C18 UNL     1      24.793   4.688  50.000  1.00  0.00     0.355 A 
ENDROOT
BRANCH   7  10
HETATM   10  C7  UNL     1      24.466   2.431  53.102  1.00  0.00     0.157 C 
BRANCH  10  11
HETATM   11  C8  UNL     1      23.727   1.140  52.921  1.00  0.00     0.011 C 
HETATM   12  C9  UNL     1      22.379   1.178  52.294  1.00  0.00     0.065 C 
HETATM   13  N2  UNL     1      23.994  -0.082  53.196  1.00  0.00    -0.298 NA
BRANCH  13  14
HETATM   14  C10 UNL     1      25.254  -0.383  53.815  1.00  0.00     0.153 C 
BRANCH  14  15
HETATM   15  C11 UNL     1      26.066  -1.112  52.739  1.00  0.00     0.060 C 
BRANCH  15  16
HETATM   16  C12 UNL     1      27.498  -0.792  53.079  1.00  0.00    -0.057 A 
HETATM   17  C13 UNL     1      27.791   0.524  53.397  1.00  0.00     0.007 A 
HETATM   18  C14 UNL     1      29.081   0.878  53.717  1.00  0.00     0.001 A 
HETATM   19  C15 UNL     1      30.100  -0.055  53.726  1.00  0.00     0.000 A 
HETATM   20  C16 UNL     1      29.764  -1.360  53.401  1.00  0.00     0.001 A 
HETATM   21  C17 UNL     1      28.475  -1.741  53.077  1.00  0.00     0.007 A 
ENDBRANCH  15  16
ENDBRANCH  14  15
ENDBRANCH  13  14
ENDBRANCH  10  11
ENDBRANCH   7  10
BRANCH   9  22
HETATM   22  N3  UNL     1      26.222   4.932  50.114  1.00  0.00     0.106 N 
HETATM   23  H22 UNL     1      26.756   4.167  49.656  1.00  0.00     0.316 HD
HETATM   24  H23 UNL     1      26.522   5.832  49.730  1.00  0.00     0.316 HD
ENDBRANCH   9  22
TORSDOF 6
ENDMDL
MODEL 6
REMARK VINA RESULT:      -7.1      2.232      4.526
REMARK  6 active torsions:
REMARK  status: ('A' for Active; 'I' for Inactive)
REMARK       I    between atoms: N1_6  and  C6_7 
REMARK    1  A    between atoms: C6_7  and  C7_9 
REMARK    2  A    between atoms: C7_9  and  C8_10 
REMARK    3  A    between atoms: N2_12  and  C10_13 
REMARK    4  A    between atoms: C10_13  and  C11_14 
REMARK    5  A    between atoms: C11_14  and  C12_15 
REMARK    6  A    between atoms: C18_21  and  N3_22 
ROOT
HETATM    1  C1  UNL     1      27.760  -1.319  53.006  1.00  0.00     0.048 C 
HETATM    2  C2  UNL     1      26.658  -0.357  52.735  1.00  0.00    -0.032 A 
HETATM    3  C3  UNL     1      26.972   0.715  52.022  1.00  0.00     0.008 A 
HETATM    4  C4  UNL     1      25.867   1.626  51.781  1.00  0.00     0.018 A 
HETATM    5  C5  UNL     1      24.652   1.402  52.238  1.00  0.00     0.096 A 
HETATM    6  N1  UNL     1      24.372   0.253  52.988  1.00  0.00    -0.293 N 
HETATM    7  C6  UNL     1      23.035   0.029  53.483  1.00  0.00     0.231 C 
HETATM    8  O1  UNL     1      22.736  -1.004  54.174  1.00  0.00    -0.273 OA
HETATM    9  C18 UNL     1      25.361  -0.755  53.312  1.00  0.00     0.355 A 
ENDROOT
BRANCH   7  10
HETATM   10  C7  UNL     1      21.906   0.944  53.251  1.00  0.00     0.157 C 
BRANCH  10  11
HETATM   11  C8  UNL     1      20.827   0.346  52.401  1.00  0.00     0.011 C 
HETATM   12  C9  UNL     1      19.665  -0.291  53.077  1.00  0.00     0.065 C 
HETATM   13  N2  UNL     1      20.646   0.242  51.138  1.00  0.00    -0.298 NA
BRANCH  13  14
HETATM   14  C10 UNL     1      21.642   0.786  50.259  1.00  0.00     0.153 C 
BRANCH  14  15
HETATM   15  C11 UNL     1      21.106   2.163  49.848  1.00  0.00     0.060 C 
BRANCH  15  16
HETATM   16  C12 UNL     1      22.299   3.074  49.973  1.00  0.00    -0.057 A 
HETATM   17  C13 UNL     1      22.300   3.971  51.028  1.00  0.00     0.007 A 
HETATM   18  C14 UNL     1      23.362   4.829  51.195  1.00  0.00     0.001 A 
HETATM   19  C15 UNL     1      24.437   4.818  50.325  1.00  0.00     0.000 A 
HETATM   20  C16 UNL     1      24.396   3.906  49.283  1.00  0.00     0.001 A 
HETATM   21  C17 UNL     1      23.340   3.032  49.094  1.00  0.00     0.007 A 
ENDBRANCH  15  16
ENDBRANCH  14  15
ENDBRANCH  13  14
ENDBRANCH  10  11
ENDBRANCH   7  10
BRANCH   9  22
HETATM   22  N3  UNL     1      25.430  -0.954  54.750  1.00  0.00     0.106 N 
HETATM   23  H22 UNL     1      24.585  -1.457  55.086  1.00  0.00     0.316 HD
HETATM   24  H23 UNL     1      26.268  -1.453  55.062  1.00  0.00     0.316 HD
ENDBRANCH   9  22
TORSDOF 6
ENDMDL
MODEL 7
REMARK VINA RESULT:      -7.0      3.261      6.925
REMARK  6 active torsions:
REMARK  status: ('A' for Active; 'I' for Inactive)
REMARK       I    between atoms: N1_6  and  C6_7 
REMARK    1  A    between atoms: C6_7  and  C7_9 
REMARK    2  A    between atoms: C7_9  and  C8_10 
REMARK    3  A    between atoms: N2_12  and  C10_13 
REMARK    4  A    between atoms: C10_13  and  C11_14 
REMARK    5  A    between atoms: C11_14  and  C12_15 
REMARK    6  A    between atoms: C18_21  and  N3_22 
ROOT
HETATM    1  C1  UNL     1      27.211   8.784  48.853  1.00  0.00     0.048 C 
HETATM    2  C2  UNL     1      27.132   7.299  48.904  1.00  0.00    -0.032 A 
HETATM    3  C3  UNL     1      28.136   6.635  48.350  1.00  0.00     0.008 A 
HETATM    4  C4  UNL     1      28.017   5.189  48.423  1.00  0.00     0.018 A 
HETATM    5  C5  UNL     1      26.992   4.590  48.993  1.00  0.00     0.096 A 
HETATM    6  N1  UNL     1      25.955   5.339  49.563  1.00  0.00    -0.293 N 
HETATM    7  C6  UNL     1      24.838   4.663  50.179  1.00  0.00     0.231 C 
HETATM    8  O1  UNL     1      23.869   5.308  50.709  1.00  0.00    -0.273 OA
HETATM    9  C18 UNL     1      25.925   6.788  49.577  1.00  0.00     0.355 A 
ENDROOT
BRANCH   7  10
HETATM   10  C7  UNL     1      24.702   3.201  50.258  1.00  0.00     0.157 C 
BRANCH  10  11
HETATM   11  C8  UNL     1      24.651   2.687  51.664  1.00  0.00     0.011 C 
HETATM   12  C9  UNL     1      23.324   2.555  52.322  1.00  0.00     0.065 C 
HETATM   13  N2  UNL     1      25.541   2.304  52.502  1.00  0.00    -0.298 NA
BRANCH  13  14
HETATM   14  C10 UNL     1      26.918   2.338  52.099  1.00  0.00     0.153 C 
BRANCH  14  15
HETATM   15  C11 UNL     1      27.720   2.159  53.393  1.00  0.00     0.060 C 
BRANCH  15  16
HETATM   16  C12 UNL     1      28.197   0.732  53.337  1.00  0.00    -0.057 A 
HETATM   17  C13 UNL     1      29.527   0.499  53.645  1.00  0.00     0.007 A 
HETATM   18  C14 UNL     1      30.021  -0.784  53.611  1.00  0.00     0.001 A 
HETATM   19  C15 UNL     1      29.216  -1.856  53.273  1.00  0.00     0.000 A 
HETATM   20  C16 UNL     1      27.891  -1.578  52.971  1.00  0.00     0.001 A 
HETATM   21  C17 UNL     1      27.370  -0.297  52.999  1.00  0.00     0.007 A 
ENDBRANCH  15  16
ENDBRANCH  14  15
ENDBRANCH  13  14
ENDBRANCH  10  11
ENDBRANCH   7  10
BRANCH   9  22
HETATM   22  N3  UNL     1      24.699   7.276  48.968  1.00  0.00     0.106 N 
HETATM   23  H22 UNL     1      24.267   8.009  49.564  1.00  0.00     0.316 HD
HETATM   24  H23 UNL     1      24.822   7.639  48.018  1.00  0.00     0.316 HD
ENDBRANCH   9  22
TORSDOF 6
ENDMDL
MODEL 8
REMARK VINA RESULT:      -7.0      1.871      2.587
REMARK  6 active torsions:
REMARK  status: ('A' for Active; 'I' for Inactive)
REMARK       I    between atoms: N1_6  and  C6_7 
REMARK    1  A    between atoms: C6_7  and  C7_9 
REMARK    2  A    between atoms: C7_9  and  C8_10 
REMARK    3  A    between atoms: N2_12  and  C10_13 
REMARK    4  A    between atoms: C10_13  and  C11_14 
REMARK    5  A    between atoms: C11_14  and  C12_15 
REMARK    6  A    between atoms: C18_21  and  N3_22 
ROOT
HETATM    1  C1  UNL     1      29.020  -1.343  53.443  1.00  0.00     0.048 C 
HETATM    2  C2  UNL     1      28.204  -0.100  53.375  1.00  0.00    -0.032 A 
HETATM    3  C3  UNL     1      28.864   1.044  53.476  1.00  0.00     0.008 A 
HETATM    4  C4  UNL     1      28.029   2.232  53.404  1.00  0.00     0.018 A 
HETATM    5  C5  UNL     1      26.723   2.171  53.252  1.00  0.00     0.096 A 
HETATM    6  N1  UNL     1      26.073   0.934  53.151  1.00  0.00    -0.293 N 
HETATM    7  C6  UNL     1      24.639   0.889  52.989  1.00  0.00     0.231 C 
HETATM    8  O1  UNL     1      24.006  -0.218  52.895  1.00  0.00    -0.273 OA
HETATM    9  C18 UNL     1      26.761  -0.341  53.200  1.00  0.00     0.355 A 
ENDROOT
BRANCH   7  10
HETATM   10  C7  UNL     1      23.781   2.081  52.918  1.00  0.00     0.157 C 
BRANCH  10  11
HETATM   11  C8  UNL     1      23.588   2.587  51.521  1.00  0.00     0.011 C 
HETATM   12  C9  UNL     1      24.308   3.823  51.111  1.00  0.00     0.065 C 
HETATM   13  N2  UNL     1      22.903   2.185  50.517  1.00  0.00    -0.298 NA
BRANCH  13  14
HETATM   14  C10 UNL     1      22.111   0.997  50.663  1.00  0.00     0.153 C 
BRANCH  14  15
HETATM   15  C11 UNL     1      20.656   1.469  50.569  1.00  0.00     0.060 C 
BRANCH  15  16
HETATM   16  C12 UNL     1      19.916   0.576  51.530  1.00  0.00    -0.057 A 
HETATM   17  C13 UNL     1      18.617   0.230  51.197  1.00  0.00     0.007 A 
HETATM   18  C14 UNL     1      17.890  -0.583  52.034  1.00  0.00     0.001 A 
HETATM   19  C15 UNL     1      18.429  -1.066  53.212  1.00  0.00     0.000 A 
HETATM   20  C16 UNL     1      19.732  -0.695  53.508  1.00  0.00     0.001 A 
HETATM   21  C17 UNL     1      20.483   0.121  52.682  1.00  0.00     0.007 A 
ENDBRANCH  15  16
ENDBRANCH  14  15
ENDBRANCH  13  14
ENDBRANCH  10  11
ENDBRANCH   7  10
BRANCH   9  22
HETATM   22  N3  UNL     1      26.205  -1.176  54.251  1.00  0.00     0.106 N 
HETATM   23  H22 UNL     1      25.416  -1.743  53.882  1.00  0.00     0.316 HD
HETATM   24  H23 UNL     1      26.889  -1.796  54.696  1.00  0.00     0.316 HD
ENDBRANCH   9  22
TORSDOF 6
ENDMDL
MODEL 9
REMARK VINA RESULT:      -7.0      2.171      4.110
REMARK  6 active torsions:
REMARK  status: ('A' for Active; 'I' for Inactive)
REMARK       I    between atoms: N1_6  and  C6_7 
REMARK    1  A    between atoms: C6_7  and  C7_9 
REMARK    2  A    between atoms: C7_9  and  C8_10 
REMARK    3  A    between atoms: N2_12  and  C10_13 
REMARK    4  A    between atoms: C10_13  and  C11_14 
REMARK    5  A    between atoms: C11_14  and  C12_15 
REMARK    6  A    between atoms: C18_21  and  N3_22 
ROOT
HETATM    1  C1  UNL     1      29.052   2.048  53.901  1.00  0.00     0.048 C 
HETATM    2  C2  UNL     1      27.775   1.682  53.230  1.00  0.00    -0.032 A 
HETATM    3  C3  UNL     1      27.494   2.327  52.107  1.00  0.00     0.008 A 
HETATM    4  C4  UNL     1      26.239   1.938  51.485  1.00  0.00     0.018 A 
HETATM    5  C5  UNL     1      25.448   1.020  52.000  1.00  0.00     0.096 A 
HETATM    6  N1  UNL     1      25.792   0.368  53.191  1.00  0.00    -0.293 N 
HETATM    7  C6  UNL     1      24.909  -0.633  53.741  1.00  0.00     0.231 C 
HETATM    8  O1  UNL     1      25.183  -1.250  54.827  1.00  0.00    -0.273 OA
HETATM    9  C18 UNL     1      27.009   0.637  53.931  1.00  0.00     0.355 A 
ENDROOT
BRANCH   7  10
HETATM   10  C7  UNL     1      23.635  -1.035  53.126  1.00  0.00     0.157 C 
BRANCH  10  11
HETATM   11  C8  UNL     1      22.436  -0.565  53.890  1.00  0.00     0.011 C 
HETATM   12  C9  UNL     1      22.005  -1.344  55.081  1.00  0.00     0.065 C 
HETATM   13  N2  UNL     1      21.628   0.420  53.758  1.00  0.00    -0.298 NA
BRANCH  13  14
HETATM   14  C10 UNL     1      21.835   1.331  52.668  1.00  0.00     0.153 C 
BRANCH  14  15
HETATM   15  C11 UNL     1      21.250   0.625  51.439  1.00  0.00     0.060 C 
BRANCH  15  16
HETATM   16  C12 UNL     1      21.821   1.386  50.271  1.00  0.00    -0.057 A 
HETATM   17  C13 UNL     1      21.380   1.026  49.008  1.00  0.00     0.007 A 
HETATM   18  C14 UNL     1      21.865   1.684  47.902  1.00  0.00     0.001 A 
HETATM   19  C15 UNL     1      22.791   2.703  48.022  1.00  0.00     0.000 A 
HETATM   20  C16 UNL     1      23.206   3.031  49.303  1.00  0.00     0.001 A 
HETATM   21  C17 UNL     1      22.733   2.385  50.431  1.00  0.00     0.007 A 
ENDBRANCH  15  16
ENDBRANCH  14  15
ENDBRANCH  13  14
ENDBRANCH  10  11
ENDBRANCH   7  10
BRANCH   9  22
HETATM   22  N3  UNL     1      26.697   1.002  55.303  1.00  0.00     0.106 N 
HETATM   23  H22 UNL     1      27.562   1.287  55.806  1.00  0.00     0.316 HD
HETATM   24  H23 UNL     1      25.996   1.743  55.388  1.00  0.00     0.316 HD
ENDBRANCH   9  22
TORSDOF 6
ENDMDL
