MODEL 1
REMARK VINA RESULT:      -7.3      0.000      0.000
REMARK  4 active torsions:
REMARK  status: ('A' for Active; 'I' for Inactive)
REMARK    1  A    between atoms: C7_9  and  N3_10 
REMARK    2  A    between atoms: C15_20  and  C16_21 
REMARK    3  A    between atoms: C16_21  and  C17_22 
REMARK    4  A    between atoms: C17_22  and  O1_23 
ROOT
HETATM    1  C1  UNL     1      25.995  -1.094  52.333  1.00  0.00     0.046 C 
HETATM    2  C2  UNL     1      25.160   0.122  52.641  1.00  0.00    -0.042 C 
HETATM    3  C3  UNL     1      23.903   0.048  53.118  1.00  0.00     0.073 C 
HETATM    4  C4  UNL     1      22.893  -0.893  53.514  1.00  0.00     0.102 C 
HETATM    5  N1  UNL     1      22.093  -1.666  53.830  1.00  0.00    -0.191 NA
HETATM    6  C5  UNL     1      23.763   1.514  52.986  1.00  0.00     0.067 C 
HETATM    7  N2  UNL     1      23.068   2.639  53.036  1.00  0.00    -0.285 NA
HETATM    8  C6  UNL     1      23.791   3.887  52.698  1.00  0.00     0.206 C 
HETATM    9  C7  UNL     1      24.712   3.554  51.542  1.00  0.00     0.029 C 
HETATM   10  C14 UNL     1      25.430   2.403  51.522  1.00  0.00     0.021 C 
HETATM   11  C15 UNL     1      25.222   1.574  52.685  1.00  0.00     0.051 C 
ENDROOT
BRANCH  11  12
HETATM   12  C16 UNL     1      26.054   2.116  53.849  1.00  0.00     0.051 C 
BRANCH  12  13
HETATM   13  C17 UNL     1      27.508   2.107  53.364  1.00  0.00     0.165 C 
BRANCH  13  14
HETATM   14  O1  UNL     1      28.313   2.857  54.207  1.00  0.00    -0.401 OA
HETATM   15  H17 UNL     1      28.979   3.323  53.643  1.00  0.00     0.209 HD
ENDBRANCH  13  14
ENDBRANCH  12  13
ENDBRANCH  11  12
BRANCH   9  16
HETATM   16  N3  UNL     1      24.832   4.470  50.444  1.00  0.00    -0.349 N 
HETATM   17  C8  UNL     1      26.147   4.690  49.949  1.00  0.00     0.118 A 
HETATM   18  C9  UNL     1      26.280   5.531  48.936  1.00  0.00     0.087 A 
HETATM   19 CL1  UNL     1      27.892   5.814  48.314  1.00  0.00    -0.080 Cl
HETATM   20  C10 UNL     1      25.166   6.233  48.312  1.00  0.00     0.137 A 
HETATM   21  F1  UNL     1      25.307   7.093  47.275  1.00  0.00    -0.204 F 
HETATM   22  C11 UNL     1      23.970   5.990  48.812  1.00  0.00     0.042 A 
HETATM   23  C12 UNL     1      23.620   5.087  49.938  1.00  0.00     0.111 A 
HETATM   24  C13 UNL     1      22.685   4.029  49.384  1.00  0.00     0.037 C 
ENDBRANCH   9  16
TORSDOF 4
ENDMDL
MODEL 2
REMARK VINA RESULT:      -7.2      3.780      6.173
REMARK  4 active torsions:
REMARK  status: ('A' for Active; 'I' for Inactive)
REMARK    1  A    between atoms: C7_9  and  N3_10 
REMARK    2  A    between atoms: C15_20  and  C16_21 
REMARK    3  A    between atoms: C16_21  and  C17_22 
REMARK    4  A    between atoms: C17_22  and  O1_23 
ROOT
HETATM    1  C1  UNL     1      21.646   1.373  48.600  1.00  0.00     0.046 C 
HETATM    2  C2  UNL     1      22.211   2.177  49.742  1.00  0.00    -0.042 C 
HETATM    3  C3  UNL     1      22.356   3.515  49.697  1.00  0.00     0.073 C 
HETATM    4  C4  UNL     1      22.142   4.652  48.846  1.00  0.00     0.102 C 
HETATM    5  N1  UNL     1      21.960   5.555  48.148  1.00  0.00    -0.191 NA
HETATM    6  C5  UNL     1      23.061   3.485  50.997  1.00  0.00     0.067 C 
HETATM    7  N2  UNL     1      23.741   4.053  51.981  1.00  0.00    -0.285 NA
HETATM    8  C6  UNL     1      24.148   3.177  53.104  1.00  0.00     0.206 C 
HETATM    9  C7  UNL     1      24.559   1.854  52.494  1.00  0.00     0.029 C 
HETATM   10  C14 UNL     1      23.836   1.281  51.499  1.00  0.00     0.021 C 
HETATM   11  C15 UNL     1      22.676   2.050  51.114  1.00  0.00     0.051 C 
ENDROOT
BRANCH  11  12
HETATM   12  C16 UNL     1      21.551   1.809  52.122  1.00  0.00     0.051 C 
BRANCH  12  13
HETATM   13  C17 UNL     1      21.437   0.287  52.267  1.00  0.00     0.165 C 
BRANCH  13  14
HETATM   14  O1  UNL     1      21.150  -0.062  53.578  1.00  0.00    -0.401 OA
HETATM   15  H17 UNL     1      20.208  -0.366  53.603  1.00  0.00     0.209 HD
ENDBRANCH  13  14
ENDBRANCH  12  13
ENDBRANCH  11  12
BRANCH   9  16
HETATM   16  N3  UNL     1      25.737   1.186  52.972  1.00  0.00    -0.349 N 
HETATM   17  C8  UNL     1      26.856   2.015  53.259  1.00  0.00     0.118 A 
HETATM   18  C9  UNL     1      27.952   1.419  53.701  1.00  0.00     0.087 A 
HETATM   19 CL1  UNL     1      29.341   2.423  54.059  1.00  0.00    -0.080 Cl
HETATM   20  C10 UNL     1      28.068  -0.019  53.906  1.00  0.00     0.137 A 
HETATM   21  F1  UNL     1      29.192  -0.624  54.360  1.00  0.00    -0.204 F 
HETATM   22  C11 UNL     1      26.998  -0.736  53.624  1.00  0.00     0.042 A 
HETATM   23  C12 UNL     1      25.686  -0.256  53.120  1.00  0.00     0.111 A 
HETATM   24  C13 UNL     1      24.647  -0.641  54.154  1.00  0.00     0.037 C 
ENDBRANCH   9  16
TORSDOF 4
ENDMDL
MODEL 3
REMARK VINA RESULT:      -7.1      4.054      6.747
REMARK  4 active torsions:
REMARK  status: ('A' for Active; 'I' for Inactive)
REMARK    1  A    between atoms: C7_9  and  N3_10 
REMARK    2  A    between atoms: C15_20  and  C16_21 
REMARK    3  A    between atoms: C16_21  and  C17_22 
REMARK    4  A    between atoms: C17_22  and  O1_23 
ROOT
HETATM    1  C1  UNL     1      24.548   6.897  51.207  1.00  0.00     0.046 C 
HETATM    2  C2  UNL     1      23.894   5.608  50.783  1.00  0.00    -0.042 C 
HETATM    3  C3  UNL     1      22.650   5.550  50.269  1.00  0.00     0.073 C 
HETATM    4  C4  UNL     1      21.532   6.375  49.907  1.00  0.00     0.102 C 
HETATM    5  N1  UNL     1      20.643   7.056  49.621  1.00  0.00    -0.191 NA
HETATM    6  C5  UNL     1      22.708   4.072  50.289  1.00  0.00     0.067 C 
HETATM    7  N2  UNL     1      22.174   2.871  50.132  1.00  0.00    -0.285 NA
HETATM    8  C6  UNL     1      23.052   1.709  50.404  1.00  0.00     0.206 C 
HETATM    9  C7  UNL     1      23.889   2.072  51.612  1.00  0.00     0.029 C 
HETATM   10  C14 UNL     1      24.444   3.303  51.742  1.00  0.00     0.021 C 
HETATM   11  C15 UNL     1      24.154   4.185  50.635  1.00  0.00     0.051 C 
ENDROOT
BRANCH  11  12
HETATM   12  C16 UNL     1      25.080   3.850  49.465  1.00  0.00     0.051 C 
BRANCH  12  13
HETATM   13  C17 UNL     1      26.454   3.569  50.086  1.00  0.00     0.165 C 
BRANCH  13  14
HETATM   14  O1  UNL     1      27.355   4.571  49.759  1.00  0.00    -0.401 OA
HETATM   15  H17 UNL     1      27.361   4.652  48.772  1.00  0.00     0.209 HD
ENDBRANCH  13  14
ENDBRANCH  12  13
ENDBRANCH  11  12
BRANCH   9  16
HETATM   16  N3  UNL     1      24.105   1.098  52.645  1.00  0.00    -0.349 N 
HETATM   17  C8  UNL     1      22.954   0.400  53.102  1.00  0.00     0.118 A 
HETATM   18  C9  UNL     1      23.132  -0.502  54.054  1.00  0.00     0.087 A 
HETATM   19 CL1  UNL     1      21.726  -1.371  54.630  1.00  0.00    -0.080 Cl
HETATM   20  C10 UNL     1      24.426  -0.811  54.648  1.00  0.00     0.137 A 
HETATM   21  F1  UNL     1      24.603  -1.736  55.622  1.00  0.00    -0.204 F 
HETATM   22  C11 UNL     1      25.458  -0.133  54.184  1.00  0.00     0.042 A 
HETATM   23  C12 UNL     1      25.461   0.912  53.128  1.00  0.00     0.111 A 
HETATM   24  C13 UNL     1      26.352   0.409  52.010  1.00  0.00     0.037 C 
ENDBRANCH   9  16
TORSDOF 4
ENDMDL
MODEL 4
REMARK VINA RESULT:      -7.1      8.522      9.664
REMARK  4 active torsions:
REMARK  status: ('A' for Active; 'I' for Inactive)
REMARK    1  A    between atoms: C7_9  and  N3_10 
REMARK    2  A    between atoms: C15_20  and  C16_21 
REMARK    3  A    between atoms: C16_21  and  C17_22 
REMARK    4  A    between atoms: C17_22  and  O1_23 
ROOT
HETATM    1  C1  UNL     1      35.018   3.896  45.596  1.00  0.00     0.046 C 
HETATM    2  C2  UNL     1      34.050   4.208  46.707  1.00  0.00    -0.042 C 
HETATM    3  C3  UNL     1      33.170   3.309  47.188  1.00  0.00     0.073 C 
HETATM    4  C4  UNL     1      32.735   1.950  47.029  1.00  0.00     0.102 C 
HETATM    5  N1  UNL     1      32.399   0.853  46.887  1.00  0.00    -0.191 NA
HETATM    6  C5  UNL     1      32.555   4.358  48.030  1.00  0.00     0.067 C 
HETATM    7  N2  UNL     1      31.633   4.803  48.869  1.00  0.00    -0.285 NA
HETATM    8  C6  UNL     1      31.750   6.214  49.304  1.00  0.00     0.206 C 
HETATM    9  C7  UNL     1      32.191   7.006  48.090  1.00  0.00     0.029 C 
HETATM   10  C14 UNL     1      33.153   6.538  47.255  1.00  0.00     0.021 C 
HETATM   11  C15 UNL     1      33.683   5.253  47.649  1.00  0.00     0.051 C 
ENDROOT
BRANCH  11  12
HETATM   12  C16 UNL     1      34.702   5.450  48.772  1.00  0.00     0.051 C 
BRANCH  12  13
HETATM   13  C17 UNL     1      35.422   6.767  48.460  1.00  0.00     0.165 C 
BRANCH  13  14
HETATM   14  O1  UNL     1      36.579   6.886  49.214  1.00  0.00    -0.401 OA
HETATM   15  H17 UNL     1      37.291   6.382  48.745  1.00  0.00     0.209 HD
ENDBRANCH  13  14
ENDBRANCH  12  13
ENDBRANCH  11  12
BRANCH   9  16
HETATM   16  N3  UNL     1      31.585   8.276  47.812  1.00  0.00    -0.349 N 
HETATM   17  C8  UNL     1      32.470   9.334  47.467  1.00  0.00     0.118 A 
HETATM   18  C9  UNL     1      31.931  10.515  47.206  1.00  0.00     0.087 A 
HETATM   19 CL1  UNL     1      33.006  11.828  46.781  1.00  0.00    -0.080 Cl
HETATM   20  C10 UNL     1      30.500  10.781  47.254  1.00  0.00     0.137 A 
HETATM   21  F1  UNL     1      29.952  11.991  46.987  1.00  0.00    -0.204 F 
HETATM   22  C11 UNL     1      29.727   9.762  47.580  1.00  0.00     0.042 A 
HETATM   23  C12 UNL     1      30.140   8.374  47.905  1.00  0.00     0.111 A 
HETATM   24  C13 UNL     1      29.486   7.466  46.882  1.00  0.00     0.037 C 
ENDBRANCH   9  16
TORSDOF 4
ENDMDL
MODEL 5
REMARK VINA RESULT:      -7.0      4.561      5.896
REMARK  4 active torsions:
REMARK  status: ('A' for Active; 'I' for Inactive)
REMARK    1  A    between atoms: C7_9  and  N3_10 
REMARK    2  A    between atoms: C15_20  and  C16_21 
REMARK    3  A    between atoms: C16_21  and  C17_22 
REMARK    4  A    between atoms: C17_22  and  O1_23 
ROOT
HETATM    1  C1  UNL     1      26.729   1.767  50.994  1.00  0.00     0.046 C 
HETATM    2  C2  UNL     1      25.714   1.218  51.962  1.00  0.00    -0.042 C 
HETATM    3  C3  UNL     1      25.953   0.151  52.750  1.00  0.00     0.073 C 
HETATM    4  C4  UNL     1      26.965  -0.813  53.079  1.00  0.00     0.102 C 
HETATM    5  N1  UNL     1      27.792  -1.579  53.331  1.00  0.00    -0.191 NA
HETATM    6  C5  UNL     1      24.545   0.167  53.202  1.00  0.00     0.067 C 
HETATM    7  N2  UNL     1      23.516  -0.335  53.868  1.00  0.00    -0.285 NA
HETATM    8  C6  UNL     1      22.240   0.412  53.790  1.00  0.00     0.206 C 
HETATM    9  C7  UNL     1      22.117   0.912  52.365  1.00  0.00     0.029 C 
HETATM   10  C14 UNL     1      23.181   1.442  51.709  1.00  0.00     0.021 C 
HETATM   11  C15 UNL     1      24.388   1.473  52.501  1.00  0.00     0.051 C 
ENDROOT
BRANCH  11  12
HETATM   12  C16 UNL     1      24.335   2.667  53.457  1.00  0.00     0.051 C 
BRANCH  12  13
HETATM   13  C17 UNL     1      23.861   3.856  52.615  1.00  0.00     0.165 C 
BRANCH  13  14
HETATM   14  O1  UNL     1      23.797   5.009  53.384  1.00  0.00    -0.401 OA
HETATM   15  H17 UNL     1      24.342   5.698  52.929  1.00  0.00     0.209 HD
ENDBRANCH  13  14
ENDBRANCH  12  13
ENDBRANCH  11  12
BRANCH   9  16
HETATM   16  N3  UNL     1      20.854   0.826  51.689  1.00  0.00    -0.349 N 
HETATM   17  C8  UNL     1      19.891  -0.048  52.263  1.00  0.00     0.118 A 
HETATM   18  C9  UNL     1      18.719  -0.141  51.655  1.00  0.00     0.087 A 
HETATM   19 CL1  UNL     1      17.522  -1.213  52.348  1.00  0.00    -0.080 Cl
HETATM   20  C10 UNL     1      18.371   0.594  50.446  1.00  0.00     0.137 A 
HETATM   21  F1  UNL     1      17.170   0.496  49.827  1.00  0.00    -0.204 F 
HETATM   22  C11 UNL     1      19.304   1.390  49.959  1.00  0.00     0.042 A 
HETATM   23  C12 UNL     1      20.669   1.627  50.493  1.00  0.00     0.111 A 
HETATM   24  C13 UNL     1      20.763   3.102  50.830  1.00  0.00     0.037 C 
ENDBRANCH   9  16
TORSDOF 4
ENDMDL
MODEL 6
REMARK VINA RESULT:      -7.0      2.883      3.950
REMARK  4 active torsions:
REMARK  status: ('A' for Active; 'I' for Inactive)
REMARK    1  A    between atoms: C7_9  and  N3_10 
REMARK    2  A    between atoms: C15_20  and  C16_21 
REMARK    3  A    between atoms: C16_21  and  C17_22 
REMARK    4  A    between atoms: C17_22  and  O1_23 
ROOT
HETATM    1  C1  UNL     1      20.189   0.536  50.718  1.00  0.00     0.046 C 
HETATM    2  C2  UNL     1      20.802   1.775  51.316  1.00  0.00    -0.042 C 
HETATM    3  C3  UNL     1      20.075   2.838  51.709  1.00  0.00     0.073 C 
HETATM    4  C4  UNL     1      18.726   3.321  51.796  1.00  0.00     0.102 C 
HETATM    5  N1  UNL     1      17.632   3.691  51.859  1.00  0.00    -0.191 NA
HETATM    6  C5  UNL     1      21.319   3.593  51.978  1.00  0.00     0.067 C 
HETATM    7  N2  UNL     1      21.982   4.689  52.309  1.00  0.00    -0.285 NA
HETATM    8  C6  UNL     1      23.459   4.590  52.351  1.00  0.00     0.206 C 
HETATM    9  C7  UNL     1      23.868   3.718  51.182  1.00  0.00     0.029 C 
HETATM   10  C14 UNL     1      23.185   2.587  50.874  1.00  0.00     0.021 C 
HETATM   11  C15 UNL     1      22.073   2.326  51.758  1.00  0.00     0.051 C 
ENDROOT
BRANCH  11  12
HETATM   12  C16 UNL     1      22.593   1.702  53.054  1.00  0.00     0.051 C 
BRANCH  12  13
HETATM   13  C17 UNL     1      23.551   0.585  52.627  1.00  0.00     0.165 C 
BRANCH  13  14
HETATM   14  O1  UNL     1      23.052  -0.657  52.990  1.00  0.00    -0.401 OA
HETATM   15  H17 UNL     1      23.522  -0.934  53.816  1.00  0.00     0.209 HD
ENDBRANCH  13  14
ENDBRANCH  12  13
ENDBRANCH  11  12
BRANCH   9  16
HETATM   16  N3  UNL     1      25.000   4.088  50.381  1.00  0.00    -0.349 N 
HETATM   17  C8  UNL     1      25.041   5.439  49.938  1.00  0.00     0.118 A 
HETATM   18  C9  UNL     1      26.077   5.802  49.197  1.00  0.00     0.087 A 
HETATM   19 CL1  UNL     1      26.144   7.460  48.642  1.00  0.00    -0.080 Cl
HETATM   20  C10 UNL     1      27.159   4.902  48.820  1.00  0.00     0.137 A 
HETATM   21  F1  UNL     1      28.217   5.278  48.062  1.00  0.00    -0.204 F 
HETATM   22  C11 UNL     1      27.067   3.662  49.260  1.00  0.00     0.042 A 
HETATM   23  C12 UNL     1      25.992   3.069  50.095  1.00  0.00     0.111 A 
HETATM   24  C13 UNL     1      26.640   2.593  51.380  1.00  0.00     0.037 C 
ENDBRANCH   9  16
TORSDOF 4
ENDMDL
MODEL 7
REMARK VINA RESULT:      -7.0      3.925      6.709
REMARK  4 active torsions:
REMARK  status: ('A' for Active; 'I' for Inactive)
REMARK    1  A    between atoms: C7_9  and  N3_10 
REMARK    2  A    between atoms: C15_20  and  C16_21 
REMARK    3  A    between atoms: C16_21  and  C17_22 
REMARK    4  A    between atoms: C17_22  and  O1_23 
ROOT
HETATM    1  C1  UNL     1      24.385   6.636  51.195  1.00  0.00     0.046 C 
HETATM    2  C2  UNL     1      23.701   5.467  50.537  1.00  0.00    -0.042 C 
HETATM    3  C3  UNL     1      22.657   5.605  49.697  1.00  0.00     0.073 C 
HETATM    4  C4  UNL     1      21.815   6.594  49.086  1.00  0.00     0.102 C 
HETATM    5  N1  UNL     1      21.149   7.406  48.602  1.00  0.00    -0.191 NA
HETATM    6  C5  UNL     1      22.495   4.135  49.653  1.00  0.00     0.067 C 
HETATM    7  N2  UNL     1      21.861   3.031  49.290  1.00  0.00    -0.285 NA
HETATM    8  C6  UNL     1      22.452   1.746  49.730  1.00  0.00     0.206 C 
HETATM    9  C7  UNL     1      22.958   1.963  51.141  1.00  0.00     0.029 C 
HETATM   10  C14 UNL     1      23.624   3.095  51.485  1.00  0.00     0.021 C 
HETATM   11  C15 UNL     1      23.786   4.023  50.390  1.00  0.00     0.051 C 
ENDROOT
BRANCH  11  12
HETATM   12  C16 UNL     1      24.947   3.565  49.506  1.00  0.00     0.051 C 
BRANCH  12  13
HETATM   13  C17 UNL     1      26.061   3.136  50.467  1.00  0.00     0.165 C 
BRANCH  13  14
HETATM   14  O1  UNL     1      27.162   3.970  50.347  1.00  0.00    -0.401 OA
HETATM   15  H17 UNL     1      27.404   4.273  51.258  1.00  0.00     0.209 HD
ENDBRANCH  13  14
ENDBRANCH  12  13
ENDBRANCH  11  12
BRANCH   9  16
HETATM   16  N3  UNL     1      22.734   0.956  52.139  1.00  0.00    -0.349 N 
HETATM   17  C8  UNL     1      23.872   0.550  52.889  1.00  0.00     0.118 A 
HETATM   18  C9  UNL     1      23.687  -0.378  53.815  1.00  0.00     0.087 A 
HETATM   19 CL1  UNL     1      25.077  -0.891  54.747  1.00  0.00    -0.080 Cl
HETATM   20  C10 UNL     1      22.398  -0.994  54.099  1.00  0.00     0.137 A 
HETATM   21  F1  UNL     1      22.213  -1.944  55.048  1.00  0.00    -0.204 F 
HETATM   22  C11 UNL     1      21.379  -0.578  53.373  1.00  0.00     0.042 A 
HETATM   23  C12 UNL     1      21.386   0.444  52.296  1.00  0.00     0.111 A 
HETATM   24  C13 UNL     1      20.451   1.555  52.733  1.00  0.00     0.037 C 
ENDBRANCH   9  16
TORSDOF 4
ENDMDL
MODEL 8
REMARK VINA RESULT:      -7.0      3.494      4.337
REMARK  4 active torsions:
REMARK  status: ('A' for Active; 'I' for Inactive)
REMARK    1  A    between atoms: C7_9  and  N3_10 
REMARK    2  A    between atoms: C15_20  and  C16_21 
REMARK    3  A    between atoms: C16_21  and  C17_22 
REMARK    4  A    between atoms: C17_22  and  O1_23 
ROOT
HETATM    1  C1  UNL     1      21.246  -0.093  54.589  1.00  0.00     0.046 C 
HETATM    2  C2  UNL     1      22.122   0.409  53.471  1.00  0.00    -0.042 C 
HETATM    3  C3  UNL     1      23.448   0.182  53.419  1.00  0.00     0.073 C 
HETATM    4  C4  UNL     1      24.518  -0.461  54.129  1.00  0.00     0.102 C 
HETATM    5  N1  UNL     1      25.366  -0.986  54.714  1.00  0.00    -0.191 NA
HETATM    6  C5  UNL     1      23.556   1.065  52.238  1.00  0.00     0.067 C 
HETATM    7  N2  UNL     1      24.245   1.715  51.313  1.00  0.00    -0.285 NA
HETATM    8  C6  UNL     1      23.467   2.514  50.338  1.00  0.00     0.206 C 
HETATM    9  C7  UNL     1      22.339   3.163  51.113  1.00  0.00     0.029 C 
HETATM   10  C14 UNL     1      21.633   2.471  52.043  1.00  0.00     0.021 C 
HETATM   11  C15 UNL     1      22.067   1.102  52.194  1.00  0.00     0.051 C 
ENDROOT
BRANCH  11  12
HETATM   12  C16 UNL     1      21.477   0.257  51.064  1.00  0.00     0.051 C 
BRANCH  12  13
HETATM   13  C17 UNL     1      20.021   0.713  50.915  1.00  0.00     0.165 C 
BRANCH  13  14
HETATM   14  O1  UNL     1      19.169  -0.119  51.625  1.00  0.00    -0.401 OA
HETATM   15  H17 UNL     1      19.704  -0.551  52.338  1.00  0.00     0.209 HD
ENDBRANCH  13  14
ENDBRANCH  12  13
ENDBRANCH  11  12
BRANCH   9  16
HETATM   16  N3  UNL     1      22.004   4.536  50.864  1.00  0.00    -0.349 N 
HETATM   17  C8  UNL     1      23.066   5.474  50.983  1.00  0.00     0.118 A 
HETATM   18  C9  UNL     1      22.778   6.746  50.756  1.00  0.00     0.087 A 
HETATM   19 CL1  UNL     1      24.073   7.915  50.899  1.00  0.00    -0.080 Cl
HETATM   20  C10 UNL     1      21.450   7.226  50.398  1.00  0.00     0.137 A 
HETATM   21  F1  UNL     1      21.161   8.529  50.167  1.00  0.00    -0.204 F 
HETATM   22  C11 UNL     1      20.505   6.311  50.302  1.00  0.00     0.042 A 
HETATM   23  C12 UNL     1      20.630   4.847  50.517  1.00  0.00     0.111 A 
HETATM   24  C13 UNL     1      20.253   4.174  49.212  1.00  0.00     0.037 C 
ENDBRANCH   9  16
TORSDOF 4
ENDMDL
MODEL 9
REMARK VINA RESULT:      -6.8      7.692     10.419
REMARK  4 active torsions:
REMARK  status: ('A' for Active; 'I' for Inactive)
REMARK    1  A    between atoms: C7_9  and  N3_10 
REMARK    2  A    between atoms: C15_20  and  C16_21 
REMARK    3  A    between atoms: C16_21  and  C17_22 
REMARK    4  A    between atoms: C17_22  and  O1_23 
ROOT
HETATM    1  C1  UNL     1      28.344   9.355  45.573  1.00  0.00     0.046 C 
HETATM    2  C2  UNL     1      29.177   9.195  46.818  1.00  0.00    -0.042 C 
HETATM    3  C3  UNL     1      29.646  10.240  47.527  1.00  0.00     0.073 C 
HETATM    4  C4  UNL     1      29.653  11.675  47.564  1.00  0.00     0.102 C 
HETATM    5  N1  UNL     1      29.646  12.831  47.577  1.00  0.00    -0.191 NA
HETATM    6  C5  UNL     1      30.421   9.315  48.383  1.00  0.00     0.067 C 
HETATM    7  N2  UNL     1      31.295   9.051  49.341  1.00  0.00    -0.285 NA
HETATM    8  C6  UNL     1      31.559   7.623  49.630  1.00  0.00     0.206 C 
HETATM    9  C7  UNL     1      31.581   6.908  48.295  1.00  0.00     0.029 C 
HETATM   10  C14 UNL     1      30.663   7.180  47.335  1.00  0.00     0.021 C 
HETATM   11  C15 UNL     1      29.703   8.187  47.724  1.00  0.00     0.051 C 
ENDROOT
BRANCH  11  12
HETATM   12  C16 UNL     1      28.636   7.550  48.616  1.00  0.00     0.051 C 
BRANCH  12  13
HETATM   13  C17 UNL     1      28.432   6.130  48.076  1.00  0.00     0.165 C 
BRANCH  13  14
HETATM   14  O1  UNL     1      28.478   5.201  49.105  1.00  0.00    -0.401 OA
HETATM   15  H17 UNL     1      28.436   4.302  48.693  1.00  0.00     0.209 HD
ENDBRANCH  13  14
ENDBRANCH  12  13
ENDBRANCH  11  12
BRANCH   9  16
HETATM   16  N3  UNL     1      32.591   5.921  48.034  1.00  0.00    -0.349 N 
HETATM   17  C8  UNL     1      32.128   4.644  47.617  1.00  0.00     0.118 A 
HETATM   18  C9  UNL     1      33.043   3.719  47.371  1.00  0.00     0.087 A 
HETATM   19 CL1  UNL     1      32.491   2.140  46.857  1.00  0.00    -0.080 Cl
HETATM   20  C10 UNL     1      34.476   3.941  47.504  1.00  0.00     0.137 A 
HETATM   21  F1  UNL     1      35.409   2.991  47.251  1.00  0.00    -0.204 F 
HETATM   22  C11 UNL     1      34.847   5.145  47.894  1.00  0.00     0.042 A 
HETATM   23  C12 UNL     1      33.978   6.305  48.216  1.00  0.00     0.111 A 
HETATM   24  C13 UNL     1      34.346   7.416  47.252  1.00  0.00     0.037 C 
ENDBRANCH   9  16
TORSDOF 4
ENDMDL
