MODEL 1
REMARK VINA RESULT:      -8.1      0.000      0.000
REMARK  2 active torsions:
REMARK  status: ('A' for Active; 'I' for Inactive)
REMARK    1  A    between atoms: O1_1  and  N1_2 
REMARK    2  A    between atoms: N1_2  and  C1_3 
ROOT
HETATM    1  C1  UNL     1      26.592  -0.154  53.792  1.00  0.00     0.267 C 
HETATM    2  N2  UNL     1      25.428  -0.109  54.342  1.00  0.00    -0.201 NA
HETATM    3  C2  UNL     1      24.907  -1.076  55.223  1.00  0.00     0.231 C 
HETATM    4  N3  UNL     1      23.849  -0.606  54.605  1.00  0.00    -0.278 NA
HETATM    5  C3  UNL     1      22.601  -1.209  55.019  1.00  0.00     0.185 C 
HETATM    6  C4  UNL     1      21.453  -0.803  54.182  1.00  0.00    -0.043 C 
HETATM    7  C5  UNL     1      21.884  -1.160  52.972  1.00  0.00    -0.019 C 
HETATM    8  C6  UNL     1      22.391  -0.079  52.391  1.00  0.00     0.044 C 
HETATM    9  C7  UNL     1      21.492   1.072  52.352  1.00  0.00     0.061 C 
HETATM   10  C8  UNL     1      20.281   0.865  52.849  1.00  0.00     0.077 C 
HETATM   11  C9  UNL     1      20.116  -0.238  53.866  1.00  0.00     0.103 C 
HETATM   12  O2  UNL     1      19.229   1.658  52.420  1.00  0.00    -0.351 OA
HETATM   13  C10 UNL     1      19.554   2.851  51.719  1.00  0.00     0.195 C 
HETATM   14  C11 UNL     1      20.901   3.345  52.231  1.00  0.00     0.149 C 
HETATM   15  N4  UNL     1      21.863   2.339  51.822  1.00  0.00    -0.377 N 
HETATM   16  C12 UNL     1      23.021   2.564  51.005  1.00  0.00     0.123 C 
HETATM   17  C13 UNL     1      24.312   2.432  51.839  1.00  0.00     0.020 C 
HETATM   18  C14 UNL     1      25.434   2.681  50.881  1.00  0.00     0.004 C 
HETATM   19  C15 UNL     1      26.812   2.669  51.421  1.00  0.00     0.027 C 
HETATM   20  C16 UNL     1      27.172   1.353  52.023  1.00  0.00     0.179 C 
HETATM   21  O3  UNL     1      26.372   1.065  53.119  1.00  0.00    -0.319 OA
ENDROOT
BRANCH   1  22
HETATM   22  N1  UNL     1      27.707  -1.056  53.815  1.00  0.00    -0.231 N 
HETATM   23  H2  UNL     1      27.499  -1.843  53.163  1.00  0.00     0.198 HD
BRANCH  22  24
HETATM   24  O1  UNL     1      28.618  -0.560  54.670  1.00  0.00    -0.287 OA
HETATM   25  H1  UNL     1      28.675  -1.113  55.485  1.00  0.00     0.244 HD
ENDBRANCH  22  24
ENDBRANCH   1  22
TORSDOF 2
ENDMDL
MODEL 2
REMARK VINA RESULT:      -8.0      3.192      6.178
REMARK  2 active torsions:
REMARK  status: ('A' for Active; 'I' for Inactive)
REMARK    1  A    between atoms: O1_1  and  N1_2 
REMARK    2  A    between atoms: N1_2  and  C1_3 
ROOT
HETATM    1  C1  UNL     1      19.115  -0.612  53.026  1.00  0.00     0.267 C 
HETATM    2  N2  UNL     1      19.213   0.466  52.325  1.00  0.00    -0.201 NA
HETATM    3  C2  UNL     1      18.267   0.909  51.381  1.00  0.00     0.231 C 
HETATM    4  N3  UNL     1      19.412   1.350  50.916  1.00  0.00    -0.278 NA
HETATM    5  C3  UNL     1      19.307   2.089  49.677  1.00  0.00     0.185 C 
HETATM    6  C4  UNL     1      20.618   2.410  49.077  1.00  0.00    -0.043 C 
HETATM    7  C5  UNL     1      21.151   1.193  48.970  1.00  0.00    -0.019 C 
HETATM    8  C6  UNL     1      21.940   1.007  50.023  1.00  0.00     0.044 C 
HETATM    9  C7  UNL     1      22.945   2.047  50.224  1.00  0.00     0.061 C 
HETATM   10  C8  UNL     1      22.970   3.000  49.304  1.00  0.00     0.077 C 
HETATM   11  C9  UNL     1      21.704   3.260  48.524  1.00  0.00     0.103 C 
HETATM   12  O2  UNL     1      24.141   3.711  49.098  1.00  0.00    -0.351 OA
HETATM   13  C10 UNL     1      25.153   3.605  50.090  1.00  0.00     0.195 C 
HETATM   14  C11 UNL     1      24.472   3.366  51.431  1.00  0.00     0.149 C 
HETATM   15  N4  UNL     1      23.850   2.060  51.323  1.00  0.00    -0.377 N 
HETATM   16  C12 UNL     1      24.094   0.936  52.180  1.00  0.00     0.123 C 
HETATM   17  C13 UNL     1      22.869   0.654  53.074  1.00  0.00     0.020 C 
HETATM   18  C14 UNL     1      23.246  -0.529  53.907  1.00  0.00     0.004 C 
HETATM   19  C15 UNL     1      22.267  -1.002  54.911  1.00  0.00     0.027 C 
HETATM   20  C16 UNL     1      20.979  -1.427  54.289  1.00  0.00     0.179 C 
HETATM   21  O3  UNL     1      20.345  -0.361  53.666  1.00  0.00    -0.319 OA
ENDROOT
BRANCH   1  22
HETATM   22  N1  UNL     1      18.161  -1.676  53.149  1.00  0.00    -0.231 N 
HETATM   23  H2  UNL     1      18.462  -2.452  52.520  1.00  0.00     0.198 HD
BRANCH  22  24
HETATM   24  O1  UNL     1      17.226  -1.288  54.032  1.00  0.00    -0.287 OA
HETATM   25  H1  UNL     1      17.377  -1.707  54.913  1.00  0.00     0.244 HD
ENDBRANCH  22  24
ENDBRANCH   1  22
TORSDOF 2
ENDMDL
MODEL 3
REMARK VINA RESULT:      -7.9      1.979      4.710
REMARK  2 active torsions:
REMARK  status: ('A' for Active; 'I' for Inactive)
REMARK    1  A    between atoms: O1_1  and  N1_2 
REMARK    2  A    between atoms: N1_2  and  C1_3 
ROOT
HETATM    1  C1  UNL     1      24.208  -1.155  54.692  1.00  0.00     0.267 C 
HETATM    2  N2  UNL     1      24.850  -0.825  53.624  1.00  0.00    -0.201 NA
HETATM    3  C2  UNL     1      26.248  -0.881  53.468  1.00  0.00     0.231 C 
HETATM    4  N3  UNL     1      25.883   0.119  52.701  1.00  0.00    -0.278 NA
HETATM    5  C3  UNL     1      26.973   0.770  52.009  1.00  0.00     0.185 C 
HETATM    6  C4  UNL     1      26.564   2.003  51.306  1.00  0.00    -0.043 C 
HETATM    7  C5  UNL     1      26.029   2.700  52.309  1.00  0.00    -0.019 C 
HETATM    8  C6  UNL     1      24.714   2.517  52.268  1.00  0.00     0.044 C 
HETATM    9  C7  UNL     1      24.096   2.819  50.981  1.00  0.00     0.061 C 
HETATM   10  C8  UNL     1      24.917   3.284  50.049  1.00  0.00     0.077 C 
HETATM   11  C9  UNL     1      26.381   2.937  50.166  1.00  0.00     0.103 C 
HETATM   12  O2  UNL     1      24.405   4.059  49.021  1.00  0.00    -0.351 OA
HETATM   13  C10 UNL     1      22.996   4.051  48.836  1.00  0.00     0.195 C 
HETATM   14  C11 UNL     1      22.471   2.693  49.285  1.00  0.00     0.149 C 
HETATM   15  N4  UNL     1      22.709   2.639  50.715  1.00  0.00    -0.377 N 
HETATM   16  C12 UNL     1      21.714   2.436  51.728  1.00  0.00     0.123 C 
HETATM   17  C13 UNL     1      21.866   1.043  52.372  1.00  0.00     0.020 C 
HETATM   18  C14 UNL     1      20.785   0.959  53.402  1.00  0.00     0.004 C 
HETATM   19  C15 UNL     1      20.653  -0.307  54.157  1.00  0.00     0.027 C 
HETATM   20  C16 UNL     1      21.884  -0.632  54.936  1.00  0.00     0.179 C 
HETATM   21  O3  UNL     1      22.969  -0.843  54.097  1.00  0.00    -0.319 OA
ENDROOT
BRANCH   1  22
HETATM   22  N1  UNL     1      24.558  -1.648  55.993  1.00  0.00    -0.231 N 
HETATM   23  H2  UNL     1      23.938  -2.459  56.208  1.00  0.00     0.198 HD
BRANCH  22  24
HETATM   24  O1  UNL     1      25.560  -0.887  56.464  1.00  0.00    -0.287 OA
HETATM   25  H1  UNL     1      25.208  -0.098  56.942  1.00  0.00     0.244 HD
ENDBRANCH  22  24
ENDBRANCH   1  22
TORSDOF 2
ENDMDL
MODEL 4
REMARK VINA RESULT:      -7.9      2.628      4.438
REMARK  2 active torsions:
REMARK  status: ('A' for Active; 'I' for Inactive)
REMARK    1  A    between atoms: O1_1  and  N1_2 
REMARK    2  A    between atoms: N1_2  and  C1_3 
ROOT
HETATM    1  C1  UNL     1      25.956   3.110  50.328  1.00  0.00     0.267 C 
HETATM    2  N2  UNL     1      25.965   2.732  51.560  1.00  0.00    -0.201 NA
HETATM    3  C2  UNL     1      27.120   2.512  52.334  1.00  0.00     0.231 C 
HETATM    4  N3  UNL     1      26.246   1.665  52.822  1.00  0.00    -0.278 NA
HETATM    5  C3  UNL     1      26.743   0.855  53.912  1.00  0.00     0.185 C 
HETATM    6  C4  UNL     1      25.808  -0.215  54.317  1.00  0.00    -0.043 C 
HETATM    7  C5  UNL     1      25.644  -0.858  53.160  1.00  0.00    -0.019 C 
HETATM    8  C6  UNL     1      24.523  -0.407  52.608  1.00  0.00     0.044 C 
HETATM    9  C7  UNL     1      23.345  -0.484  53.467  1.00  0.00     0.061 C 
HETATM   10  C8  UNL     1      23.541  -1.040  54.654  1.00  0.00     0.077 C 
HETATM   11  C9  UNL     1      24.939  -1.009  55.223  1.00  0.00     0.103 C 
HETATM   12  O2  UNL     1      22.471  -1.618  55.317  1.00  0.00    -0.351 OA
HETATM   13  C10 UNL     1      21.166  -1.309  54.845  1.00  0.00     0.195 C 
HETATM   14  C11 UNL     1      21.203   0.092  54.249  1.00  0.00     0.149 C 
HETATM   15  N4  UNL     1      22.061  -0.005  53.083  1.00  0.00    -0.377 N 
HETATM   16  C12 UNL     1      21.694   0.325  51.736  1.00  0.00     0.123 C 
HETATM   17  C13 UNL     1      22.413   1.608  51.272  1.00  0.00     0.020 C 
HETATM   18  C14 UNL     1      21.953   1.838  49.868  1.00  0.00     0.004 C 
HETATM   19  C15 UNL     1      22.448   3.047  49.173  1.00  0.00     0.027 C 
HETATM   20  C16 UNL     1      23.934   3.057  49.044  1.00  0.00     0.179 C 
HETATM   21  O3  UNL     1      24.547   3.101  50.289  1.00  0.00    -0.319 OA
ENDROOT
BRANCH   1  22
HETATM   22  N1  UNL     1      26.947   3.427  49.341  1.00  0.00    -0.231 N 
HETATM   23  H2  UNL     1      26.956   2.659  48.635  1.00  0.00     0.198 HD
BRANCH  22  24
HETATM   24  O1  UNL     1      27.506   4.600  49.684  1.00  0.00    -0.287 OA
HETATM   25  H1  UNL     1      28.262   4.818  49.088  1.00  0.00     0.244 HD
ENDBRANCH  22  24
ENDBRANCH   1  22
TORSDOF 2
ENDMDL
MODEL 5
REMARK VINA RESULT:      -7.8      1.701      4.226
REMARK  2 active torsions:
REMARK  status: ('A' for Active; 'I' for Inactive)
REMARK    1  A    between atoms: O1_1  and  N1_2 
REMARK    2  A    between atoms: N1_2  and  C1_3 
ROOT
HETATM    1  C1  UNL     1      26.429   0.007  54.277  1.00  0.00     0.267 C 
HETATM    2  N2  UNL     1      26.345   0.397  53.052  1.00  0.00    -0.201 NA
HETATM    3  C2  UNL     1      27.321   1.149  52.371  1.00  0.00     0.231 C 
HETATM    4  N3  UNL     1      26.190   1.525  51.822  1.00  0.00    -0.278 NA
HETATM    5  C3  UNL     1      26.334   2.516  50.778  1.00  0.00     0.185 C 
HETATM    6  C4  UNL     1      25.043   3.060  50.309  1.00  0.00    -0.043 C 
HETATM    7  C5  UNL     1      24.528   3.509  51.454  1.00  0.00    -0.019 C 
HETATM    8  C6  UNL     1      23.702   2.577  51.916  1.00  0.00     0.044 C 
HETATM    9  C7  UNL     1      22.678   2.145  50.969  1.00  0.00     0.061 C 
HETATM   10  C8  UNL     1      22.677   2.776  49.804  1.00  0.00     0.077 C 
HETATM   11  C9  UNL     1      23.969   3.407  49.344  1.00  0.00     0.103 C 
HETATM   12  O2  UNL     1      21.507   2.832  49.065  1.00  0.00    -0.351 OA
HETATM   13  C10 UNL     1      20.459   1.945  49.433  1.00  0.00     0.195 C 
HETATM   14  C11 UNL     1      21.091   0.690  50.022  1.00  0.00     0.149 C 
HETATM   15  N4  UNL     1      21.731   1.120  51.251  1.00  0.00    -0.377 N 
HETATM   16  C12 UNL     1      21.468   0.605  52.564  1.00  0.00     0.123 C 
HETATM   17  C13 UNL     1      22.661  -0.229  53.074  1.00  0.00     0.020 C 
HETATM   18  C14 UNL     1      22.266  -0.699  54.437  1.00  0.00     0.004 C 
HETATM   19  C15 UNL     1      23.212  -1.578  55.161  1.00  0.00     0.027 C 
HETATM   20  C16 UNL     1      24.527  -0.917  55.403  1.00  0.00     0.179 C 
HETATM   21  O3  UNL     1      25.172  -0.627  54.208  1.00  0.00    -0.319 OA
ENDROOT
BRANCH   1  22
HETATM   22  N1  UNL     1      27.389   0.135  55.335  1.00  0.00    -0.231 N 
HETATM   23  H2  UNL     1      26.954   0.697  56.099  1.00  0.00     0.198 HD
BRANCH  22  24
HETATM   24  O1  UNL     1      28.502  -0.516  54.960  1.00  0.00    -0.287 OA
HETATM   25  H1  UNL     1      28.982  -0.875  55.743  1.00  0.00     0.244 HD
ENDBRANCH  22  24
ENDBRANCH   1  22
TORSDOF 2
ENDMDL
MODEL 6
REMARK VINA RESULT:      -7.7      2.166      5.630
REMARK  2 active torsions:
REMARK  status: ('A' for Active; 'I' for Inactive)
REMARK    1  A    between atoms: O1_1  and  N1_2 
REMARK    2  A    between atoms: N1_2  and  C1_3 
ROOT
HETATM    1  C1  UNL     1      20.819   0.178  53.338  1.00  0.00     0.267 C 
HETATM    2  N2  UNL     1      22.007  -0.091  52.917  1.00  0.00    -0.201 NA
HETATM    3  C2  UNL     1      22.887  -1.016  53.509  1.00  0.00     0.231 C 
HETATM    4  N3  UNL     1      23.681  -0.107  52.995  1.00  0.00    -0.278 NA
HETATM    5  C3  UNL     1      25.090  -0.358  53.203  1.00  0.00     0.185 C 
HETATM    6  C4  UNL     1      25.950   0.768  52.785  1.00  0.00    -0.043 C 
HETATM    7  C5  UNL     1      25.436   1.762  53.509  1.00  0.00    -0.019 C 
HETATM    8  C6  UNL     1      24.587   2.426  52.733  1.00  0.00     0.044 C 
HETATM    9  C7  UNL     1      25.149   2.885  51.466  1.00  0.00     0.061 C 
HETATM   10  C8  UNL     1      26.437   2.627  51.288  1.00  0.00     0.077 C 
HETATM   11  C9  UNL     1      27.034   1.467  52.048  1.00  0.00     0.103 C 
HETATM   12  O2  UNL     1      27.173   3.419  50.422  1.00  0.00    -0.351 OA
HETATM   13  C10 UNL     1      26.451   4.260  49.532  1.00  0.00     0.195 C 
HETATM   14  C11 UNL     1      25.122   3.583  49.220  1.00  0.00     0.149 C 
HETATM   15  N4  UNL     1      24.392   3.568  50.473  1.00  0.00    -0.377 N 
HETATM   16  C12 UNL     1      23.099   4.148  50.702  1.00  0.00     0.123 C 
HETATM   17  C13 UNL     1      22.033   3.050  50.893  1.00  0.00     0.020 C 
HETATM   18  C14 UNL     1      20.747   3.777  51.125  1.00  0.00     0.004 C 
HETATM   19  C15 UNL     1      19.521   2.966  51.291  1.00  0.00     0.027 C 
HETATM   20  C16 UNL     1      19.604   2.049  52.465  1.00  0.00     0.179 C 
HETATM   21  O3  UNL     1      20.615   1.113  52.303  1.00  0.00    -0.319 OA
ENDROOT
BRANCH   1  22
HETATM   22  N1  UNL     1      19.985  -0.262  54.419  1.00  0.00    -0.231 N 
HETATM   23  H2  UNL     1      20.237   0.291  55.267  1.00  0.00     0.198 HD
BRANCH  22  24
HETATM   24  O1  UNL     1      19.179  -1.228  53.948  1.00  0.00    -0.287 OA
HETATM   25  H1  UNL     1      19.230  -1.281  52.963  1.00  0.00     0.244 HD
ENDBRANCH  22  24
ENDBRANCH   1  22
TORSDOF 2
ENDMDL
MODEL 7
REMARK VINA RESULT:      -7.5      2.448      5.680
REMARK  2 active torsions:
REMARK  status: ('A' for Active; 'I' for Inactive)
REMARK    1  A    between atoms: O1_1  and  N1_2 
REMARK    2  A    between atoms: N1_2  and  C1_3 
ROOT
HETATM    1  C1  UNL     1      22.352   3.584  49.042  1.00  0.00     0.267 C 
HETATM    2  N2  UNL     1      22.312   2.389  49.523  1.00  0.00    -0.201 NA
HETATM    3  C2  UNL     1      21.138   1.671  49.821  1.00  0.00     0.231 C 
HETATM    4  N3  UNL     1      22.010   1.231  50.696  1.00  0.00    -0.278 NA
HETATM    5  C3  UNL     1      21.492   0.228  51.601  1.00  0.00     0.185 C 
HETATM    6  C4  UNL     1      22.429  -0.113  52.691  1.00  0.00    -0.043 C 
HETATM    7  C5  UNL     1      22.635   1.089  53.231  1.00  0.00    -0.019 C 
HETATM    8  C6  UNL     1      23.765   1.567  52.724  1.00  0.00     0.044 C 
HETATM    9  C7  UNL     1      24.919   0.683  52.860  1.00  0.00     0.061 C 
HETATM   10  C8  UNL     1      24.696  -0.447  53.517  1.00  0.00     0.077 C 
HETATM   11  C9  UNL     1      23.282  -0.974  53.549  1.00  0.00     0.103 C 
HETATM   12  O2  UNL     1      25.754  -1.089  54.137  1.00  0.00    -0.351 OA
HETATM   13  C10 UNL     1      27.068  -0.685  53.776  1.00  0.00     0.195 C 
HETATM   14  C11 UNL     1      27.030  -0.208  52.329  1.00  0.00     0.149 C 
HETATM   15  N4  UNL     1      26.207   0.987  52.337  1.00  0.00    -0.377 N 
HETATM   16  C12 UNL     1      26.608   2.290  51.889  1.00  0.00     0.123 C 
HETATM   17  C13 UNL     1      25.886   2.665  50.580  1.00  0.00     0.020 C 
HETATM   18  C14 UNL     1      26.383   4.031  50.226  1.00  0.00     0.004 C 
HETATM   19  C15 UNL     1      25.892   4.635  48.968  1.00  0.00     0.027 C 
HETATM   20  C16 UNL     1      24.410   4.806  48.963  1.00  0.00     0.179 C 
HETATM   21  O3  UNL     1      23.761   3.581  49.032  1.00  0.00    -0.319 OA
ENDROOT
BRANCH   1  22
HETATM   22  N1  UNL     1      21.385   4.569  48.653  1.00  0.00    -0.231 N 
HETATM   23  H2  UNL     1      21.264   4.512  47.618  1.00  0.00     0.198 HD
BRANCH  22  24
HETATM   24  O1  UNL     1      20.984   5.210  49.763  1.00  0.00    -0.287 OA
HETATM   25  H1  UNL     1      20.188   4.776  50.154  1.00  0.00     0.244 HD
ENDBRANCH  22  24
ENDBRANCH   1  22
TORSDOF 2
ENDMDL
MODEL 8
REMARK VINA RESULT:      -7.1      2.683      4.873
REMARK  2 active torsions:
REMARK  status: ('A' for Active; 'I' for Inactive)
REMARK    1  A    between atoms: O1_1  and  N1_2 
REMARK    2  A    between atoms: N1_2  and  C1_3 
ROOT
HETATM    1  C1  UNL     1      22.927  -0.014  53.480  1.00  0.00     0.267 C 
HETATM    2  N2  UNL     1      22.401   1.098  53.095  1.00  0.00    -0.201 NA
HETATM    3  C2  UNL     1      21.021   1.337  52.952  1.00  0.00     0.231 C 
HETATM    4  N3  UNL     1      21.572   2.104  52.041  1.00  0.00    -0.278 NA
HETATM    5  C3  UNL     1      20.630   2.875  51.261  1.00  0.00     0.185 C 
HETATM    6  C4  UNL     1      21.255   3.582  50.124  1.00  0.00    -0.043 C 
HETATM    7  C5  UNL     1      21.830   2.566  49.480  1.00  0.00    -0.019 C 
HETATM    8  C6  UNL     1      23.104   2.524  49.854  1.00  0.00     0.044 C 
HETATM    9  C7  UNL     1      23.831   3.779  49.687  1.00  0.00     0.061 C 
HETATM   10  C8  UNL     1      23.140   4.768  49.139  1.00  0.00     0.077 C 
HETATM   11  C9  UNL     1      21.636   4.732  49.265  1.00  0.00     0.103 C 
HETATM   12  O2  UNL     1      23.817   5.782  48.481  1.00  0.00    -0.351 OA
HETATM   13  C10 UNL     1      25.218   5.882  48.699  1.00  0.00     0.195 C 
HETATM   14  C11 UNL     1      25.511   5.371  50.104  1.00  0.00     0.149 C 
HETATM   15  N4  UNL     1      25.188   3.957  50.076  1.00  0.00    -0.377 N 
HETATM   16  C12 UNL     1      26.085   2.881  50.389  1.00  0.00     0.123 C 
HETATM   17  C13 UNL     1      25.694   2.214  51.723  1.00  0.00     0.020 C 
HETATM   18  C14 UNL     1      26.691   1.119  51.930  1.00  0.00     0.004 C 
HETATM   19  C15 UNL     1      26.593   0.327  53.176  1.00  0.00     0.027 C 
HETATM   20  C16 UNL     1      25.287  -0.384  53.293  1.00  0.00     0.179 C 
HETATM   21  O3  UNL     1      24.230   0.513  53.371  1.00  0.00    -0.319 OA
ENDROOT
BRANCH   1  22
HETATM   22  N1  UNL     1      22.437  -1.303  53.874  1.00  0.00    -0.231 N 
HETATM   23  H2  UNL     1      22.453  -1.924  53.036  1.00  0.00     0.198 HD
BRANCH  22  24
HETATM   24  O1  UNL     1      22.134  -1.244  55.182  1.00  0.00    -0.287 OA
HETATM   25  H1  UNL     1      21.374  -0.635  55.340  1.00  0.00     0.244 HD
ENDBRANCH  22  24
ENDBRANCH   1  22
TORSDOF 2
ENDMDL
MODEL 9
REMARK VINA RESULT:      -7.1      2.069      2.765
REMARK  2 active torsions:
REMARK  status: ('A' for Active; 'I' for Inactive)
REMARK    1  A    between atoms: O1_1  and  N1_2 
REMARK    2  A    between atoms: N1_2  and  C1_3 
ROOT
HETATM    1  C1  UNL     1      24.916   0.108  53.508  1.00  0.00     0.267 C 
HETATM    2  N2  UNL     1      23.704   0.535  53.419  1.00  0.00    -0.201 NA
HETATM    3  C2  UNL     1      22.565  -0.152  53.880  1.00  0.00     0.231 C 
HETATM    4  N3  UNL     1      22.128   0.531  52.849  1.00  0.00    -0.278 NA
HETATM    5  C3  UNL     1      20.721   0.349  52.566  1.00  0.00     0.185 C 
HETATM    6  C4  UNL     1      20.296   0.974  51.297  1.00  0.00    -0.043 C 
HETATM    7  C5  UNL     1      21.129   0.389  50.436  1.00  0.00    -0.019 C 
HETATM    8  C6  UNL     1      22.146   1.219  50.235  1.00  0.00     0.044 C 
HETATM    9  C7  UNL     1      21.763   2.565  49.820  1.00  0.00     0.061 C 
HETATM   10  C8  UNL     1      20.463   2.759  49.648  1.00  0.00     0.077 C 
HETATM   11  C9  UNL     1      19.511   1.857  50.396  1.00  0.00     0.103 C 
HETATM   12  O2  UNL     1      20.035   3.768  48.801  1.00  0.00    -0.351 OA
HETATM   13  C10 UNL     1      20.992   4.744  48.411  1.00  0.00     0.195 C 
HETATM   14  C11 UNL     1      22.003   4.888  49.542  1.00  0.00     0.149 C 
HETATM   15  N4  UNL     1      22.698   3.617  49.605  1.00  0.00    -0.377 N 
HETATM   16  C12 UNL     1      24.113   3.422  49.473  1.00  0.00     0.123 C 
HETATM   17  C13 UNL     1      24.738   3.018  50.824  1.00  0.00     0.020 C 
HETATM   18  C14 UNL     1      26.198   2.843  50.553  1.00  0.00     0.004 C 
HETATM   19  C15 UNL     1      27.072   2.499  51.697  1.00  0.00     0.027 C 
HETATM   20  C16 UNL     1      26.691   1.203  52.330  1.00  0.00     0.179 C 
HETATM   21  O3  UNL     1      25.417   1.265  52.877  1.00  0.00    -0.319 OA
ENDROOT
BRANCH   1  22
HETATM   22  N1  UNL     1      25.560  -1.063  54.028  1.00  0.00    -0.231 N 
HETATM   23  H2  UNL     1      25.550  -1.794  53.284  1.00  0.00     0.198 HD
BRANCH  22  24
HETATM   24  O1  UNL     1      25.943  -0.795  55.288  1.00  0.00    -0.287 OA
HETATM   25  H1  UNL     1      26.661  -0.118  55.301  1.00  0.00     0.244 HD
ENDBRANCH  22  24
ENDBRANCH   1  22
TORSDOF 2
ENDMDL
