MODEL 1
REMARK VINA RESULT:      -9.0      0.000      0.000
REMARK  2 active torsions:
REMARK  status: ('A' for Active; 'I' for Inactive)
REMARK    1  A    between atoms: C4_5  and  N1_6 
REMARK    2  A    between atoms: N1_6  and  C5_7 
ROOT
HETATM    1  C5  UNL     1      26.696   2.272  51.837  1.00  0.00     0.142 A 
HETATM    2  N2  UNL     1      27.919   2.419  52.212  1.00  0.00    -0.224 NA
HETATM    3  C6  UNL     1      28.250   2.105  53.557  1.00  0.00     0.229 A 
HETATM    4  N3  UNL     1      27.339   1.693  54.352  1.00  0.00    -0.278 NA
HETATM    5  C7  UNL     1      25.956   1.488  54.081  1.00  0.00     0.197 A 
HETATM    6  C8  UNL     1      25.598   1.777  52.692  1.00  0.00     0.055 A 
HETATM    7  C9  UNL     1      24.365   1.577  52.256  1.00  0.00     0.158 C 
HETATM    8  N4  UNL     1      23.784   1.753  50.983  1.00  0.00    -0.131 NA
HETATM    9  N5  UNL     1      22.586   1.531  50.679  1.00  0.00    -0.151 NA
HETATM   10  C10 UNL     1      21.615   1.057  51.598  1.00  0.00     0.080 C 
HETATM   11  C11 UNL     1      20.551   0.460  51.108  1.00  0.00     0.008 C 
HETATM   12  C12 UNL     1      19.477  -0.071  52.003  1.00  0.00     0.056 C 
HETATM   13  C13 UNL     1      20.078  -0.194  53.368  1.00  0.00    -0.024 C 
HETATM   14  C14 UNL     1      21.184   0.401  53.855  1.00  0.00     0.001 C 
HETATM   15  C15 UNL     1      21.986   1.322  53.011  1.00  0.00     0.160 C 
HETATM   16  N6  UNL     1      23.413   1.103  53.199  1.00  0.00    -0.359 N 
HETATM   17  H13 UNL     1      23.683   0.585  54.064  1.00  0.00     0.162 HD
ENDROOT
BRANCH   1  18
HETATM   18  N1  UNL     1      26.409   2.607  50.469  1.00  0.00    -0.327 N 
HETATM   19  H3  UNL     1      26.286   1.751  49.839  1.00  0.00     0.169 HD
BRANCH  18  20
HETATM   20  C4  UNL     1      26.303   3.947  50.035  1.00  0.00     0.102 A 
HETATM   21  C3  UNL     1      27.160   4.354  49.101  1.00  0.00     0.050 A 
HETATM   22  C2  UNL     1      27.168   5.726  48.554  1.00  0.00     0.025 A 
HETATM   23  C1  UNL     1      26.275   6.542  49.039  1.00  0.00     0.029 A 
HETATM   24 CL1  UNL     1      26.241   8.197  48.417  1.00  0.00    -0.087 Cl
HETATM   25  C16 UNL     1      25.257   6.255  50.072  1.00  0.00     0.172 A 
HETATM   26  N7  UNL     1      25.352   4.881  50.528  1.00  0.00    -0.371 N 
HETATM   27  H14 UNL     1      24.678   4.571  51.259  1.00  0.00     0.161 HD
ENDBRANCH  18  20
ENDBRANCH   1  18
TORSDOF 2
ENDMDL
MODEL 2
REMARK VINA RESULT:      -8.7      3.902      7.407
REMARK  2 active torsions:
REMARK  status: ('A' for Active; 'I' for Inactive)
REMARK    1  A    between atoms: C4_5  and  N1_6 
REMARK    2  A    between atoms: N1_6  and  C5_7 
ROOT
HETATM    1  C5  UNL     1      22.642   1.931  52.373  1.00  0.00     0.142 A 
HETATM    2  N2  UNL     1      21.736   2.815  52.138  1.00  0.00    -0.224 NA
HETATM    3  C6  UNL     1      22.079   4.184  52.299  1.00  0.00     0.229 A 
HETATM    4  N3  UNL     1      23.259   4.500  52.670  1.00  0.00    -0.278 NA
HETATM    5  C7  UNL     1      24.353   3.638  52.967  1.00  0.00     0.197 A 
HETATM    6  C8  UNL     1      24.031   2.224  52.779  1.00  0.00     0.055 A 
HETATM    7  C9  UNL     1      24.954   1.291  52.949  1.00  0.00     0.158 C 
HETATM    8  N4  UNL     1      24.904  -0.111  52.809  1.00  0.00    -0.131 NA
HETATM    9  N5  UNL     1      25.854  -0.909  53.002  1.00  0.00    -0.151 NA
HETATM   10  C10 UNL     1      27.155  -0.504  53.398  1.00  0.00     0.080 C 
HETATM   11  C11 UNL     1      28.152  -1.326  53.154  1.00  0.00     0.008 C 
HETATM   12  C12 UNL     1      29.555  -0.981  53.538  1.00  0.00     0.056 C 
HETATM   13  C13 UNL     1      29.590   0.500  53.749  1.00  0.00    -0.024 C 
HETATM   14  C14 UNL     1      28.562   1.341  53.973  1.00  0.00     0.001 C 
HETATM   15  C15 UNL     1      27.167   0.834  54.040  1.00  0.00     0.160 C 
HETATM   16  N6  UNL     1      26.248   1.726  53.348  1.00  0.00    -0.359 N 
HETATM   17  H13 UNL     1      26.599   2.693  53.171  1.00  0.00     0.162 HD
ENDROOT
BRANCH   1  18
HETATM   18  N1  UNL     1      22.246   0.559  52.200  1.00  0.00    -0.327 N 
HETATM   19  H3  UNL     1      23.071  -0.104  52.042  1.00  0.00     0.169 HD
BRANCH  18  20
HETATM   20  C4  UNL     1      20.891   0.163  52.245  1.00  0.00     0.102 A 
HETATM   21  C3  UNL     1      20.477  -0.467  53.342  1.00  0.00     0.050 A 
HETATM   22  C2  UNL     1      19.090  -0.940  53.529  1.00  0.00     0.025 A 
HETATM   23  C1  UNL     1      18.268  -0.706  52.545  1.00  0.00     0.029 A 
HETATM   24 CL1  UNL     1      16.594  -1.251  52.718  1.00  0.00    -0.087 Cl
HETATM   25  C16 UNL     1      18.560  -0.025  51.267  1.00  0.00     0.172 A 
HETATM   26  N7  UNL     1      19.950   0.390  51.204  1.00  0.00    -0.371 N 
HETATM   27  H14 UNL     1      20.265   0.882  50.342  1.00  0.00     0.161 HD
ENDBRANCH  18  20
ENDBRANCH   1  18
TORSDOF 2
ENDMDL
MODEL 3
REMARK VINA RESULT:      -8.7      3.064      6.938
REMARK  2 active torsions:
REMARK  status: ('A' for Active; 'I' for Inactive)
REMARK    1  A    between atoms: C4_5  and  N1_6 
REMARK    2  A    between atoms: N1_6  and  C5_7 
ROOT
HETATM    1  C5  UNL     1      24.740   0.787  52.983  1.00  0.00     0.142 A 
HETATM    2  N2  UNL     1      24.941  -0.290  53.660  1.00  0.00    -0.224 NA
HETATM    3  C6  UNL     1      26.159  -0.992  53.455  1.00  0.00     0.229 A 
HETATM    4  N3  UNL     1      27.012  -0.546  52.617  1.00  0.00    -0.278 NA
HETATM    5  C7  UNL     1      26.925   0.619  51.802  1.00  0.00     0.197 A 
HETATM    6  C8  UNL     1      25.691   1.375  52.018  1.00  0.00     0.055 A 
HETATM    7  C9  UNL     1      25.479   2.519  51.388  1.00  0.00     0.158 C 
HETATM    8  N4  UNL     1      24.404   3.430  51.439  1.00  0.00    -0.131 NA
HETATM    9  N5  UNL     1      24.306   4.498  50.787  1.00  0.00    -0.151 NA
HETATM   10  C10 UNL     1      25.293   4.958  49.878  1.00  0.00     0.080 C 
HETATM   11  C11 UNL     1      25.308   6.242  49.591  1.00  0.00     0.008 C 
HETATM   12  C12 UNL     1      26.313   6.814  48.643  1.00  0.00     0.056 C 
HETATM   13  C13 UNL     1      27.422   5.816  48.540  1.00  0.00    -0.024 C 
HETATM   14  C14 UNL     1      27.407   4.507  48.859  1.00  0.00     0.001 C 
HETATM   15  C15 UNL     1      26.176   3.869  49.391  1.00  0.00     0.160 C 
HETATM   16  N6  UNL     1      26.484   2.955  50.482  1.00  0.00    -0.359 N 
HETATM   17  H13 UNL     1      27.478   2.644  50.547  1.00  0.00     0.162 HD
ENDROOT
BRANCH   1  18
HETATM   18  N1  UNL     1      23.492   1.460  53.221  1.00  0.00    -0.327 N 
HETATM   19  H3  UNL     1      23.594   2.519  53.332  1.00  0.00     0.169 HD
BRANCH  18  20
HETATM   20  C4  UNL     1      22.268   0.757  53.291  1.00  0.00     0.102 A 
HETATM   21  C3  UNL     1      21.261   1.213  52.548  1.00  0.00     0.050 A 
HETATM   22  C2  UNL     1      19.926   0.582  52.521  1.00  0.00     0.025 A 
HETATM   23  C1  UNL     1      19.774  -0.469  53.276  1.00  0.00     0.029 A 
HETATM   24 CL1  UNL     1      18.193  -1.263  53.279  1.00  0.00    -0.087 Cl
HETATM   25  C16 UNL     1      20.778  -1.102  54.156  1.00  0.00     0.172 A 
HETATM   26  N7  UNL     1      22.043  -0.392  54.096  1.00  0.00    -0.371 N 
HETATM   27  H14 UNL     1      22.825  -0.756  54.680  1.00  0.00     0.161 HD
ENDBRANCH  18  20
ENDBRANCH   1  18
TORSDOF 2
ENDMDL
MODEL 4
REMARK VINA RESULT:      -8.6      2.753      4.759
REMARK  2 active torsions:
REMARK  status: ('A' for Active; 'I' for Inactive)
REMARK    1  A    between atoms: C4_5  and  N1_6 
REMARK    2  A    between atoms: N1_6  and  C5_7 
ROOT
HETATM    1  C5  UNL     1      25.121   3.050  51.521  1.00  0.00     0.142 A 
HETATM    2  N2  UNL     1      25.954   3.830  50.924  1.00  0.00    -0.224 NA
HETATM    3  C6  UNL     1      25.645   4.256  49.605  1.00  0.00     0.229 A 
HETATM    4  N3  UNL     1      24.566   3.860  49.049  1.00  0.00    -0.278 NA
HETATM    5  C7  UNL     1      23.562   3.002  49.581  1.00  0.00     0.197 A 
HETATM    6  C8  UNL     1      23.844   2.574  50.951  1.00  0.00     0.055 A 
HETATM    7  C9  UNL     1      22.981   1.825  51.617  1.00  0.00     0.158 C 
HETATM    8  N4  UNL     1      23.007   1.310  52.930  1.00  0.00    -0.131 NA
HETATM    9  N5  UNL     1      22.122   0.599  53.464  1.00  0.00    -0.151 NA
HETATM   10  C10 UNL     1      20.929   0.199  52.807  1.00  0.00     0.080 C 
HETATM   11  C11 UNL     1      19.908  -0.154  53.556  1.00  0.00     0.008 C 
HETATM   12  C12 UNL     1      18.613  -0.589  52.948  1.00  0.00     0.056 C 
HETATM   13  C13 UNL     1      18.616  -0.098  51.535  1.00  0.00    -0.024 C 
HETATM   14  C14 UNL     1      19.664   0.287  50.781  1.00  0.00     0.001 C 
HETATM   15  C15 UNL     1      21.045   0.255  51.328  1.00  0.00     0.160 C 
HETATM   16  N6  UNL     1      21.796   1.438  50.933  1.00  0.00    -0.359 N 
HETATM   17  H13 UNL     1      21.411   1.971  50.123  1.00  0.00     0.162 HD
ENDROOT
BRANCH   1  18
HETATM   18  N1  UNL     1      25.478   2.643  52.852  1.00  0.00    -0.327 N 
HETATM   19  H3  UNL     1      24.791   2.981  53.599  1.00  0.00     0.169 HD
BRANCH  18  20
HETATM   20  C4  UNL     1      26.631   1.867  53.111  1.00  0.00     0.102 A 
HETATM   21  C3  UNL     1      26.597   0.587  52.749  1.00  0.00     0.050 A 
HETATM   22  C2  UNL     1      27.726  -0.343  52.957  1.00  0.00     0.025 A 
HETATM   23  C1  UNL     1      28.785   0.161  53.525  1.00  0.00     0.029 A 
HETATM   24 CL1  UNL     1      30.167  -0.910  53.796  1.00  0.00    -0.087 Cl
HETATM   25  C16 UNL     1      28.989   1.550  53.985  1.00  0.00     0.172 A 
HETATM   26  N7  UNL     1      27.813   2.361  53.727  1.00  0.00    -0.371 N 
HETATM   27  H14 UNL     1      27.848   3.362  54.013  1.00  0.00     0.161 HD
ENDBRANCH  18  20
ENDBRANCH   1  18
TORSDOF 2
ENDMDL
MODEL 5
REMARK VINA RESULT:      -8.3      2.143      5.102
REMARK  2 active torsions:
REMARK  status: ('A' for Active; 'I' for Inactive)
REMARK    1  A    between atoms: C4_5  and  N1_6 
REMARK    2  A    between atoms: N1_6  and  C5_7 
ROOT
HETATM    1  C5  UNL     1      23.320   3.031  52.483  1.00  0.00     0.142 A 
HETATM    2  N2  UNL     1      22.061   3.286  52.395  1.00  0.00    -0.224 NA
HETATM    3  C6  UNL     1      21.164   2.191  52.276  1.00  0.00     0.229 A 
HETATM    4  N3  UNL     1      21.620   0.999  52.257  1.00  0.00    -0.278 NA
HETATM    5  C7  UNL     1      22.976   0.570  52.340  1.00  0.00     0.197 A 
HETATM    6  C8  UNL     1      23.916   1.680  52.494  1.00  0.00     0.055 A 
HETATM    7  C9  UNL     1      25.210   1.453  52.650  1.00  0.00     0.158 C 
HETATM    8  N4  UNL     1      26.298   2.332  52.838  1.00  0.00    -0.131 NA
HETATM    9  N5  UNL     1      27.501   2.002  52.975  1.00  0.00    -0.151 NA
HETATM   10  C10 UNL     1      27.956   0.658  52.962  1.00  0.00     0.080 C 
HETATM   11  C11 UNL     1      29.113   0.399  53.530  1.00  0.00     0.008 C 
HETATM   12  C12 UNL     1      29.669  -0.989  53.564  1.00  0.00     0.056 C 
HETATM   13  C13 UNL     1      28.525  -1.915  53.300  1.00  0.00    -0.024 C 
HETATM   14  C14 UNL     1      27.331  -1.638  52.740  1.00  0.00     0.001 C 
HETATM   15  C15 UNL     1      27.005  -0.261  52.288  1.00  0.00     0.160 C 
HETATM   16  N6  UNL     1      25.637   0.097  52.632  1.00  0.00    -0.359 N 
HETATM   17  H13 UNL     1      25.001  -0.699  52.857  1.00  0.00     0.162 HD
ENDROOT
BRANCH   1  18
HETATM   18  N1  UNL     1      24.189   4.171  52.598  1.00  0.00    -0.327 N 
HETATM   19  H3  UNL     1      24.744   4.192  53.512  1.00  0.00     0.169 HD
BRANCH  18  20
HETATM   20  C4  UNL     1      24.277   5.147  51.580  1.00  0.00     0.102 A 
HETATM   21  C3  UNL     1      24.454   4.712  50.334  1.00  0.00     0.050 A 
HETATM   22  C2  UNL     1      24.564   5.615  49.170  1.00  0.00     0.025 A 
HETATM   23  C1  UNL     1      24.480   6.890  49.425  1.00  0.00     0.029 A 
HETATM   24 CL1  UNL     1      24.605   8.016  48.066  1.00  0.00    -0.087 Cl
HETATM   25  C16 UNL     1      24.287   7.538  50.739  1.00  0.00     0.172 A 
HETATM   26  N7  UNL     1      24.193   6.549  51.798  1.00  0.00    -0.371 N 
HETATM   27  H14 UNL     1      24.055   6.898  52.769  1.00  0.00     0.161 HD
ENDBRANCH  18  20
ENDBRANCH   1  18
TORSDOF 2
ENDMDL
MODEL 6
REMARK VINA RESULT:      -8.3      2.916      5.163
REMARK  2 active torsions:
REMARK  status: ('A' for Active; 'I' for Inactive)
REMARK    1  A    between atoms: C4_5  and  N1_6 
REMARK    2  A    between atoms: N1_6  and  C5_7 
ROOT
HETATM    1  C5  UNL     1      26.808   5.780  48.682  1.00  0.00     0.142 A 
HETATM    2  N2  UNL     1      26.744   6.867  47.995  1.00  0.00    -0.224 NA
HETATM    3  C6  UNL     1      25.471   7.470  47.812  1.00  0.00     0.229 A 
HETATM    4  N3  UNL     1      24.436   6.927  48.324  1.00  0.00    -0.278 NA
HETATM    5  C7  UNL     1      24.355   5.734  49.098  1.00  0.00     0.197 A 
HETATM    6  C8  UNL     1      25.659   5.111  49.325  1.00  0.00     0.055 A 
HETATM    7  C9  UNL     1      25.771   4.030  50.079  1.00  0.00     0.158 C 
HETATM    8  N4  UNL     1      26.895   3.269  50.462  1.00  0.00    -0.131 NA
HETATM    9  N5  UNL     1      26.883   2.245  51.188  1.00  0.00    -0.151 NA
HETATM   10  C10 UNL     1      25.703   1.690  51.749  1.00  0.00     0.080 C 
HETATM   11  C11 UNL     1      25.833   0.919  52.806  1.00  0.00     0.008 C 
HETATM   12  C12 UNL     1      24.644   0.292  53.461  1.00  0.00     0.056 C 
HETATM   13  C13 UNL     1      23.446   1.061  53.001  1.00  0.00    -0.024 C 
HETATM   14  C14 UNL     1      23.327   1.870  51.930  1.00  0.00     0.001 C 
HETATM   15  C15 UNL     1      24.477   2.096  51.017  1.00  0.00     0.160 C 
HETATM   16  N6  UNL     1      24.572   3.494  50.625  1.00  0.00    -0.359 N 
HETATM   17  H13 UNL     1      23.711   4.066  50.767  1.00  0.00     0.162 HD
ENDROOT
BRANCH   1  18
HETATM   18  N1  UNL     1      28.117   5.205  48.836  1.00  0.00    -0.327 N 
HETATM   19  H3  UNL     1      28.098   4.186  49.161  1.00  0.00     0.169 HD
BRANCH  18  20
HETATM   20  C4  UNL     1      29.292   5.944  48.571  1.00  0.00     0.102 A 
HETATM   21  C3  UNL     1      30.213   5.368  47.802  1.00  0.00     0.050 A 
HETATM   22  C2  UNL     1      31.489   6.019  47.441  1.00  0.00     0.025 A 
HETATM   23  C1  UNL     1      31.677   7.215  47.923  1.00  0.00     0.029 A 
HETATM   24 CL1  UNL     1      33.189   8.040  47.522  1.00  0.00    -0.087 Cl
HETATM   25  C16 UNL     1      30.766   7.994  48.787  1.00  0.00     0.172 A 
HETATM   26  N7  UNL     1      29.552   7.249  49.069  1.00  0.00    -0.371 N 
HETATM   27  H14 UNL     1      28.838   7.708  49.672  1.00  0.00     0.161 HD
ENDBRANCH  18  20
ENDBRANCH   1  18
TORSDOF 2
ENDMDL
MODEL 7
REMARK VINA RESULT:      -8.2      2.566      4.731
REMARK  2 active torsions:
REMARK  status: ('A' for Active; 'I' for Inactive)
REMARK    1  A    between atoms: C4_5  and  N1_6 
REMARK    2  A    between atoms: N1_6  and  C5_7 
ROOT
HETATM    1  C5  UNL     1      24.929   4.594  49.208  1.00  0.00     0.142 A 
HETATM    2  N2  UNL     1      24.113   5.281  48.486  1.00  0.00    -0.224 NA
HETATM    3  C6  UNL     1      22.725   5.001  48.597  1.00  0.00     0.229 A 
HETATM    4  N3  UNL     1      22.325   4.088  49.395  1.00  0.00    -0.278 NA
HETATM    5  C7  UNL     1      23.107   3.253  50.244  1.00  0.00     0.197 A 
HETATM    6  C8  UNL     1      24.538   3.543  50.169  1.00  0.00     0.055 A 
HETATM    7  C9  UNL     1      25.400   2.903  50.942  1.00  0.00     0.158 C 
HETATM    8  N4  UNL     1      26.800   3.013  51.074  1.00  0.00    -0.131 NA
HETATM    9  N5  UNL     1      27.526   2.343  51.848  1.00  0.00    -0.151 NA
HETATM   10  C10 UNL     1      27.029   1.348  52.730  1.00  0.00     0.080 C 
HETATM   11  C11 UNL     1      27.769   1.029  53.769  1.00  0.00     0.008 C 
HETATM   12  C12 UNL     1      27.324  -0.009  54.750  1.00  0.00     0.056 C 
HETATM   13  C13 UNL     1      25.849  -0.171  54.562  1.00  0.00    -0.024 C 
HETATM   14  C14 UNL     1      25.092   0.183  53.505  1.00  0.00     0.001 C 
HETATM   15  C15 UNL     1      25.704   0.824  52.313  1.00  0.00     0.160 C 
HETATM   16  N6  UNL     1      24.874   1.910  51.814  1.00  0.00    -0.359 N 
HETATM   17  H13 UNL     1      23.881   1.907  52.134  1.00  0.00     0.162 HD
ENDROOT
BRANCH   1  18
HETATM   18  N1  UNL     1      26.324   4.910  49.058  1.00  0.00    -0.327 N 
HETATM   19  H3  UNL     1      26.943   4.048  48.922  1.00  0.00     0.169 HD
BRANCH  18  20
HETATM   20  C4  UNL     1      26.795   6.242  49.090  1.00  0.00     0.102 A 
HETATM   21  C3  UNL     1      27.684   6.595  48.164  1.00  0.00     0.050 A 
HETATM   22  C2  UNL     1      28.264   7.951  48.075  1.00  0.00     0.025 A 
HETATM   23  C1  UNL     1      27.854   8.808  48.967  1.00  0.00     0.029 A 
HETATM   24 CL1  UNL     1      28.516  10.447  48.905  1.00  0.00    -0.087 Cl
HETATM   25  C16 UNL     1      26.879   8.584  50.055  1.00  0.00     0.172 A 
HETATM   26  N7  UNL     1      26.385   7.219  50.037  1.00  0.00    -0.371 N 
HETATM   27  H14 UNL     1      25.689   6.951  50.764  1.00  0.00     0.161 HD
ENDBRANCH  18  20
ENDBRANCH   1  18
TORSDOF 2
ENDMDL
MODEL 8
REMARK VINA RESULT:      -8.2      3.986      5.661
REMARK  2 active torsions:
REMARK  status: ('A' for Active; 'I' for Inactive)
REMARK    1  A    between atoms: C4_5  and  N1_6 
REMARK    2  A    between atoms: N1_6  and  C5_7 
ROOT
HETATM    1  C5  UNL     1      23.423   0.118  53.833  1.00  0.00     0.142 A 
HETATM    2  N2  UNL     1      23.705  -0.896  54.575  1.00  0.00    -0.224 NA
HETATM    3  C6  UNL     1      22.633  -1.601  55.182  1.00  0.00     0.229 A 
HETATM    4  N3  UNL     1      21.431  -1.216  54.984  1.00  0.00    -0.278 NA
HETATM    5  C7  UNL     1      20.972  -0.120  54.200  1.00  0.00     0.197 A 
HETATM    6  C8  UNL     1      22.059   0.603  53.540  1.00  0.00     0.055 A 
HETATM    7  C9  UNL     1      21.802   1.610  52.721  1.00  0.00     0.158 C 
HETATM    8  N4  UNL     1      22.653   2.437  51.959  1.00  0.00    -0.131 NA
HETATM    9  N5  UNL     1      22.295   3.377  51.208  1.00  0.00    -0.151 NA
HETATM   10  C10 UNL     1      20.942   3.755  51.009  1.00  0.00     0.080 C 
HETATM   11  C11 UNL     1      20.650   4.426  49.917  1.00  0.00     0.008 C 
HETATM   12  C12 UNL     1      19.250   4.864  49.626  1.00  0.00     0.056 C 
HETATM   13  C13 UNL     1      18.352   4.030  50.484  1.00  0.00    -0.024 C 
HETATM   14  C14 UNL     1      18.664   3.323  51.588  1.00  0.00     0.001 C 
HETATM   15  C15 UNL     1      20.054   3.304  52.110  1.00  0.00     0.160 C 
HETATM   16  N6  UNL     1      20.437   1.967  52.542  1.00  0.00    -0.359 N 
HETATM   17  H13 UNL     1      19.651   1.302  52.711  1.00  0.00     0.162 HD
ENDROOT
BRANCH   1  18
HETATM   18  N1  UNL     1      24.541   0.802  53.243  1.00  0.00    -0.327 N 
HETATM   19  H3  UNL     1      24.258   1.640  52.641  1.00  0.00     0.169 HD
BRANCH  18  20
HETATM   20  C4  UNL     1      25.873   0.382  53.464  1.00  0.00     0.102 A 
HETATM   21  C3  UNL     1      26.425  -0.399  52.538  1.00  0.00     0.050 A 
HETATM   22  C2  UNL     1      27.806  -0.914  52.634  1.00  0.00     0.025 A 
HETATM   23  C1  UNL     1      28.476  -0.560  53.695  1.00  0.00     0.029 A 
HETATM   24 CL1  UNL     1      30.136  -1.150  53.859  1.00  0.00    -0.087 Cl
HETATM   25  C16 UNL     1      28.018   0.294  54.810  1.00  0.00     0.172 A 
HETATM   26  N7  UNL     1      26.651   0.735  54.599  1.00  0.00    -0.371 N 
HETATM   27  H14 UNL     1      26.226   1.345  55.328  1.00  0.00     0.161 HD
ENDBRANCH  18  20
ENDBRANCH   1  18
TORSDOF 2
ENDMDL
MODEL 9
REMARK VINA RESULT:      -8.1      5.173      9.609
REMARK  2 active torsions:
REMARK  status: ('A' for Active; 'I' for Inactive)
REMARK    1  A    between atoms: C4_5  and  N1_6 
REMARK    2  A    between atoms: N1_6  and  C5_7 
ROOT
HETATM    1  C5  UNL     1      28.749   8.136  48.320  1.00  0.00     0.142 A 
HETATM    2  N2  UNL     1      28.081   9.227  48.464  1.00  0.00    -0.224 NA
HETATM    3  C6  UNL     1      28.766  10.372  48.951  1.00  0.00     0.229 A 
HETATM    4  N3  UNL     1      30.009  10.293  49.231  1.00  0.00    -0.278 NA
HETATM    5  C7  UNL     1      30.869   9.163  49.126  1.00  0.00     0.197 A 
HETATM    6  C8  UNL     1      30.191   7.978  48.599  1.00  0.00     0.055 A 
HETATM    7  C9  UNL     1      30.860   6.859  48.377  1.00  0.00     0.158 C 
HETATM    8  N4  UNL     1      30.451   5.611  47.862  1.00  0.00    -0.131 NA
HETATM    9  N5  UNL     1      31.182   4.604  47.695  1.00  0.00    -0.151 NA
HETATM   10  C10 UNL     1      32.565   4.573  48.008  1.00  0.00     0.080 C 
HETATM   11  C11 UNL     1      33.306   3.664  47.413  1.00  0.00     0.008 C 
HETATM   12  C12 UNL     1      34.773   3.559  47.683  1.00  0.00     0.056 C 
HETATM   13  C13 UNL     1      35.191   4.861  48.290  1.00  0.00    -0.024 C 
HETATM   14  C14 UNL     1      34.423   5.800  48.876  1.00  0.00     0.001 C 
HETATM   15  C15 UNL     1      32.953   5.618  48.988  1.00  0.00     0.160 C 
HETATM   16  N6  UNL     1      32.245   6.857  48.701  1.00  0.00    -0.359 N 
HETATM   17  H13 UNL     1      32.815   7.729  48.754  1.00  0.00     0.162 HD
ENDROOT
BRANCH   1  18
HETATM   18  N1  UNL     1      28.012   7.003  47.829  1.00  0.00    -0.327 N 
HETATM   19  H3  UNL     1      28.232   6.763  46.810  1.00  0.00     0.169 HD
BRANCH  18  20
HETATM   20  C4  UNL     1      27.099   6.297  48.644  1.00  0.00     0.102 A 
HETATM   21  C3  UNL     1      27.227   4.973  48.697  1.00  0.00     0.050 A 
HETATM   22  C2  UNL     1      26.345   4.107  49.505  1.00  0.00     0.025 A 
HETATM   23  C1  UNL     1      25.411   4.714  50.182  1.00  0.00     0.029 A 
HETATM   24 CL1  UNL     1      24.327   3.722  51.167  1.00  0.00    -0.087 Cl
HETATM   25  C16 UNL     1      25.130   6.164  50.234  1.00  0.00     0.172 A 
HETATM   26  N7  UNL     1      26.061   6.904  49.402  1.00  0.00    -0.371 N 
HETATM   27  H14 UNL     1      25.953   7.939  49.366  1.00  0.00     0.161 HD
ENDBRANCH  18  20
ENDBRANCH   1  18
TORSDOF 2
ENDMDL
