MODEL 1
REMARK VINA RESULT:      -6.9      0.000      0.000
REMARK  7 active torsions:
REMARK  status: ('A' for Active; 'I' for Inactive)
REMARK    1  A    between atoms: C2_2  and  C3_3 
REMARK    2  A    between atoms: C3_3  and  C4_4 
REMARK    3  A    between atoms: C4_4  and  O1_5 
REMARK    4  A    between atoms: O1_5  and  C5_6 
REMARK    5  A    between atoms: C9_10  and  C10_11 
REMARK    6  A    between atoms: C10_11  and  C11_12 
REMARK    7  A    between atoms: C11_12  and  N1_13 
ROOT
HETATM    1  C5  UNL     1      26.735   2.463  52.111  1.00  0.00     0.068 C 
HETATM    2  C6  UNL     1      26.496   2.742  50.825  1.00  0.00     0.036 C 
HETATM    3  C7  UNL     1      25.192   2.876  50.174  1.00  0.00    -0.001 C 
HETATM    4  C8  UNL     1      24.020   3.038  50.767  1.00  0.00    -0.018 C 
HETATM    5  C9  UNL     1      23.558   3.143  52.172  1.00  0.00     0.032 C 
HETATM    6  C17 UNL     1      24.436   2.520  53.143  1.00  0.00    -0.015 C 
HETATM    7  C18 UNL     1      25.734   2.231  53.144  1.00  0.00     0.033 C 
ENDROOT
BRANCH   5   8
HETATM    8  C10 UNL     1      22.149   2.620  52.184  1.00  0.00     0.029 C 
BRANCH   8   9
HETATM    9  C11 UNL     1      21.817   1.661  51.098  1.00  0.00     0.121 C 
BRANCH   9  10
HETATM   10  N1  UNL     1      21.301   0.453  51.731  1.00  0.00    -0.197 NA
HETATM   11  C12 UNL     1      22.177  -0.206  52.498  1.00  0.00     0.120 C 
HETATM   12  C13 UNL     1      23.022  -0.882  53.370  1.00  0.00     0.017 C 
HETATM   13  C14 UNL     1      22.251  -0.977  54.727  1.00  0.00     0.003 C 
HETATM   14  C15 UNL     1      21.081   0.024  54.708  1.00  0.00     0.028 C 
HETATM   15  C16 UNL     1      20.098   0.033  53.656  1.00  0.00     0.194 C 
HETATM   16  O2  UNL     1      20.176   0.773  52.488  1.00  0.00    -0.303 OA
ENDBRANCH   9  10
ENDBRANCH   8   9
ENDBRANCH   5   8
BRANCH   1  17
HETATM   17  O1  UNL     1      28.094   2.410  52.394  1.00  0.00    -0.351 OA
BRANCH  17  18
HETATM   18  C4  UNL     1      28.489   1.918  53.657  1.00  0.00     0.179 C 
BRANCH  18  19
HETATM   19  C3  UNL     1      29.158   0.553  53.482  1.00  0.00     0.053 C 
BRANCH  19  20
HETATM   20  C2  UNL     1      28.168  -0.553  53.533  1.00  0.00    -0.035 C 
HETATM   21  C1  UNL     1      27.249  -1.214  52.861  1.00  0.00     0.007 C 
ENDBRANCH  19  20
ENDBRANCH  18  19
ENDBRANCH  17  18
ENDBRANCH   1  17
TORSDOF 7
ENDMDL
MODEL 2
REMARK VINA RESULT:      -6.8      1.958      3.686
REMARK  7 active torsions:
REMARK  status: ('A' for Active; 'I' for Inactive)
REMARK    1  A    between atoms: C2_2  and  C3_3 
REMARK    2  A    between atoms: C3_3  and  C4_4 
REMARK    3  A    between atoms: C4_4  and  O1_5 
REMARK    4  A    between atoms: O1_5  and  C5_6 
REMARK    5  A    between atoms: C9_10  and  C10_11 
REMARK    6  A    between atoms: C10_11  and  C11_12 
REMARK    7  A    between atoms: C11_12  and  N1_13 
ROOT
HETATM    1  C5  UNL     1      26.613   1.144  54.211  1.00  0.00     0.068 C 
HETATM    2  C6  UNL     1      26.178  -0.065  54.579  1.00  0.00     0.036 C 
HETATM    3  C7  UNL     1      24.865  -0.656  54.307  1.00  0.00    -0.001 C 
HETATM    4  C8  UNL     1      23.978  -0.246  53.416  1.00  0.00    -0.018 C 
HETATM    5  C9  UNL     1      23.918   0.851  52.420  1.00  0.00     0.032 C 
HETATM    6  C17 UNL     1      24.759   1.991  52.728  1.00  0.00    -0.015 C 
HETATM    7  C18 UNL     1      25.863   2.138  53.454  1.00  0.00     0.033 C 
ENDROOT
BRANCH   5   8
HETATM    8  C10 UNL     1      22.460   1.182  52.259  1.00  0.00     0.029 C 
BRANCH   8   9
HETATM    9  C11 UNL     1      22.128   2.630  52.293  1.00  0.00     0.121 C 
BRANCH   9  10
HETATM   10  N1  UNL     1      21.498   2.959  51.019  1.00  0.00    -0.197 NA
HETATM   11  C12 UNL     1      22.330   3.022  49.973  1.00  0.00     0.120 C 
HETATM   12  C13 UNL     1      23.136   3.018  48.841  1.00  0.00     0.017 C 
HETATM   13  C14 UNL     1      22.464   2.023  47.839  1.00  0.00     0.003 C 
HETATM   14  C15 UNL     1      21.447   1.157  48.603  1.00  0.00     0.028 C 
HETATM   15  C16 UNL     1      20.397   1.733  49.403  1.00  0.00     0.194 C 
HETATM   16  O2  UNL     1      20.489   2.038  50.751  1.00  0.00    -0.303 OA
ENDBRANCH   9  10
ENDBRANCH   8   9
ENDBRANCH   5   8
BRANCH   1  17
HETATM   17  O1  UNL     1      27.913   1.385  54.635  1.00  0.00    -0.351 OA
BRANCH  17  18
HETATM   18  C4  UNL     1      28.737   0.272  54.910  1.00  0.00     0.179 C 
BRANCH  18  19
HETATM   19  C3  UNL     1      29.616  -0.020  53.691  1.00  0.00     0.053 C 
BRANCH  19  20
HETATM   20  C2  UNL     1      29.627  -1.467  53.356  1.00  0.00    -0.035 C 
HETATM   21  C1  UNL     1      28.886  -2.522  53.092  1.00  0.00     0.007 C 
ENDBRANCH  19  20
ENDBRANCH  18  19
ENDBRANCH  17  18
ENDBRANCH   1  17
TORSDOF 7
ENDMDL
MODEL 3
REMARK VINA RESULT:      -6.6      2.210      7.145
REMARK  7 active torsions:
REMARK  status: ('A' for Active; 'I' for Inactive)
REMARK    1  A    between atoms: C2_2  and  C3_3 
REMARK    2  A    between atoms: C3_3  and  C4_4 
REMARK    3  A    between atoms: C4_4  and  O1_5 
REMARK    4  A    between atoms: O1_5  and  C5_6 
REMARK    5  A    between atoms: C9_10  and  C10_11 
REMARK    6  A    between atoms: C10_11  and  C11_12 
REMARK    7  A    between atoms: C11_12  and  N1_13 
ROOT
HETATM    1  C5  UNL     1      20.804   0.365  51.586  1.00  0.00     0.068 C 
HETATM    2  C6  UNL     1      21.001  -0.177  52.793  1.00  0.00     0.036 C 
HETATM    3  C7  UNL     1      22.269  -0.294  53.516  1.00  0.00    -0.001 C 
HETATM    4  C8  UNL     1      23.392   0.358  53.263  1.00  0.00    -0.018 C 
HETATM    5  C9  UNL     1      23.819   1.370  52.266  1.00  0.00     0.032 C 
HETATM    6  C17 UNL     1      23.052   1.362  51.036  1.00  0.00    -0.015 C 
HETATM    7  C18 UNL     1      21.823   0.959  50.731  1.00  0.00     0.033 C 
ENDROOT
BRANCH   5   8
HETATM    8  C10 UNL     1      25.296   1.165  52.079  1.00  0.00     0.029 C 
BRANCH   8   9
HETATM    9  C11 UNL     1      26.168   1.927  53.010  1.00  0.00     0.121 C 
BRANCH   9  10
HETATM   10  N1  UNL     1      26.768   0.964  53.926  1.00  0.00    -0.197 NA
HETATM   11  C12 UNL     1      27.104  -0.210  53.378  1.00  0.00     0.120 C 
HETATM   12  C13 UNL     1      27.545  -1.413  52.841  1.00  0.00     0.017 C 
HETATM   13  C14 UNL     1      29.055  -1.527  53.229  1.00  0.00     0.003 C 
HETATM   14  C15 UNL     1      29.561  -0.145  53.679  1.00  0.00     0.028 C 
HETATM   15  C16 UNL     1      28.907   0.611  54.717  1.00  0.00     0.194 C 
HETATM   16  O2  UNL     1      27.891   1.531  54.523  1.00  0.00    -0.303 OA
ENDBRANCH   9  10
ENDBRANCH   8   9
ENDBRANCH   5   8
BRANCH   1  17
HETATM   17  O1  UNL     1      19.472   0.311  51.197  1.00  0.00    -0.351 OA
BRANCH  17  18
HETATM   18  C4  UNL     1      18.486   0.320  52.208  1.00  0.00     0.179 C 
BRANCH  18  19
HETATM   19  C3  UNL     1      17.595  -0.915  52.057  1.00  0.00     0.053 C 
BRANCH  19  20
HETATM   20  C2  UNL     1      17.739  -1.839  53.211  1.00  0.00    -0.035 C 
HETATM   21  C1  UNL     1      17.544  -3.066  53.645  1.00  0.00     0.007 C 
ENDBRANCH  19  20
ENDBRANCH  18  19
ENDBRANCH  17  18
ENDBRANCH   1  17
TORSDOF 7
ENDMDL
MODEL 4
REMARK VINA RESULT:      -6.6      2.380      7.274
REMARK  7 active torsions:
REMARK  status: ('A' for Active; 'I' for Inactive)
REMARK    1  A    between atoms: C2_2  and  C3_3 
REMARK    2  A    between atoms: C3_3  and  C4_4 
REMARK    3  A    between atoms: C4_4  and  O1_5 
REMARK    4  A    between atoms: O1_5  and  C5_6 
REMARK    5  A    between atoms: C9_10  and  C10_11 
REMARK    6  A    between atoms: C10_11  and  C11_12 
REMARK    7  A    between atoms: C11_12  and  N1_13 
ROOT
HETATM    1  C5  UNL     1      20.714  -0.717  53.348  1.00  0.00     0.068 C 
HETATM    2  C6  UNL     1      21.598  -1.114  54.269  1.00  0.00     0.036 C 
HETATM    3  C7  UNL     1      23.039  -0.848  54.287  1.00  0.00    -0.001 C 
HETATM    4  C8  UNL     1      23.689   0.060  53.578  1.00  0.00    -0.018 C 
HETATM    5  C9  UNL     1      23.305   1.086  52.578  1.00  0.00     0.032 C 
HETATM    6  C17 UNL     1      22.073   0.801  51.867  1.00  0.00    -0.015 C 
HETATM    7  C18 UNL     1      21.002   0.071  52.157  1.00  0.00     0.033 C 
ENDROOT
BRANCH   5   8
HETATM    8  C10 UNL     1      24.505   1.267  51.692  1.00  0.00     0.029 C 
BRANCH   8   9
HETATM    9  C11 UNL     1      25.515   2.243  52.179  1.00  0.00     0.121 C 
BRANCH   9  10
HETATM   10  N1  UNL     1      26.824   1.617  52.038  1.00  0.00    -0.197 NA
HETATM   11  C12 UNL     1      27.762   2.060  52.883  1.00  0.00     0.120 C 
HETATM   12  C13 UNL     1      28.747   2.427  53.792  1.00  0.00     0.017 C 
HETATM   13  C14 UNL     1      29.231   1.098  54.459  1.00  0.00     0.003 C 
HETATM   14  C15 UNL     1      28.200  -0.008  54.173  1.00  0.00     0.028 C 
HETATM   15  C16 UNL     1      27.772  -0.331  52.837  1.00  0.00     0.194 C 
HETATM   16  O2  UNL     1      26.694   0.237  52.178  1.00  0.00    -0.303 OA
ENDBRANCH   9  10
ENDBRANCH   8   9
ENDBRANCH   5   8
BRANCH   1  17
HETATM   17  O1  UNL     1      19.425  -1.145  53.640  1.00  0.00    -0.351 OA
BRANCH  17  18
HETATM   18  C4  UNL     1      18.355  -0.558  52.929  1.00  0.00     0.179 C 
BRANCH  18  19
HETATM   19  C3  UNL     1      17.219  -1.574  52.795  1.00  0.00     0.053 C 
BRANCH  19  20
HETATM   20  C2  UNL     1      17.560  -2.867  53.441  1.00  0.00    -0.035 C 
HETATM   21  C1  UNL     1      17.114  -4.057  53.781  1.00  0.00     0.007 C 
ENDBRANCH  19  20
ENDBRANCH  18  19
ENDBRANCH  17  18
ENDBRANCH   1  17
TORSDOF 7
ENDMDL
MODEL 5
REMARK VINA RESULT:      -6.5      2.009      4.144
REMARK  7 active torsions:
REMARK  status: ('A' for Active; 'I' for Inactive)
REMARK    1  A    between atoms: C2_2  and  C3_3 
REMARK    2  A    between atoms: C3_3  and  C4_4 
REMARK    3  A    between atoms: C4_4  and  O1_5 
REMARK    4  A    between atoms: O1_5  and  C5_6 
REMARK    5  A    between atoms: C9_10  and  C10_11 
REMARK    6  A    between atoms: C10_11  and  C11_12 
REMARK    7  A    between atoms: C11_12  and  N1_13 
ROOT
HETATM    1  C5  UNL     1      24.957  -0.558  54.602  1.00  0.00     0.068 C 
HETATM    2  C6  UNL     1      24.177  -1.268  55.424  1.00  0.00     0.036 C 
HETATM    3  C7  UNL     1      22.726  -1.445  55.336  1.00  0.00    -0.001 C 
HETATM    4  C8  UNL     1      21.956  -1.195  54.288  1.00  0.00    -0.018 C 
HETATM    5  C9  UNL     1      22.184  -0.690  52.913  1.00  0.00     0.032 C 
HETATM    6  C17 UNL     1      23.377   0.120  52.760  1.00  0.00    -0.015 C 
HETATM    7  C18 UNL     1      24.521   0.193  53.433  1.00  0.00     0.033 C 
ENDROOT
BRANCH   5   8
HETATM    8  C10 UNL     1      20.910  -0.000  52.511  1.00  0.00     0.029 C 
BRANCH   8   9
HETATM    9  C11 UNL     1      20.654   1.303  53.178  1.00  0.00     0.121 C 
BRANCH   9  10
HETATM   10  N1  UNL     1      20.690   2.331  52.144  1.00  0.00    -0.197 NA
HETATM   11  C12 UNL     1      21.779   3.109  52.153  1.00  0.00     0.120 C 
HETATM   12  C13 UNL     1      22.925   3.889  52.068  1.00  0.00     0.017 C 
HETATM   13  C14 UNL     1      23.444   3.731  50.601  1.00  0.00     0.003 C 
HETATM   14  C15 UNL     1      22.761   2.510  49.959  1.00  0.00     0.028 C 
HETATM   15  C16 UNL     1      21.328   2.362  49.926  1.00  0.00     0.194 C 
HETATM   16  O2  UNL     1      20.562   1.734  50.893  1.00  0.00    -0.303 OA
ENDBRANCH   9  10
ENDBRANCH   8   9
ENDBRANCH   5   8
BRANCH   1  17
HETATM   17  O1  UNL     1      26.293  -0.602  54.979  1.00  0.00    -0.351 OA
BRANCH  17  18
HETATM   18  C4  UNL     1      27.135   0.451  54.557  1.00  0.00     0.179 C 
BRANCH  18  19
HETATM   19  C3  UNL     1      28.593   0.068  54.819  1.00  0.00     0.053 C 
BRANCH  19  20
HETATM   20  C2  UNL     1      29.152  -0.753  53.714  1.00  0.00    -0.035 C 
HETATM   21  C1  UNL     1      29.488  -1.966  53.331  1.00  0.00     0.007 C 
ENDBRANCH  19  20
ENDBRANCH  18  19
ENDBRANCH  17  18
ENDBRANCH   1  17
TORSDOF 7
ENDMDL
MODEL 6
REMARK VINA RESULT:      -6.5      2.436      5.793
REMARK  7 active torsions:
REMARK  status: ('A' for Active; 'I' for Inactive)
REMARK    1  A    between atoms: C2_2  and  C3_3 
REMARK    2  A    between atoms: C3_3  and  C4_4 
REMARK    3  A    between atoms: C4_4  and  O1_5 
REMARK    4  A    between atoms: O1_5  and  C5_6 
REMARK    5  A    between atoms: C9_10  and  C10_11 
REMARK    6  A    between atoms: C10_11  and  C11_12 
REMARK    7  A    between atoms: C11_12  and  N1_13 
ROOT
HETATM    1  C5  UNL     1      23.179   3.132  50.656  1.00  0.00     0.068 C 
HETATM    2  C6  UNL     1      22.154   2.297  50.457  1.00  0.00     0.036 C 
HETATM    3  C7  UNL     1      21.952   0.980  51.065  1.00  0.00    -0.001 C 
HETATM    4  C8  UNL     1      22.572   0.491  52.127  1.00  0.00    -0.018 C 
HETATM    5  C9  UNL     1      23.611   0.990  53.060  1.00  0.00     0.032 C 
HETATM    6  C17 UNL     1      24.473   2.016  52.507  1.00  0.00    -0.015 C 
HETATM    7  C18 UNL     1      24.322   2.903  51.529  1.00  0.00     0.033 C 
ENDROOT
BRANCH   5   8
HETATM    8  C10 UNL     1      24.337  -0.229  53.557  1.00  0.00     0.029 C 
BRANCH   8   9
HETATM    9  C11 UNL     1      25.611  -0.540  52.859  1.00  0.00     0.121 C 
BRANCH   9  10
HETATM   10  N1  UNL     1      26.612  -0.809  53.886  1.00  0.00    -0.197 NA
HETATM   11  C12 UNL     1      27.723  -1.416  53.452  1.00  0.00     0.120 C 
HETATM   12  C13 UNL     1      28.929  -1.969  53.040  1.00  0.00     0.017 C 
HETATM   13  C14 UNL     1      30.043  -0.996  53.546  1.00  0.00     0.003 C 
HETATM   14  C15 UNL     1      29.396   0.348  53.928  1.00  0.00     0.028 C 
HETATM   15  C16 UNL     1      28.298   0.434  54.856  1.00  0.00     0.194 C 
HETATM   16  O2  UNL     1      26.955   0.382  54.520  1.00  0.00    -0.303 OA
ENDBRANCH   9  10
ENDBRANCH   8   9
ENDBRANCH   5   8
BRANCH   1  17
HETATM   17  O1  UNL     1      23.053   4.302  49.917  1.00  0.00    -0.351 OA
BRANCH  17  18
HETATM   18  C4  UNL     1      23.936   5.366  50.207  1.00  0.00     0.179 C 
BRANCH  18  19
HETATM   19  C3  UNL     1      24.800   5.655  48.978  1.00  0.00     0.053 C 
BRANCH  19  20
HETATM   20  C2  UNL     1      26.186   5.150  49.150  1.00  0.00    -0.035 C 
HETATM   21  C1  UNL     1      26.947   4.078  49.215  1.00  0.00     0.007 C 
ENDBRANCH  19  20
ENDBRANCH  18  19
ENDBRANCH  17  18
ENDBRANCH   1  17
TORSDOF 7
ENDMDL
MODEL 7
REMARK VINA RESULT:      -6.4      2.287      4.361
REMARK  7 active torsions:
REMARK  status: ('A' for Active; 'I' for Inactive)
REMARK    1  A    between atoms: C2_2  and  C3_3 
REMARK    2  A    between atoms: C3_3  and  C4_4 
REMARK    3  A    between atoms: C4_4  and  O1_5 
REMARK    4  A    between atoms: O1_5  and  C5_6 
REMARK    5  A    between atoms: C9_10  and  C10_11 
REMARK    6  A    between atoms: C10_11  and  C11_12 
REMARK    7  A    between atoms: C11_12  and  N1_13 
ROOT
HETATM    1  C5  UNL     1      24.312  -0.530  54.165  1.00  0.00     0.068 C 
HETATM    2  C6  UNL     1      23.370  -1.145  54.888  1.00  0.00     0.036 C 
HETATM    3  C7  UNL     1      21.927  -0.898  54.858  1.00  0.00    -0.001 C 
HETATM    4  C8  UNL     1      21.251  -0.248  53.925  1.00  0.00    -0.018 C 
HETATM    5  C9  UNL     1      21.602   0.434  52.655  1.00  0.00     0.032 C 
HETATM    6  C17 UNL     1      22.973   0.900  52.581  1.00  0.00    -0.015 C 
HETATM    7  C18 UNL     1      24.096   0.525  53.184  1.00  0.00     0.033 C 
ENDROOT
BRANCH   5   8
HETATM    8  C10 UNL     1      20.570   1.510  52.467  1.00  0.00     0.029 C 
BRANCH   8   9
HETATM    9  C11 UNL     1      21.108   2.874  52.225  1.00  0.00     0.121 C 
BRANCH   9  10
HETATM   10  N1  UNL     1      20.853   3.197  50.826  1.00  0.00    -0.197 NA
HETATM   11  C12 UNL     1      21.937   3.239  50.043  1.00  0.00     0.120 C 
HETATM   12  C13 UNL     1      23.020   3.214  49.173  1.00  0.00     0.017 C 
HETATM   13  C14 UNL     1      22.631   2.217  48.034  1.00  0.00     0.003 C 
HETATM   14  C15 UNL     1      21.432   1.370  48.498  1.00  0.00     0.028 C 
HETATM   15  C16 UNL     1      20.213   1.967  48.980  1.00  0.00     0.194 C 
HETATM   16  O2  UNL     1      19.941   2.285  50.299  1.00  0.00    -0.303 OA
ENDBRANCH   9  10
ENDBRANCH   8   9
ENDBRANCH   5   8
BRANCH   1  17
HETATM   17  O1  UNL     1      25.585  -1.011  54.444  1.00  0.00    -0.351 OA
BRANCH  17  18
HETATM   18  C4  UNL     1      26.691  -0.223  54.054  1.00  0.00     0.179 C 
BRANCH  18  19
HETATM   19  C3  UNL     1      27.459  -0.945  52.945  1.00  0.00     0.053 C 
BRANCH  19  20
HETATM   20  C2  UNL     1      28.866  -1.214  53.338  1.00  0.00    -0.035 C 
HETATM   21  C1  UNL     1      30.056  -0.684  53.527  1.00  0.00     0.007 C 
ENDBRANCH  19  20
ENDBRANCH  18  19
ENDBRANCH  17  18
ENDBRANCH   1  17
TORSDOF 7
ENDMDL
MODEL 8
REMARK VINA RESULT:      -6.4      3.120      6.291
REMARK  7 active torsions:
REMARK  status: ('A' for Active; 'I' for Inactive)
REMARK    1  A    between atoms: C2_2  and  C3_3 
REMARK    2  A    between atoms: C3_3  and  C4_4 
REMARK    3  A    between atoms: C4_4  and  O1_5 
REMARK    4  A    between atoms: O1_5  and  C5_6 
REMARK    5  A    between atoms: C9_10  and  C10_11 
REMARK    6  A    between atoms: C10_11  and  C11_12 
REMARK    7  A    between atoms: C11_12  and  N1_13 
ROOT
HETATM    1  C5  UNL     1      24.887   4.076  49.638  1.00  0.00     0.068 C 
HETATM    2  C6  UNL     1      23.714   3.576  50.040  1.00  0.00     0.036 C 
HETATM    3  C7  UNL     1      23.487   2.339  50.791  1.00  0.00    -0.001 C 
HETATM    4  C8  UNL     1      24.389   1.640  51.462  1.00  0.00    -0.018 C 
HETATM    5  C9  UNL     1      25.842   1.775  51.723  1.00  0.00     0.032 C 
HETATM    6  C17 UNL     1      26.564   2.544  50.728  1.00  0.00    -0.015 C 
HETATM    7  C18 UNL     1      26.199   3.487  49.866  1.00  0.00     0.033 C 
ENDROOT
BRANCH   5   8
HETATM    8  C10 UNL     1      26.357   0.376  51.920  1.00  0.00     0.029 C 
BRANCH   8   9
HETATM    9  C11 UNL     1      25.675  -0.410  52.981  1.00  0.00     0.121 C 
BRANCH   9  10
HETATM   10  N1  UNL     1      26.688  -0.774  53.966  1.00  0.00    -0.197 NA
HETATM   11  C12 UNL     1      27.781  -1.364  53.467  1.00  0.00     0.120 C 
HETATM   12  C13 UNL     1      28.969  -1.905  52.992  1.00  0.00     0.017 C 
HETATM   13  C14 UNL     1      30.109  -0.992  53.551  1.00  0.00     0.003 C 
HETATM   14  C15 UNL     1      29.493   0.328  54.047  1.00  0.00     0.028 C 
HETATM   15  C16 UNL     1      28.413   0.361  54.998  1.00  0.00     0.194 C 
HETATM   16  O2  UNL     1      27.064   0.359  54.684  1.00  0.00    -0.303 OA
ENDBRANCH   9  10
ENDBRANCH   8   9
ENDBRANCH   5   8
BRANCH   1  17
HETATM   17  O1  UNL     1      24.738   5.271  48.946  1.00  0.00    -0.351 OA
BRANCH  17  18
HETATM   18  C4  UNL     1      25.543   6.365  49.333  1.00  0.00     0.179 C 
BRANCH  18  19
HETATM   19  C3  UNL     1      25.016   6.940  50.649  1.00  0.00     0.053 C 
BRANCH  19  20
HETATM   20  C2  UNL     1      23.849   7.833  50.429  1.00  0.00    -0.035 C 
HETATM   21  C1  UNL     1      23.107   8.440  49.529  1.00  0.00     0.007 C 
ENDBRANCH  19  20
ENDBRANCH  18  19
ENDBRANCH  17  18
ENDBRANCH   1  17
TORSDOF 7
ENDMDL
MODEL 9
REMARK VINA RESULT:      -6.3      1.728      2.298
REMARK  7 active torsions:
REMARK  status: ('A' for Active; 'I' for Inactive)
REMARK    1  A    between atoms: C2_2  and  C3_3 
REMARK    2  A    between atoms: C3_3  and  C4_4 
REMARK    3  A    between atoms: C4_4  and  O1_5 
REMARK    4  A    between atoms: O1_5  and  C5_6 
REMARK    5  A    between atoms: C9_10  and  C10_11 
REMARK    6  A    between atoms: C10_11  and  C11_12 
REMARK    7  A    between atoms: C11_12  and  N1_13 
ROOT
HETATM    1  C5  UNL     1      25.959   2.123  51.718  1.00  0.00     0.068 C 
HETATM    2  C6  UNL     1      26.002   2.846  50.594  1.00  0.00     0.036 C 
HETATM    3  C7  UNL     1      25.044   3.865  50.158  1.00  0.00    -0.001 C 
HETATM    4  C8  UNL     1      24.135   4.471  50.904  1.00  0.00    -0.018 C 
HETATM    5  C9  UNL     1      23.727   4.403  52.328  1.00  0.00     0.032 C 
HETATM    6  C17 UNL     1      24.036   3.148  52.983  1.00  0.00    -0.015 C 
HETATM    7  C18 UNL     1      24.940   2.201  52.756  1.00  0.00     0.033 C 
ENDROOT
BRANCH   5   8
HETATM    8  C10 UNL     1      22.271   4.777  52.358  1.00  0.00     0.029 C 
BRANCH   8   9
HETATM    9  C11 UNL     1      21.554   4.650  51.063  1.00  0.00     0.121 C 
BRANCH   9  10
HETATM   10  N1  UNL     1      20.655   3.508  51.177  1.00  0.00    -0.197 NA
HETATM   11  C12 UNL     1      21.132   2.357  50.687  1.00  0.00     0.120 C 
HETATM   12  C13 UNL     1      21.611   1.122  50.269  1.00  0.00     0.017 C 
HETATM   13  C14 UNL     1      21.459   0.165  51.495  1.00  0.00     0.003 C 
HETATM   14  C15 UNL     1      21.232   1.008  52.763  1.00  0.00     0.028 C 
HETATM   15  C16 UNL     1      20.184   1.991  52.852  1.00  0.00     0.194 C 
HETATM   16  O2  UNL     1      20.303   3.328  52.512  1.00  0.00    -0.303 OA
ENDBRANCH   9  10
ENDBRANCH   8   9
ENDBRANCH   5   8
BRANCH   1  17
HETATM   17  O1  UNL     1      27.030   1.243  51.817  1.00  0.00    -0.351 OA
BRANCH  17  18
HETATM   18  C4  UNL     1      26.748  -0.117  52.074  1.00  0.00     0.179 C 
BRANCH  18  19
HETATM   19  C3  UNL     1      27.251  -0.482  53.472  1.00  0.00     0.053 C 
BRANCH  19  20
HETATM   20  C2  UNL     1      28.723  -0.319  53.586  1.00  0.00    -0.035 C 
HETATM   21  C1  UNL     1      29.885  -0.936  53.552  1.00  0.00     0.007 C 
ENDBRANCH  19  20
ENDBRANCH  18  19
ENDBRANCH  17  18
ENDBRANCH   1  17
TORSDOF 7
ENDMDL
