MODEL 1
REMARK VINA RESULT:      -8.4      0.000      0.000
REMARK  7 active torsions:
REMARK  status: ('A' for Active; 'I' for Inactive)
REMARK    1  A    between atoms: C2_2  and  N1_3 
REMARK    2  A    between atoms: C2_2  and  C16_22 
REMARK    3  A    between atoms: N1_3  and  C3_4 
REMARK    4  A    between atoms: C8_12  and  N4_13 
REMARK    5  A    between atoms: C8_12  and  C9_14 
REMARK    6  A    between atoms: C9_14  and  C10_15 
REMARK    7  A    between atoms: C13_18  and  O1_19 
ROOT
HETATM    1  C3  UNL     1      24.366   0.593  52.727  1.00  0.00     0.138 A 
HETATM    2  N2  UNL     1      24.153  -0.239  53.751  1.00  0.00    -0.224 NA
HETATM    3  C4  UNL     1      22.935  -0.548  54.170  1.00  0.00     0.235 A 
HETATM    4  N3  UNL     1      21.925   0.014  53.513  1.00  0.00    -0.242 NA
HETATM    5  C5  UNL     1      22.079   0.854  52.479  1.00  0.00     0.093 A 
HETATM    6  C6  UNL     1      23.322   1.169  52.053  1.00  0.00     0.038 A 
HETATM    7  C7  UNL     1      23.397   2.102  50.908  1.00  0.00     0.032 A 
HETATM    8  P1  UNL     1      21.657   2.517  50.456  1.00  0.00    -0.010 P 
HETATM    9  C8  UNL     1      20.899   1.407  51.838  1.00  0.00     0.232 A 
ENDROOT
BRANCH   9  10
HETATM   10  N4  UNL     1      20.055   2.185  52.710  1.00  0.00     0.099 N 
HETATM   11  H8  UNL     1      19.399   2.719  52.075  1.00  0.00     0.314 HD
HETATM   12  H9  UNL     1      19.556   1.633  53.419  1.00  0.00     0.314 HD
ENDBRANCH   9  10
BRANCH   9  13
HETATM   13  C9  UNL     1      20.122   0.415  51.011  1.00  0.00     0.092 C 
BRANCH  13  14
HETATM   14  C10 UNL     1      18.829   0.029  51.629  1.00  0.00    -0.055 A 
HETATM   15  C11 UNL     1      18.713  -0.826  52.705  1.00  0.00     0.010 A 
HETATM   16  C12 UNL     1      17.461  -1.124  53.208  1.00  0.00     0.037 A 
HETATM   17  C13 UNL     1      16.307  -0.586  52.659  1.00  0.00     0.065 A 
HETATM   18  C14 UNL     1      16.382   0.272  51.581  1.00  0.00     0.037 A 
HETATM   19  C15 UNL     1      17.666   0.551  51.099  1.00  0.00     0.010 A 
BRANCH  17  20
HETATM   20  O1  UNL     1      15.021  -0.858  53.132  1.00  0.00    -0.361 OA
HETATM   21  H14 UNL     1      14.579  -0.257  53.807  1.00  0.00     0.217 HD
ENDBRANCH  17  20
ENDBRANCH  13  14
ENDBRANCH   9  13
BRANCH   1  22
HETATM   22  N1  UNL     1      25.724   0.860  52.310  1.00  0.00    -0.366 N 
HETATM   23  H5  UNL     1      25.919   0.996  51.285  1.00  0.00     0.161 HD
BRANCH  22  24
HETATM   24  C2  UNL     1      26.765   0.937  53.278  1.00  0.00     0.112 C 
HETATM   25  C1  UNL     1      27.548   2.216  53.278  1.00  0.00     0.037 C 
BRANCH  24  26
HETATM   26  C16 UNL     1      27.627  -0.251  53.231  1.00  0.00    -0.036 A 
HETATM   27  C17 UNL     1      28.957  -0.060  53.637  1.00  0.00     0.009 A 
HETATM   28  C18 UNL     1      29.947  -1.017  53.690  1.00  0.00     0.001 A 
HETATM   29  C19 UNL     1      29.629  -2.293  53.314  1.00  0.00     0.000 A 
HETATM   30  C20 UNL     1      28.348  -2.549  52.906  1.00  0.00     0.001 A 
HETATM   31  C21 UNL     1      27.406  -1.557  52.874  1.00  0.00     0.009 A 
ENDBRANCH  24  26
ENDBRANCH  22  24
ENDBRANCH   1  22
TORSDOF 7
ENDMDL
MODEL 2
REMARK VINA RESULT:      -8.2      3.231      8.459
REMARK  7 active torsions:
REMARK  status: ('A' for Active; 'I' for Inactive)
REMARK    1  A    between atoms: C2_2  and  N1_3 
REMARK    2  A    between atoms: C2_2  and  C16_22 
REMARK    3  A    between atoms: N1_3  and  C3_4 
REMARK    4  A    between atoms: C8_12  and  N4_13 
REMARK    5  A    between atoms: C8_12  and  C9_14 
REMARK    6  A    between atoms: C9_14  and  C10_15 
REMARK    7  A    between atoms: C13_18  and  O1_19 
ROOT
HETATM    1  C3  UNL     1      22.038   2.685  51.937  1.00  0.00     0.138 A 
HETATM    2  N2  UNL     1      22.256   3.866  51.351  1.00  0.00    -0.224 NA
HETATM    3  C4  UNL     1      23.464   4.403  51.271  1.00  0.00     0.235 A 
HETATM    4  N3  UNL     1      24.459   3.701  51.806  1.00  0.00    -0.242 NA
HETATM    5  C5  UNL     1      24.299   2.512  52.404  1.00  0.00     0.093 A 
HETATM    6  C6  UNL     1      23.067   1.964  52.486  1.00  0.00     0.038 A 
HETATM    7  C7  UNL     1      22.984   0.652  53.162  1.00  0.00     0.032 A 
HETATM    8  P1  UNL     1      24.702   0.219  53.676  1.00  0.00    -0.010 P 
HETATM    9  C8  UNL     1      25.462   1.837  52.952  1.00  0.00     0.232 A 
ENDROOT
BRANCH   9  10
HETATM   10  N4  UNL     1      26.154   2.577  53.977  1.00  0.00     0.099 N 
HETATM   11  H8  UNL     1      26.004   2.037  54.874  1.00  0.00     0.314 HD
HETATM   12  H9  UNL     1      27.148   2.745  53.779  1.00  0.00     0.314 HD
ENDBRANCH   9  10
BRANCH   9  13
HETATM   13  C9  UNL     1      26.396   1.270  51.913  1.00  0.00     0.092 C 
BRANCH  13  14
HETATM   14  C10 UNL     1      27.124   0.065  52.382  1.00  0.00    -0.055 A 
HETATM   15  C11 UNL     1      28.264   0.105  53.157  1.00  0.00     0.010 A 
HETATM   16  C12 UNL     1      28.870  -1.076  53.542  1.00  0.00     0.037 A 
HETATM   17  C13 UNL     1      28.362  -2.312  53.168  1.00  0.00     0.065 A 
HETATM   18  C14 UNL     1      27.225  -2.392  52.393  1.00  0.00     0.037 A 
HETATM   19  C15 UNL     1      26.639  -1.177  52.022  1.00  0.00     0.010 A 
BRANCH  17  20
HETATM   20  O1  UNL     1      28.939  -3.531  53.532  1.00  0.00    -0.361 OA
HETATM   21  H14 UNL     1      29.601  -3.587  54.287  1.00  0.00     0.217 HD
ENDBRANCH  17  20
ENDBRANCH  13  14
ENDBRANCH   9  13
BRANCH   1  22
HETATM   22  N1  UNL     1      20.695   2.150  51.961  1.00  0.00    -0.366 N 
HETATM   23  H5  UNL     1      19.984   2.601  52.592  1.00  0.00     0.161 HD
BRANCH  22  24
HETATM   24  C2  UNL     1      20.357   1.036  51.142  1.00  0.00     0.112 C 
HETATM   25  C1  UNL     1      20.057   1.362  49.708  1.00  0.00     0.037 C 
BRANCH  24  26
HETATM   26  C16 UNL     1      19.311   0.213  51.763  1.00  0.00    -0.036 A 
HETATM   27  C17 UNL     1      18.084   0.163  51.082  1.00  0.00     0.009 A 
HETATM   28  C18 UNL     1      16.963  -0.543  51.457  1.00  0.00     0.001 A 
HETATM   29  C19 UNL     1      17.023  -1.280  52.607  1.00  0.00     0.000 A 
HETATM   30  C20 UNL     1      18.189  -1.276  53.321  1.00  0.00     0.001 A 
HETATM   31  C21 UNL     1      19.273  -0.555  52.899  1.00  0.00     0.009 A 
ENDBRANCH  24  26
ENDBRANCH  22  24
ENDBRANCH   1  22
TORSDOF 7
ENDMDL
MODEL 3
REMARK VINA RESULT:      -8.0      3.565      4.998
REMARK  7 active torsions:
REMARK  status: ('A' for Active; 'I' for Inactive)
REMARK    1  A    between atoms: C2_2  and  N1_3 
REMARK    2  A    between atoms: C2_2  and  C16_22 
REMARK    3  A    between atoms: N1_3  and  C3_4 
REMARK    4  A    between atoms: C8_12  and  N4_13 
REMARK    5  A    between atoms: C8_12  and  C9_14 
REMARK    6  A    between atoms: C9_14  and  C10_15 
REMARK    7  A    between atoms: C13_18  and  O1_19 
ROOT
HETATM    1  C3  UNL     1      24.405   3.843  51.375  1.00  0.00     0.138 A 
HETATM    2  N2  UNL     1      24.897   3.147  52.403  1.00  0.00    -0.224 NA
HETATM    3  C4  UNL     1      24.156   2.304  53.108  1.00  0.00     0.235 A 
HETATM    4  N3  UNL     1      22.885   2.185  52.736  1.00  0.00    -0.242 NA
HETATM    5  C5  UNL     1      22.337   2.857  51.713  1.00  0.00     0.093 A 
HETATM    6  C6  UNL     1      23.094   3.716  50.995  1.00  0.00     0.038 A 
HETATM    7  C7  UNL     1      22.408   4.413  49.886  1.00  0.00     0.032 A 
HETATM    8  P1  UNL     1      20.663   3.816  49.893  1.00  0.00    -0.010 P 
HETATM    9  C8  UNL     1      20.935   2.643  51.399  1.00  0.00     0.232 A 
ENDROOT
BRANCH   9  10
HETATM   10  N4  UNL     1      20.027   2.970  52.470  1.00  0.00     0.099 N 
HETATM   11  H8  UNL     1      19.374   2.142  52.556  1.00  0.00     0.314 HD
HETATM   12  H9  UNL     1      20.488   3.203  53.358  1.00  0.00     0.314 HD
ENDBRANCH   9  10
BRANCH   9  13
HETATM   13  C9  UNL     1      20.638   1.305  50.773  1.00  0.00     0.092 C 
BRANCH  13  14
HETATM   14  C10 UNL     1      19.898   0.391  51.678  1.00  0.00    -0.055 A 
HETATM   15  C11 UNL     1      20.442  -0.183  52.809  1.00  0.00     0.010 A 
HETATM   16  C12 UNL     1      19.668  -1.023  53.588  1.00  0.00     0.037 A 
HETATM   17  C13 UNL     1      18.350  -1.309  53.264  1.00  0.00     0.065 A 
HETATM   18  C14 UNL     1      17.772  -0.754  52.142  1.00  0.00     0.037 A 
HETATM   19  C15 UNL     1      18.584   0.090  51.378  1.00  0.00     0.010 A 
BRANCH  17  20
HETATM   20  O1  UNL     1      17.530  -2.151  54.019  1.00  0.00    -0.361 OA
HETATM   21  H14 UNL     1      16.541  -1.983  54.091  1.00  0.00     0.217 HD
ENDBRANCH  17  20
ENDBRANCH  13  14
ENDBRANCH   9  13
BRANCH   1  22
HETATM   22  N1  UNL     1      25.283   4.722  50.637  1.00  0.00    -0.366 N 
HETATM   23  H5  UNL     1      25.444   5.696  51.002  1.00  0.00     0.161 HD
BRANCH  22  24
HETATM   24  C2  UNL     1      25.909   4.265  49.443  1.00  0.00     0.112 C 
HETATM   25  C1  UNL     1      26.649   2.965  49.564  1.00  0.00     0.037 C 
BRANCH  24  26
HETATM   26  C16 UNL     1      26.724   5.322  48.829  1.00  0.00    -0.036 A 
HETATM   27  C17 UNL     1      28.074   5.004  48.607  1.00  0.00     0.009 A 
HETATM   28  C18 UNL     1      29.029   5.819  48.039  1.00  0.00     0.001 A 
HETATM   29  C19 UNL     1      28.650   7.071  47.641  1.00  0.00     0.000 A 
HETATM   30  C20 UNL     1      27.348   7.446  47.828  1.00  0.00     0.001 A 
HETATM   31  C21 UNL     1      26.442   6.593  48.399  1.00  0.00     0.009 A 
ENDBRANCH  24  26
ENDBRANCH  22  24
ENDBRANCH   1  22
TORSDOF 7
ENDMDL
MODEL 4
REMARK VINA RESULT:      -8.0      1.707      2.383
REMARK  7 active torsions:
REMARK  status: ('A' for Active; 'I' for Inactive)
REMARK    1  A    between atoms: C2_2  and  N1_3 
REMARK    2  A    between atoms: C2_2  and  C16_22 
REMARK    3  A    between atoms: N1_3  and  C3_4 
REMARK    4  A    between atoms: C8_12  and  N4_13 
REMARK    5  A    between atoms: C8_12  and  C9_14 
REMARK    6  A    between atoms: C9_14  and  C10_15 
REMARK    7  A    between atoms: C13_18  and  O1_19 
ROOT
HETATM    1  C3  UNL     1      24.554   2.479  52.930  1.00  0.00     0.138 A 
HETATM    2  N2  UNL     1      24.121   3.632  52.413  1.00  0.00    -0.224 NA
HETATM    3  C4  UNL     1      22.903   3.769  51.911  1.00  0.00     0.235 A 
HETATM    4  N3  UNL     1      22.124   2.692  51.948  1.00  0.00    -0.242 NA
HETATM    5  C5  UNL     1      22.505   1.510  52.455  1.00  0.00     0.093 A 
HETATM    6  C6  UNL     1      23.748   1.371  52.967  1.00  0.00     0.038 A 
HETATM    7  C7  UNL     1      24.082   0.034  53.504  1.00  0.00     0.032 A 
HETATM    8  P1  UNL     1      22.585  -1.016  53.261  1.00  0.00    -0.010 P 
HETATM    9  C8  UNL     1      21.566   0.402  52.442  1.00  0.00     0.232 A 
ENDROOT
BRANCH   9  10
HETATM   10  N4  UNL     1      21.119   0.014  51.128  1.00  0.00     0.099 N 
HETATM   11  H8  UNL     1      21.676  -0.849  50.877  1.00  0.00     0.314 HD
HETATM   12  H9  UNL     1      20.105  -0.135  51.055  1.00  0.00     0.314 HD
ENDBRANCH   9  10
BRANCH   9  13
HETATM   13  C9  UNL     1      20.432   0.540  53.426  1.00  0.00     0.092 C 
BRANCH  13  14
HETATM   14  C10 UNL     1      19.148   0.003  52.911  1.00  0.00    -0.055 A 
HETATM   15  C11 UNL     1      18.389   0.619  51.938  1.00  0.00     0.010 A 
HETATM   16  C12 UNL     1      17.204   0.037  51.526  1.00  0.00     0.037 A 
HETATM   17  C13 UNL     1      16.752  -1.158  52.068  1.00  0.00     0.065 A 
HETATM   18  C14 UNL     1      17.483  -1.802  53.043  1.00  0.00     0.037 A 
HETATM   19  C15 UNL     1      18.676  -1.184  53.435  1.00  0.00     0.010 A 
BRANCH  17  20
HETATM   20  O1  UNL     1      15.563  -1.783  51.685  1.00  0.00    -0.361 OA
HETATM   21  H14 UNL     1      15.438  -2.129  50.749  1.00  0.00     0.217 HD
ENDBRANCH  17  20
ENDBRANCH  13  14
ENDBRANCH   9  13
BRANCH   1  22
HETATM   22  N1  UNL     1      25.887   2.414  53.484  1.00  0.00    -0.366 N 
HETATM   23  H5  UNL     1      26.003   2.498  54.527  1.00  0.00     0.161 HD
BRANCH  22  24
HETATM   24  C2  UNL     1      27.008   2.240  52.626  1.00  0.00     0.112 C 
HETATM   25  C1  UNL     1      26.744   2.480  51.168  1.00  0.00     0.037 C 
BRANCH  24  26
HETATM   26  C16 UNL     1      27.676   0.955  52.872  1.00  0.00    -0.036 A 
HETATM   27  C17 UNL     1      28.961   1.029  53.435  1.00  0.00     0.009 A 
HETATM   28  C18 UNL     1      29.777  -0.030  53.766  1.00  0.00     0.001 A 
HETATM   29  C19 UNL     1      29.313  -1.295  53.533  1.00  0.00     0.000 A 
HETATM   30  C20 UNL     1      28.068  -1.440  52.985  1.00  0.00     0.001 A 
HETATM   31  C21 UNL     1      27.301  -0.350  52.677  1.00  0.00     0.009 A 
ENDBRANCH  24  26
ENDBRANCH  22  24
ENDBRANCH   1  22
TORSDOF 7
ENDMDL
MODEL 5
REMARK VINA RESULT:      -8.0      4.517      6.191
REMARK  7 active torsions:
REMARK  status: ('A' for Active; 'I' for Inactive)
REMARK    1  A    between atoms: C2_2  and  N1_3 
REMARK    2  A    between atoms: C2_2  and  C16_22 
REMARK    3  A    between atoms: N1_3  and  C3_4 
REMARK    4  A    between atoms: C8_12  and  N4_13 
REMARK    5  A    between atoms: C8_12  and  C9_14 
REMARK    6  A    between atoms: C9_14  and  C10_15 
REMARK    7  A    between atoms: C13_18  and  O1_19 
ROOT
HETATM    1  C3  UNL     1      26.072   3.962  49.638  1.00  0.00     0.138 A 
HETATM    2  N2  UNL     1      26.914   3.346  50.473  1.00  0.00    -0.224 NA
HETATM    3  C4  UNL     1      26.491   2.558  51.451  1.00  0.00     0.235 A 
HETATM    4  N3  UNL     1      25.175   2.408  51.561  1.00  0.00    -0.242 NA
HETATM    5  C5  UNL     1      24.284   3.001  50.752  1.00  0.00     0.093 A 
HETATM    6  C6  UNL     1      24.715   3.804  49.755  1.00  0.00     0.038 A 
HETATM    7  C7  UNL     1      23.664   4.414  48.913  1.00  0.00     0.032 A 
HETATM    8  P1  UNL     1      22.050   3.816  49.576  1.00  0.00    -0.010 P 
HETATM    9  C8  UNL     1      22.868   2.762  50.968  1.00  0.00     0.232 A 
ENDROOT
BRANCH   9  10
HETATM   10  N4  UNL     1      22.385   3.168  52.265  1.00  0.00     0.099 N 
HETATM   11  H8  UNL     1      21.887   2.324  52.664  1.00  0.00     0.314 HD
HETATM   12  H9  UNL     1      23.114   3.529  52.893  1.00  0.00     0.314 HD
ENDBRANCH   9  10
BRANCH   9  13
HETATM   13  C9  UNL     1      22.407   1.379  50.583  1.00  0.00     0.092 C 
BRANCH  13  14
HETATM   14  C10 UNL     1      21.943   0.577  51.742  1.00  0.00    -0.055 A 
HETATM   15  C11 UNL     1      20.615   0.372  52.056  1.00  0.00     0.010 A 
HETATM   16  C12 UNL     1      20.285  -0.392  53.160  1.00  0.00     0.037 A 
HETATM   17  C13 UNL     1      21.257  -0.963  53.969  1.00  0.00     0.065 A 
HETATM   18  C14 UNL     1      22.594  -0.779  53.688  1.00  0.00     0.037 A 
HETATM   19  C15 UNL     1      22.890  -0.001  52.564  1.00  0.00     0.010 A 
BRANCH  17  20
HETATM   20  O1  UNL     1      20.972  -1.741  55.094  1.00  0.00    -0.361 OA
HETATM   21  H14 UNL     1      20.488  -2.619  55.008  1.00  0.00     0.217 HD
ENDBRANCH  17  20
ENDBRANCH  13  14
ENDBRANCH   9  13
BRANCH   1  22
HETATM   22  N1  UNL     1      26.610   4.783  48.578  1.00  0.00    -0.366 N 
HETATM   23  H5  UNL     1      26.690   4.372  47.613  1.00  0.00     0.161 HD
BRANCH  22  24
HETATM   24  C2  UNL     1      27.017   6.120  48.849  1.00  0.00     0.112 C 
HETATM   25  C1  UNL     1      25.974   7.170  48.603  1.00  0.00     0.037 C 
BRANCH  24  26
HETATM   26  C16 UNL     1      28.295   6.432  48.196  1.00  0.00    -0.036 A 
HETATM   27  C17 UNL     1      29.304   5.464  48.329  1.00  0.00     0.009 A 
HETATM   28  C18 UNL     1      30.575   5.523  47.801  1.00  0.00     0.001 A 
HETATM   29  C19 UNL     1      30.916   6.626  47.069  1.00  0.00     0.000 A 
HETATM   30  C20 UNL     1      29.980   7.609  46.900  1.00  0.00     0.001 A 
HETATM   31  C21 UNL     1      28.731   7.496  47.448  1.00  0.00     0.009 A 
ENDBRANCH  24  26
ENDBRANCH  22  24
ENDBRANCH   1  22
TORSDOF 7
ENDMDL
MODEL 6
REMARK VINA RESULT:      -7.9      4.180      6.096
REMARK  7 active torsions:
REMARK  status: ('A' for Active; 'I' for Inactive)
REMARK    1  A    between atoms: C2_2  and  N1_3 
REMARK    2  A    between atoms: C2_2  and  C16_22 
REMARK    3  A    between atoms: N1_3  and  C3_4 
REMARK    4  A    between atoms: C8_12  and  N4_13 
REMARK    5  A    between atoms: C8_12  and  C9_14 
REMARK    6  A    between atoms: C9_14  and  C10_15 
REMARK    7  A    between atoms: C13_18  and  O1_19 
ROOT
HETATM    1  C3  UNL     1      24.005   4.040  49.978  1.00  0.00     0.138 A 
HETATM    2  N2  UNL     1      24.887   3.945  50.978  1.00  0.00    -0.224 NA
HETATM    3  C4  UNL     1      24.636   3.253  52.079  1.00  0.00     0.235 A 
HETATM    4  N3  UNL     1      23.452   2.651  52.141  1.00  0.00    -0.242 NA
HETATM    5  C5  UNL     1      22.530   2.710  51.169  1.00  0.00     0.093 A 
HETATM    6  C6  UNL     1      22.787   3.416  50.045  1.00  0.00     0.038 A 
HETATM    7  C7  UNL     1      21.714   3.427  49.027  1.00  0.00     0.032 A 
HETATM    8  P1  UNL     1      20.336   2.408  49.709  1.00  0.00    -0.010 P 
HETATM    9  C8  UNL     1      21.271   2.009  51.347  1.00  0.00     0.232 A 
ENDROOT
BRANCH   9  10
HETATM   10  N4  UNL     1      20.505   2.441  52.490  1.00  0.00     0.099 N 
HETATM   11  H8  UNL     1      19.505   2.161  52.288  1.00  0.00     0.314 HD
HETATM   12  H9  UNL     1      20.843   2.074  53.388  1.00  0.00     0.314 HD
ENDBRANCH   9  10
BRANCH   9  13
HETATM   13  C9  UNL     1      21.379   0.509  51.253  1.00  0.00     0.092 C 
BRANCH  13  14
HETATM   14  C10 UNL     1      21.731  -0.131  52.545  1.00  0.00    -0.055 A 
HETATM   15  C11 UNL     1      20.804  -0.637  53.434  1.00  0.00     0.010 A 
HETATM   16  C12 UNL     1      21.234  -1.214  54.614  1.00  0.00     0.037 A 
HETATM   17  C13 UNL     1      22.581  -1.302  54.935  1.00  0.00     0.065 A 
HETATM   18  C14 UNL     1      23.536  -0.806  54.073  1.00  0.00     0.037 A 
HETATM   19  C15 UNL     1      23.065  -0.229  52.889  1.00  0.00     0.010 A 
BRANCH  17  20
HETATM   20  O1  UNL     1      23.063  -1.875  56.114  1.00  0.00    -0.361 OA
HETATM   21  H14 UNL     1      22.552  -1.792  56.976  1.00  0.00     0.217 HD
ENDBRANCH  17  20
ENDBRANCH  13  14
ENDBRANCH   9  13
BRANCH   1  22
HETATM   22  N1  UNL     1      24.362   4.790  48.795  1.00  0.00    -0.366 N 
HETATM   23  H5  UNL     1      24.177   4.361  47.852  1.00  0.00     0.161 HD
BRANCH  22  24
HETATM   24  C2  UNL     1      24.950   6.080  48.920  1.00  0.00     0.112 C 
HETATM   25  C1  UNL     1      24.210   7.191  48.236  1.00  0.00     0.037 C 
BRANCH  24  26
HETATM   26  C16 UNL     1      26.376   6.053  48.568  1.00  0.00    -0.036 A 
HETATM   27  C17 UNL     1      26.882   7.219  47.970  1.00  0.00     0.009 A 
HETATM   28  C18 UNL     1      28.180   7.439  47.563  1.00  0.00     0.001 A 
HETATM   29  C19 UNL     1      29.090   6.435  47.750  1.00  0.00     0.000 A 
HETATM   30  C20 UNL     1      28.664   5.271  48.327  1.00  0.00     0.001 A 
HETATM   31  C21 UNL     1      27.361   5.109  48.712  1.00  0.00     0.009 A 
ENDBRANCH  24  26
ENDBRANCH  22  24
ENDBRANCH   1  22
TORSDOF 7
ENDMDL
MODEL 7
REMARK VINA RESULT:      -7.6      5.336      7.552
REMARK  7 active torsions:
REMARK  status: ('A' for Active; 'I' for Inactive)
REMARK    1  A    between atoms: C2_2  and  N1_3 
REMARK    2  A    between atoms: C2_2  and  C16_22 
REMARK    3  A    between atoms: N1_3  and  C3_4 
REMARK    4  A    between atoms: C8_12  and  N4_13 
REMARK    5  A    between atoms: C8_12  and  C9_14 
REMARK    6  A    between atoms: C9_14  and  C10_15 
REMARK    7  A    between atoms: C13_18  and  O1_19 
ROOT
HETATM    1  C3  UNL     1      25.562   5.137  49.479  1.00  0.00     0.138 A 
HETATM    2  N2  UNL     1      26.597   4.333  49.221  1.00  0.00    -0.224 NA
HETATM    3  C4  UNL     1      26.799   3.204  49.885  1.00  0.00     0.235 A 
HETATM    4  N3  UNL     1      25.912   2.908  50.830  1.00  0.00    -0.242 NA
HETATM    5  C5  UNL     1      24.855   3.677  51.132  1.00  0.00     0.093 A 
HETATM    6  C6  UNL     1      24.649   4.827  50.454  1.00  0.00     0.038 A 
HETATM    7  C7  UNL     1      23.460   5.610  50.853  1.00  0.00     0.032 A 
HETATM    8  P1  UNL     1      22.645   4.668  52.214  1.00  0.00    -0.010 P 
HETATM    9  C8  UNL     1      23.951   3.250  52.185  1.00  0.00     0.232 A 
ENDROOT
BRANCH   9  10
HETATM   10  N4  UNL     1      24.570   3.101  53.479  1.00  0.00     0.099 N 
HETATM   11  H8  UNL     1      25.599   3.299  53.330  1.00  0.00     0.314 HD
HETATM   12  H9  UNL     1      24.158   3.687  54.214  1.00  0.00     0.314 HD
ENDBRANCH   9  10
BRANCH   9  13
HETATM   13  C9  UNL     1      23.083   2.073  51.817  1.00  0.00     0.092 C 
BRANCH  13  14
HETATM   14  C10 UNL     1      23.103   0.995  52.837  1.00  0.00    -0.055 A 
HETATM   15  C11 UNL     1      24.213   0.231  53.131  1.00  0.00     0.010 A 
HETATM   16  C12 UNL     1      24.128  -0.752  54.100  1.00  0.00     0.037 A 
HETATM   17  C13 UNL     1      22.950  -0.995  54.791  1.00  0.00     0.065 A 
HETATM   18  C14 UNL     1      21.819  -0.252  54.524  1.00  0.00     0.037 A 
HETATM   19  C15 UNL     1      21.942   0.733  53.538  1.00  0.00     0.010 A 
BRANCH  17  20
HETATM   20  O1  UNL     1      22.815  -1.976  55.776  1.00  0.00    -0.361 OA
HETATM   21  H14 UNL     1      23.545  -2.137  56.450  1.00  0.00     0.217 HD
ENDBRANCH  17  20
ENDBRANCH  13  14
ENDBRANCH   9  13
BRANCH   1  22
HETATM   22  N1  UNL     1      25.391   6.338  48.693  1.00  0.00    -0.366 N 
HETATM   23  H5  UNL     1      24.591   6.384  48.012  1.00  0.00     0.161 HD
BRANCH  22  24
HETATM   24  C2  UNL     1      26.295   7.426  48.850  1.00  0.00     0.112 C 
HETATM   25  C1  UNL     1      25.761   8.597  49.621  1.00  0.00     0.037 C 
BRANCH  24  26
HETATM   26  C16 UNL     1      26.884   7.820  47.564  1.00  0.00    -0.036 A 
HETATM   27  C17 UNL     1      28.245   7.519  47.394  1.00  0.00     0.009 A 
HETATM   28  C18 UNL     1      29.013   7.777  46.280  1.00  0.00     0.001 A 
HETATM   29  C19 UNL     1      28.413   8.390  45.215  1.00  0.00     0.000 A 
HETATM   30  C20 UNL     1      27.088   8.713  45.313  1.00  0.00     0.001 A 
HETATM   31  C21 UNL     1      26.374   8.430  46.446  1.00  0.00     0.009 A 
ENDBRANCH  24  26
ENDBRANCH  22  24
ENDBRANCH   1  22
TORSDOF 7
ENDMDL
MODEL 8
REMARK VINA RESULT:      -7.6      4.732      6.350
REMARK  7 active torsions:
REMARK  status: ('A' for Active; 'I' for Inactive)
REMARK    1  A    between atoms: C2_2  and  N1_3 
REMARK    2  A    between atoms: C2_2  and  C16_22 
REMARK    3  A    between atoms: N1_3  and  C3_4 
REMARK    4  A    between atoms: C8_12  and  N4_13 
REMARK    5  A    between atoms: C8_12  and  C9_14 
REMARK    6  A    between atoms: C9_14  and  C10_15 
REMARK    7  A    between atoms: C13_18  and  O1_19 
ROOT
HETATM    1  C3  UNL     1      25.891   2.575  51.770  1.00  0.00     0.138 A 
HETATM    2  N2  UNL     1      26.838   2.760  50.845  1.00  0.00    -0.224 NA
HETATM    3  C4  UNL     1      26.721   3.665  49.885  1.00  0.00     0.235 A 
HETATM    4  N3  UNL     1      25.605   4.388  49.887  1.00  0.00    -0.242 NA
HETATM    5  C5  UNL     1      24.623   4.246  50.789  1.00  0.00     0.093 A 
HETATM    6  C6  UNL     1      24.742   3.323  51.769  1.00  0.00     0.038 A 
HETATM    7  C7  UNL     1      23.612   3.236  52.719  1.00  0.00     0.032 A 
HETATM    8  P1  UNL     1      22.380   4.499  52.182  1.00  0.00    -0.010 P 
HETATM    9  C8  UNL     1      23.448   5.094  50.692  1.00  0.00     0.232 A 
ENDROOT
BRANCH   9  10
HETATM   10  N4  UNL     1      22.717   4.962  49.456  1.00  0.00     0.099 N 
HETATM   11  H8  UNL     1      22.754   3.934  49.208  1.00  0.00     0.314 HD
HETATM   12  H9  UNL     1      21.757   5.324  49.492  1.00  0.00     0.314 HD
ENDBRANCH   9  10
BRANCH   9  13
HETATM   13  C9  UNL     1      23.690   6.532  51.073  1.00  0.00     0.092 C 
BRANCH  13  14
HETATM   14  C10 UNL     1      22.777   7.478  50.383  1.00  0.00    -0.055 A 
HETATM   15  C11 UNL     1      21.420   7.552  50.619  1.00  0.00     0.010 A 
HETATM   16  C12 UNL     1      20.655   8.469  49.922  1.00  0.00     0.037 A 
HETATM   17  C13 UNL     1      21.215   9.323  48.984  1.00  0.00     0.065 A 
HETATM   18  C14 UNL     1      22.568   9.278  48.719  1.00  0.00     0.037 A 
HETATM   19  C15 UNL     1      23.311   8.338  49.443  1.00  0.00     0.010 A 
BRANCH  17  20
HETATM   20  O1  UNL     1      20.484  10.264  48.255  1.00  0.00    -0.361 OA
HETATM   21  H14 UNL     1      20.847  10.656  47.403  1.00  0.00     0.217 HD
ENDBRANCH  17  20
ENDBRANCH  13  14
ENDBRANCH   9  13
BRANCH   1  22
HETATM   22  N1  UNL     1      26.102   1.588  52.804  1.00  0.00    -0.366 N 
HETATM   23  H5  UNL     1      26.370   1.916  53.767  1.00  0.00     0.161 HD
BRANCH  22  24
HETATM   24  C2  UNL     1      25.946   0.204  52.510  1.00  0.00     0.112 C 
HETATM   25  C1  UNL     1      24.723  -0.442  53.093  1.00  0.00     0.037 C 
BRANCH  24  26
HETATM   26  C16 UNL     1      27.174  -0.547  52.805  1.00  0.00    -0.036 A 
HETATM   27  C17 UNL     1      28.263   0.213  53.260  1.00  0.00     0.009 A 
HETATM   28  C18 UNL     1      29.509  -0.260  53.610  1.00  0.00     0.001 A 
HETATM   29  C19 UNL     1      29.734  -1.606  53.513  1.00  0.00     0.000 A 
HETATM   30  C20 UNL     1      28.715  -2.406  53.076  1.00  0.00     0.001 A 
HETATM   31  C21 UNL     1      27.497  -1.878  52.742  1.00  0.00     0.009 A 
ENDBRANCH  24  26
ENDBRANCH  22  24
ENDBRANCH   1  22
TORSDOF 7
ENDMDL
MODEL 9
REMARK VINA RESULT:      -7.5      5.065      7.209
REMARK  7 active torsions:
REMARK  status: ('A' for Active; 'I' for Inactive)
REMARK    1  A    between atoms: C2_2  and  N1_3 
REMARK    2  A    between atoms: C2_2  and  C16_22 
REMARK    3  A    between atoms: N1_3  and  C3_4 
REMARK    4  A    between atoms: C8_12  and  N4_13 
REMARK    5  A    between atoms: C8_12  and  C9_14 
REMARK    6  A    between atoms: C9_14  and  C10_15 
REMARK    7  A    between atoms: C13_18  and  O1_19 
ROOT
HETATM    1  C3  UNL     1      25.800   2.483  51.780  1.00  0.00     0.138 A 
HETATM    2  N2  UNL     1      26.764   2.601  50.862  1.00  0.00    -0.224 NA
HETATM    3  C4  UNL     1      26.656   3.416  49.823  1.00  0.00     0.235 A 
HETATM    4  N3  UNL     1      25.530   4.118  49.738  1.00  0.00    -0.242 NA
HETATM    5  C5  UNL     1      24.530   4.040  50.629  1.00  0.00     0.093 A 
HETATM    6  C6  UNL     1      24.641   3.210  51.688  1.00  0.00     0.038 A 
HETATM    7  C7  UNL     1      23.492   3.189  52.619  1.00  0.00     0.032 A 
HETATM    8  P1  UNL     1      22.253   4.380  51.947  1.00  0.00    -0.010 P 
HETATM    9  C8  UNL     1      23.346   4.858  50.432  1.00  0.00     0.232 A 
ENDROOT
BRANCH   9  10
HETATM   10  N4  UNL     1      22.644   4.605  49.198  1.00  0.00     0.099 N 
HETATM   11  H8  UNL     1      22.110   5.492  48.984  1.00  0.00     0.314 HD
HETATM   12  H9  UNL     1      23.249   4.311  48.421  1.00  0.00     0.314 HD
ENDBRANCH   9  10
BRANCH   9  13
HETATM   13  C9  UNL     1      23.559   6.328  50.689  1.00  0.00     0.092 C 
BRANCH  13  14
HETATM   14  C10 UNL     1      24.544   6.942  49.766  1.00  0.00    -0.055 A 
HETATM   15  C11 UNL     1      24.353   7.071  48.406  1.00  0.00     0.010 A 
HETATM   16  C12 UNL     1      25.334   7.659  47.630  1.00  0.00     0.037 A 
HETATM   17  C13 UNL     1      26.517   8.128  48.183  1.00  0.00     0.065 A 
HETATM   18  C14 UNL     1      26.745   8.016  49.538  1.00  0.00     0.037 A 
HETATM   19  C15 UNL     1      25.731   7.416  50.291  1.00  0.00     0.010 A 
BRANCH  17  20
HETATM   20  O1  UNL     1      27.537   8.729  47.441  1.00  0.00    -0.361 OA
HETATM   21  H14 UNL     1      28.115   8.186  46.822  1.00  0.00     0.217 HD
ENDBRANCH  17  20
ENDBRANCH  13  14
ENDBRANCH   9  13
BRANCH   1  22
HETATM   22  N1  UNL     1      26.002   1.594  52.901  1.00  0.00    -0.366 N 
HETATM   23  H5  UNL     1      26.254   2.010  53.834  1.00  0.00     0.161 HD
BRANCH  22  24
HETATM   24  C2  UNL     1      25.859   0.189  52.731  1.00  0.00     0.112 C 
HETATM   25  C1  UNL     1      24.725  -0.437  53.489  1.00  0.00     0.037 C 
BRANCH  24  26
HETATM   26  C16 UNL     1      27.133  -0.508  52.948  1.00  0.00    -0.036 A 
HETATM   27  C17 UNL     1      28.191   0.281  53.426  1.00  0.00     0.009 A 
HETATM   28  C18 UNL     1      29.469  -0.142  53.716  1.00  0.00     0.001 A 
HETATM   29  C19 UNL     1      29.766  -1.464  53.526  1.00  0.00     0.000 A 
HETATM   30  C20 UNL     1      28.781  -2.291  53.060  1.00  0.00     0.001 A 
HETATM   31  C21 UNL     1      27.527  -1.813  52.790  1.00  0.00     0.009 A 
ENDBRANCH  24  26
ENDBRANCH  22  24
ENDBRANCH   1  22
TORSDOF 7
ENDMDL
