MODEL 1
REMARK VINA RESULT:      -7.4      0.000      0.000
REMARK  4 active torsions:
REMARK  status: ('A' for Active; 'I' for Inactive)
REMARK    1  A    between atoms: C1_2  and  N1_3 
REMARK    2  A    between atoms: N1_3  and  C2_4 
REMARK    3  A    between atoms: C6_8  and  N2_9 
REMARK    4  A    between atoms: N2_9  and  C7_10 
ROOT
HETATM    1  C2  UNL     1      25.485  -0.656  53.310  1.00  0.00     0.074 C 
HETATM    2  C3  UNL     1      24.064  -0.584  53.204  1.00  0.00     0.042 C 
HETATM    3  C4  UNL     1      23.403   0.535  53.054  1.00  0.00    -0.020 C 
HETATM    4  C5  UNL     1      23.902   1.740  53.087  1.00  0.00     0.062 C 
HETATM    5  C6  UNL     1      25.360   1.752  53.379  1.00  0.00     0.126 C 
HETATM    6  N3  UNL     1      26.498   1.936  54.193  1.00  0.00    -0.233 NA
HETATM    7  C13 UNL     1      27.653   1.607  53.442  1.00  0.00     0.402 C 
HETATM    8  N4  UNL     1      27.244   0.212  53.836  1.00  0.00     0.139 N 
HETATM    9  C14 UNL     1      28.280  -0.492  53.111  1.00  0.00     0.302 A 
HETATM   10  C15 UNL     1      26.946  -0.813  52.957  1.00  0.00     0.313 A 
ENDROOT
BRANCH   5  11
HETATM   11  N2  UNL     1      25.586   1.740  51.907  1.00  0.00    -0.341 N 
HETATM   12  H4  UNL     1      25.836   0.983  51.191  1.00  0.00     0.167 HD
BRANCH  11  13
HETATM   13  C7  UNL     1      25.526   2.805  50.900  1.00  0.00     0.034 A 
HETATM   14  C8  UNL     1      24.245   3.236  50.490  1.00  0.00     0.029 A 
HETATM   15  C9  UNL     1      24.069   4.218  49.547  1.00  0.00     0.004 A 
HETATM   16  C10 UNL     1      25.171   4.803  48.977  1.00  0.00     0.019 A 
HETATM   17  C11 UNL     1      26.428   4.398  49.360  1.00  0.00     0.013 A 
HETATM   18 BR1  UNL     1      27.939   5.230  48.554  1.00  0.00    -0.051 Br
HETATM   19  C12 UNL     1      26.623   3.409  50.313  1.00  0.00     0.048 A 
ENDBRANCH  11  13
ENDBRANCH   5  11
BRANCH   1  20
HETATM   20  N1  UNL     1      25.312  -0.314  54.570  1.00  0.00    -0.224 NA
BRANCH  20  21
HETATM   21  C1  UNL     1      24.895  -1.041  55.661  1.00  0.00     0.376 C 
HETATM   22  O1  UNL     1      25.307  -1.190  56.829  1.00  0.00    -0.281 OA
ENDBRANCH  20  21
ENDBRANCH   1  20
TORSDOF 4
ENDMDL
MODEL 2
REMARK VINA RESULT:      -7.3      3.039      5.228
REMARK  4 active torsions:
REMARK  status: ('A' for Active; 'I' for Inactive)
REMARK    1  A    between atoms: C1_2  and  N1_3 
REMARK    2  A    between atoms: N1_3  and  C2_4 
REMARK    3  A    between atoms: C6_8  and  N2_9 
REMARK    4  A    between atoms: N2_9  and  C7_10 
ROOT
HETATM    1  C2  UNL     1      27.069   1.015  52.241  1.00  0.00     0.074 C 
HETATM    2  C3  UNL     1      27.528  -0.064  53.055  1.00  0.00     0.042 C 
HETATM    3  C4  UNL     1      26.879  -0.513  54.098  1.00  0.00    -0.020 C 
HETATM    4  C5  UNL     1      25.799   0.002  54.619  1.00  0.00     0.062 C 
HETATM    5  C6  UNL     1      25.363   1.245  53.930  1.00  0.00     0.126 C 
HETATM    6  N3  UNL     1      25.205   2.641  53.792  1.00  0.00    -0.233 NA
HETATM    7  C13 UNL     1      24.587   2.908  52.546  1.00  0.00     0.402 C 
HETATM    8  N4  UNL     1      26.001   2.731  52.056  1.00  0.00     0.139 N 
HETATM    9  C14 UNL     1      25.724   2.890  50.644  1.00  0.00     0.302 A 
HETATM   10  C15 UNL     1      26.414   1.795  51.126  1.00  0.00     0.313 A 
ENDROOT
BRANCH   5  11
HETATM   11  N2  UNL     1      24.495   0.386  53.076  1.00  0.00    -0.341 N 
HETATM   12  H4  UNL     1      24.645  -0.169  52.171  1.00  0.00     0.167 HD
BRANCH  11  13
HETATM   13  C7  UNL     1      23.089  -0.014  53.201  1.00  0.00     0.034 A 
HETATM   14  C8  UNL     1      22.753  -0.869  54.274  1.00  0.00     0.029 A 
HETATM   15  C9  UNL     1      21.472  -1.315  54.481  1.00  0.00     0.004 A 
HETATM   16  C10 UNL     1      20.479  -0.923  53.620  1.00  0.00     0.019 A 
HETATM   17  C11 UNL     1      20.784  -0.093  52.567  1.00  0.00     0.013 A 
HETATM   18 BR1  UNL     1      19.385   0.437  51.389  1.00  0.00    -0.051 Br
HETATM   19  C12 UNL     1      22.074   0.369  52.345  1.00  0.00     0.048 A 
ENDBRANCH  11  13
ENDBRANCH   5  11
BRANCH   1  20
HETATM   20  N1  UNL     1      27.557   1.801  53.179  1.00  0.00    -0.224 NA
BRANCH  20  21
HETATM   21  C1  UNL     1      28.852   2.083  53.547  1.00  0.00     0.376 C 
HETATM   22  O1  UNL     1      29.412   2.414  54.612  1.00  0.00    -0.281 OA
ENDBRANCH  20  21
ENDBRANCH   1  20
TORSDOF 4
ENDMDL
MODEL 3
REMARK VINA RESULT:      -7.2      3.520      4.847
REMARK  4 active torsions:
REMARK  status: ('A' for Active; 'I' for Inactive)
REMARK    1  A    between atoms: C1_2  and  N1_3 
REMARK    2  A    between atoms: N1_3  and  C2_4 
REMARK    3  A    between atoms: C6_8  and  N2_9 
REMARK    4  A    between atoms: N2_9  and  C7_10 
ROOT
HETATM    1  C2  UNL     1      26.462   0.992  51.897  1.00  0.00     0.074 C 
HETATM    2  C3  UNL     1      26.369  -0.274  52.549  1.00  0.00     0.042 C 
HETATM    3  C4  UNL     1      25.313  -0.676  53.207  1.00  0.00    -0.020 C 
HETATM    4  C5  UNL     1      24.246   0.030  53.465  1.00  0.00     0.062 C 
HETATM    5  C6  UNL     1      24.348   1.428  52.972  1.00  0.00     0.126 C 
HETATM    6  N3  UNL     1      24.536   2.821  53.109  1.00  0.00    -0.233 NA
HETATM    7  C13 UNL     1      24.475   3.417  51.826  1.00  0.00     0.402 C 
HETATM    8  N4  UNL     1      25.902   2.939  51.777  1.00  0.00     0.139 N 
HETATM    9  C14 UNL     1      26.189   3.365  50.423  1.00  0.00     0.302 A 
HETATM   10  C15 UNL     1      26.423   2.068  50.838  1.00  0.00     0.313 A 
ENDROOT
BRANCH   5  11
HETATM   11  N2  UNL     1      23.690   0.963  51.719  1.00  0.00    -0.341 N 
HETATM   12  H4  UNL     1      24.043   0.580  50.782  1.00  0.00     0.167 HD
BRANCH  11  13
HETATM   13  C7  UNL     1      22.277   0.857  51.338  1.00  0.00     0.034 A 
HETATM   14  C8  UNL     1      21.905   1.390  50.084  1.00  0.00     0.029 A 
HETATM   15  C9  UNL     1      20.611   1.356  49.628  1.00  0.00     0.004 A 
HETATM   16  C10 UNL     1      19.640   0.789  50.414  1.00  0.00     0.019 A 
HETATM   17  C11 UNL     1      19.979   0.266  51.639  1.00  0.00     0.013 A 
HETATM   18 BR1  UNL     1      18.611  -0.517  52.708  1.00  0.00    -0.051 Br
HETATM   19  C12 UNL     1      21.283   0.290  52.113  1.00  0.00     0.048 A 
ENDBRANCH  11  13
ENDBRANCH   5  11
BRANCH   1  20
HETATM   20  N1  UNL     1      26.729   1.478  53.092  1.00  0.00    -0.224 NA
BRANCH  20  21
HETATM   21  C1  UNL     1      27.905   1.552  53.802  1.00  0.00     0.376 C 
HETATM   22  O1  UNL     1      28.631   2.482  54.207  1.00  0.00    -0.281 OA
ENDBRANCH  20  21
ENDBRANCH   1  20
TORSDOF 4
ENDMDL
MODEL 4
REMARK VINA RESULT:      -6.9      3.926      5.602
REMARK  4 active torsions:
REMARK  status: ('A' for Active; 'I' for Inactive)
REMARK    1  A    between atoms: C1_2  and  N1_3 
REMARK    2  A    between atoms: N1_3  and  C2_4 
REMARK    3  A    between atoms: C6_8  and  N2_9 
REMARK    4  A    between atoms: N2_9  and  C7_10 
ROOT
HETATM    1  C2  UNL     1      20.469   0.969  53.518  1.00  0.00     0.074 C 
HETATM    2  C3  UNL     1      20.876  -0.022  54.461  1.00  0.00     0.042 C 
HETATM    3  C4  UNL     1      21.928  -0.783  54.305  1.00  0.00    -0.020 C 
HETATM    4  C5  UNL     1      22.692  -0.842  53.249  1.00  0.00     0.062 C 
HETATM    5  C6  UNL     1      22.219   0.035  52.146  1.00  0.00     0.126 C 
HETATM    6  N3  UNL     1      21.599   0.308  50.908  1.00  0.00    -0.233 NA
HETATM    7  C13 UNL     1      21.611   1.708  50.692  1.00  0.00     0.402 C 
HETATM    8  N4  UNL     1      20.413   1.638  51.602  1.00  0.00     0.139 N 
HETATM    9  C14 UNL     1      20.156   3.061  51.672  1.00  0.00     0.302 A 
HETATM   10  C15 UNL     1      20.288   2.293  52.813  1.00  0.00     0.313 A 
ENDROOT
BRANCH   5  11
HETATM   11  N2  UNL     1      23.118   1.090  52.691  1.00  0.00    -0.341 N 
HETATM   12  H4  UNL     1      22.967   1.987  53.258  1.00  0.00     0.167 HD
BRANCH  11  13
HETATM   13  C7  UNL     1      24.575   1.255  52.640  1.00  0.00     0.034 A 
HETATM   14  C8  UNL     1      25.106   1.979  51.549  1.00  0.00     0.029 A 
HETATM   15  C9  UNL     1      26.453   2.187  51.394  1.00  0.00     0.004 A 
HETATM   16  C10 UNL     1      27.321   1.674  52.324  1.00  0.00     0.019 A 
HETATM   17  C11 UNL     1      26.827   0.965  53.393  1.00  0.00     0.013 A 
HETATM   18 BR1  UNL     1      28.054   0.267  54.671  1.00  0.00    -0.051 Br
HETATM   19  C12 UNL     1      25.467   0.748  53.566  1.00  0.00     0.048 A 
ENDBRANCH  11  13
ENDBRANCH   5  11
BRANCH   1  20
HETATM   20  N1  UNL     1      19.939  -0.031  52.843  1.00  0.00    -0.224 NA
BRANCH  20  21
HETATM   21  C1  UNL     1      18.720  -0.659  52.953  1.00  0.00     0.376 C 
HETATM   22  O1  UNL     1      17.763  -0.865  52.180  1.00  0.00    -0.281 OA
ENDBRANCH  20  21
ENDBRANCH   1  20
TORSDOF 4
ENDMDL
MODEL 5
REMARK VINA RESULT:      -6.6      3.428      5.626
REMARK  4 active torsions:
REMARK  status: ('A' for Active; 'I' for Inactive)
REMARK    1  A    between atoms: C1_2  and  N1_3 
REMARK    2  A    between atoms: N1_3  and  C2_4 
REMARK    3  A    between atoms: C6_8  and  N2_9 
REMARK    4  A    between atoms: N2_9  and  C7_10 
ROOT
HETATM    1  C2  UNL     1      23.005   2.310  50.217  1.00  0.00     0.074 C 
HETATM    2  C3  UNL     1      23.665   3.082  49.214  1.00  0.00     0.042 C 
HETATM    3  C4  UNL     1      24.801   3.700  49.405  1.00  0.00    -0.020 C 
HETATM    4  C5  UNL     1      25.446   3.805  50.534  1.00  0.00     0.062 C 
HETATM    5  C6  UNL     1      24.722   3.178  51.671  1.00  0.00     0.126 C 
HETATM    6  N3  UNL     1      23.935   3.182  52.843  1.00  0.00    -0.233 NA
HETATM    7  C13 UNL     1      23.701   1.843  53.239  1.00  0.00     0.402 C 
HETATM    8  N4  UNL     1      22.636   1.947  52.180  1.00  0.00     0.139 N 
HETATM    9  C14 UNL     1      22.165   0.580  52.262  1.00  0.00     0.302 A 
HETATM   10  C15 UNL     1      22.541   1.144  51.058  1.00  0.00     0.313 A 
ENDROOT
BRANCH   5  11
HETATM   11  N2  UNL     1      25.496   1.936  51.390  1.00  0.00    -0.341 N 
HETATM   12  H4  UNL     1      25.479   1.201  50.610  1.00  0.00     0.167 HD
BRANCH  11  13
HETATM   13  C7  UNL     1      26.595   1.284  52.111  1.00  0.00     0.034 A 
HETATM   14  C8  UNL     1      27.515   2.121  52.780  1.00  0.00     0.029 A 
HETATM   15  C9  UNL     1      28.587   1.622  53.477  1.00  0.00     0.004 A 
HETATM   16  C10 UNL     1      28.779   0.265  53.527  1.00  0.00     0.019 A 
HETATM   17  C11 UNL     1      27.896  -0.569  52.881  1.00  0.00     0.013 A 
HETATM   18 BR1  UNL     1      28.186  -2.449  52.970  1.00  0.00    -0.051 Br
HETATM   19  C12 UNL     1      26.806  -0.080  52.174  1.00  0.00     0.048 A 
ENDBRANCH  11  13
ENDBRANCH   5  11
BRANCH   1  20
HETATM   20  N1  UNL     1      22.571   3.463  50.681  1.00  0.00    -0.224 NA
BRANCH  20  21
HETATM   21  C1  UNL     1      21.459   4.211  50.368  1.00  0.00     0.376 C 
HETATM   22  O1  UNL     1      20.357   4.420  50.913  1.00  0.00    -0.281 OA
ENDBRANCH  20  21
ENDBRANCH   1  20
TORSDOF 4
ENDMDL
MODEL 6
REMARK VINA RESULT:      -6.5      5.480      7.590
REMARK  4 active torsions:
REMARK  status: ('A' for Active; 'I' for Inactive)
REMARK    1  A    between atoms: C1_2  and  N1_3 
REMARK    2  A    between atoms: N1_3  and  C2_4 
REMARK    3  A    between atoms: C6_8  and  N2_9 
REMARK    4  A    between atoms: N2_9  and  C7_10 
ROOT
HETATM    1  C2  UNL     1      25.239   7.218  48.755  1.00  0.00     0.074 C 
HETATM    2  C3  UNL     1      26.367   6.408  48.425  1.00  0.00     0.042 C 
HETATM    3  C4  UNL     1      26.572   5.215  48.918  1.00  0.00    -0.020 C 
HETATM    4  C5  UNL     1      25.867   4.628  49.846  1.00  0.00     0.062 C 
HETATM    5  C6  UNL     1      24.777   5.490  50.373  1.00  0.00     0.126 C 
HETATM    6  N3  UNL     1      24.163   6.336  51.322  1.00  0.00    -0.233 NA
HETATM    7  C13 UNL     1      22.913   6.763  50.810  1.00  0.00     0.402 C 
HETATM    8  N4  UNL     1      23.794   7.744  50.081  1.00  0.00     0.139 N 
HETATM    9  C14 UNL     1      22.751   8.390  49.314  1.00  0.00     0.302 A 
HETATM   10  C15 UNL     1      23.880   7.876  48.708  1.00  0.00     0.313 A 
ENDROOT
BRANCH   5  11
HETATM   11  N2  UNL     1      23.885   4.868  49.356  1.00  0.00    -0.341 N 
HETATM   12  H4  UNL     1      23.533   5.159  48.386  1.00  0.00     0.167 HD
BRANCH  11  13
HETATM   13  C7  UNL     1      23.168   3.588  49.335  1.00  0.00     0.034 A 
HETATM   14  C8  UNL     1      22.726   3.114  48.080  1.00  0.00     0.029 A 
HETATM   15  C9  UNL     1      22.037   1.936  47.943  1.00  0.00     0.004 A 
HETATM   16  C10 UNL     1      21.762   1.188  49.059  1.00  0.00     0.019 A 
HETATM   17  C11 UNL     1      22.182   1.630  50.292  1.00  0.00     0.013 A 
HETATM   18 BR1  UNL     1      21.789   0.569  51.824  1.00  0.00    -0.051 Br
HETATM   19  C12 UNL     1      22.882   2.818  50.447  1.00  0.00     0.048 A 
ENDBRANCH  11  13
ENDBRANCH   5  11
BRANCH   1  20
HETATM   20  N1  UNL     1      25.903   7.526  49.850  1.00  0.00    -0.224 NA
BRANCH  20  21
HETATM   21  C1  UNL     1      26.825   8.515  50.107  1.00  0.00     0.376 C 
HETATM   22  O1  UNL     1      26.759   9.724  50.407  1.00  0.00    -0.281 OA
ENDBRANCH  20  21
ENDBRANCH   1  20
TORSDOF 4
ENDMDL
MODEL 7
REMARK VINA RESULT:      -6.5      2.722      3.840
REMARK  4 active torsions:
REMARK  status: ('A' for Active; 'I' for Inactive)
REMARK    1  A    between atoms: C1_2  and  N1_3 
REMARK    2  A    between atoms: N1_3  and  C2_4 
REMARK    3  A    between atoms: C6_8  and  N2_9 
REMARK    4  A    between atoms: N2_9  and  C7_10 
ROOT
HETATM    1  C2  UNL     1      23.050   1.327  51.269  1.00  0.00     0.074 C 
HETATM    2  C3  UNL     1      22.316   1.550  50.066  1.00  0.00     0.042 C 
HETATM    3  C4  UNL     1      22.223   2.715  49.479  1.00  0.00    -0.020 C 
HETATM    4  C5  UNL     1      22.676   3.851  49.934  1.00  0.00     0.062 C 
HETATM    5  C6  UNL     1      23.296   3.726  51.279  1.00  0.00     0.126 C 
HETATM    6  N3  UNL     1      23.340   3.864  52.683  1.00  0.00    -0.233 NA
HETATM    7  C13 UNL     1      24.562   3.325  53.156  1.00  0.00     0.402 C 
HETATM    8  N4  UNL     1      23.792   2.037  53.020  1.00  0.00     0.139 N 
HETATM    9  C14 UNL     1      24.865   1.144  53.402  1.00  0.00     0.302 A 
HETATM   10  C15 UNL     1      24.159   0.965  52.229  1.00  0.00     0.313 A 
ENDROOT
BRANCH   5  11
HETATM   11  N2  UNL     1      24.599   3.529  50.585  1.00  0.00    -0.341 N 
HETATM   12  H4  UNL     1      25.213   2.678  50.365  1.00  0.00     0.167 HD
BRANCH  11  13
HETATM   13  C7  UNL     1      25.512   4.474  49.932  1.00  0.00     0.034 A 
HETATM   14  C8  UNL     1      26.664   3.939  49.316  1.00  0.00     0.029 A 
HETATM   15  C9  UNL     1      27.592   4.729  48.685  1.00  0.00     0.004 A 
HETATM   16  C10 UNL     1      27.401   6.086  48.649  1.00  0.00     0.019 A 
HETATM   17  C11 UNL     1      26.287   6.630  49.245  1.00  0.00     0.013 A 
HETATM   18 BR1  UNL     1      26.047   8.518  49.178  1.00  0.00    -0.051 Br
HETATM   19  C12 UNL     1      25.338   5.845  49.885  1.00  0.00     0.048 A 
ENDBRANCH  11  13
ENDBRANCH   5  11
BRANCH   1  20
HETATM   20  N1  UNL     1      21.998   1.820  51.888  1.00  0.00    -0.224 NA
BRANCH  20  21
HETATM   21  C1  UNL     1      20.841   1.223  52.334  1.00  0.00     0.376 C 
HETATM   22  O1  UNL     1      20.391   0.900  53.451  1.00  0.00    -0.281 OA
ENDBRANCH  20  21
ENDBRANCH   1  20
TORSDOF 4
ENDMDL
MODEL 8
REMARK VINA RESULT:      -6.5      7.550     10.015
REMARK  4 active torsions:
REMARK  status: ('A' for Active; 'I' for Inactive)
REMARK    1  A    between atoms: C1_2  and  N1_3 
REMARK    2  A    between atoms: N1_3  and  C2_4 
REMARK    3  A    between atoms: C6_8  and  N2_9 
REMARK    4  A    between atoms: N2_9  and  C7_10 
ROOT
HETATM    1  C2  UNL     1      33.113   5.951  47.496  1.00  0.00     0.074 C 
HETATM    2  C3  UNL     1      32.977   5.871  48.914  1.00  0.00     0.042 C 
HETATM    3  C4  UNL     1      32.039   6.484  49.589  1.00  0.00    -0.020 C 
HETATM    4  C5  UNL     1      31.169   7.331  49.112  1.00  0.00     0.062 C 
HETATM    5  C6  UNL     1      31.367   7.607  47.664  1.00  0.00     0.126 C 
HETATM    6  N3  UNL     1      31.784   8.375  46.556  1.00  0.00    -0.233 NA
HETATM    7  C13 UNL     1      31.537   7.637  45.372  1.00  0.00     0.402 C 
HETATM    8  N4  UNL     1      32.834   6.984  45.770  1.00  0.00     0.139 N 
HETATM    9  C14 UNL     1      32.882   6.011  44.699  1.00  0.00     0.302 A 
HETATM   10  C15 UNL     1      33.006   5.636  46.023  1.00  0.00     0.313 A 
ENDROOT
BRANCH   5  11
HETATM   11  N2  UNL     1      30.394   6.513  47.392  1.00  0.00    -0.341 N 
HETATM   12  H4  UNL     1      30.431   5.594  46.841  1.00  0.00     0.167 HD
BRANCH  11  13
HETATM   13  C7  UNL     1      29.004   6.313  47.815  1.00  0.00     0.034 A 
HETATM   14  C8  UNL     1      28.107   7.387  47.619  1.00  0.00     0.029 A 
HETATM   15  C9  UNL     1      26.787   7.316  47.986  1.00  0.00     0.004 A 
HETATM   16  C10 UNL     1      26.315   6.167  48.567  1.00  0.00     0.019 A 
HETATM   17  C11 UNL     1      27.170   5.109  48.769  1.00  0.00     0.013 A 
HETATM   18 BR1  UNL     1      26.486   3.524  49.575  1.00  0.00    -0.051 Br
HETATM   19  C12 UNL     1      28.507   5.164  48.401  1.00  0.00     0.048 A 
ENDBRANCH  11  13
ENDBRANCH   5  11
BRANCH   1  20
HETATM   20  N1  UNL     1      33.699   7.110  47.715  1.00  0.00    -0.224 NA
BRANCH  20  21
HETATM   21  C1  UNL     1      34.930   7.422  48.246  1.00  0.00     0.376 C 
HETATM   22  O1  UNL     1      35.834   8.230  47.955  1.00  0.00    -0.281 OA
ENDBRANCH  20  21
ENDBRANCH   1  20
TORSDOF 4
ENDMDL
MODEL 9
REMARK VINA RESULT:      -6.4      3.913      6.564
REMARK  4 active torsions:
REMARK  status: ('A' for Active; 'I' for Inactive)
REMARK    1  A    between atoms: C1_2  and  N1_3 
REMARK    2  A    between atoms: N1_3  and  C2_4 
REMARK    3  A    between atoms: C6_8  and  N2_9 
REMARK    4  A    between atoms: N2_9  and  C7_10 
ROOT
HETATM    1  C2  UNL     1      23.319   3.285  48.971  1.00  0.00     0.074 C 
HETATM    2  C3  UNL     1      24.458   4.066  49.331  1.00  0.00     0.042 C 
HETATM    3  C4  UNL     1      24.916   4.161  50.552  1.00  0.00    -0.020 C 
HETATM    4  C5  UNL     1      24.366   3.666  51.627  1.00  0.00     0.062 C 
HETATM    5  C6  UNL     1      23.071   2.991  51.352  1.00  0.00     0.126 C 
HETATM    6  N3  UNL     1      21.663   2.883  51.342  1.00  0.00    -0.233 NA
HETATM    7  C13 UNL     1      21.305   1.653  50.738  1.00  0.00     0.402 C 
HETATM    8  N4  UNL     1      21.539   2.453  49.483  1.00  0.00     0.139 N 
HETATM    9  C14 UNL     1      21.301   1.383  48.538  1.00  0.00     0.302 A 
HETATM   10  C15 UNL     1      22.453   2.143  48.494  1.00  0.00     0.313 A 
ENDROOT
BRANCH   5  11
HETATM   11  N2  UNL     1      23.840   1.723  51.209  1.00  0.00    -0.341 N 
HETATM   12  H4  UNL     1      24.133   1.112  50.379  1.00  0.00     0.167 HD
BRANCH  11  13
HETATM   13  C7  UNL     1      24.491   0.857  52.199  1.00  0.00     0.034 A 
HETATM   14  C8  UNL     1      23.671   0.286  53.197  1.00  0.00     0.029 A 
HETATM   15  C9  UNL     1      24.172  -0.531  54.179  1.00  0.00     0.004 A 
HETATM   16  C10 UNL     1      25.516  -0.804  54.199  1.00  0.00     0.019 A 
HETATM   17  C11 UNL     1      26.334  -0.257  53.239  1.00  0.00     0.013 A 
HETATM   18 BR1  UNL     1      28.195  -0.656  53.290  1.00  0.00    -0.051 Br
HETATM   19  C12 UNL     1      25.842   0.568  52.238  1.00  0.00     0.048 A 
ENDBRANCH  11  13
ENDBRANCH   5  11
BRANCH   1  20
HETATM   20  N1  UNL     1      22.605   4.299  49.414  1.00  0.00    -0.224 NA
BRANCH  20  21
HETATM   21  C1  UNL     1      22.199   5.463  48.801  1.00  0.00     0.376 C 
HETATM   22  O1  UNL     1      21.706   5.747  47.692  1.00  0.00    -0.281 OA
ENDBRANCH  20  21
ENDBRANCH   1  20
TORSDOF 4
ENDMDL
