MODEL 1
REMARK VINA RESULT:      -7.8      0.000      0.000
REMARK  4 active torsions:
REMARK  status: ('A' for Active; 'I' for Inactive)
REMARK    1  A    between atoms: C4_7  and  C5_8 
REMARK    2  A    between atoms: C6_9  and  C7_10 
REMARK    3  A    between atoms: C7_10  and  N2_11 
REMARK    4  A    between atoms: N3_12  and  C8_13 
ROOT
HETATM    1  N2  UNL     1      23.593   2.494  51.535  1.00  0.00    -0.189 NA
HETATM    2  N3  UNL     1      23.809   2.730  50.320  1.00  0.00    -0.155 NA
ENDROOT
BRANCH   1   3
HETATM    3  C7  UNL     1      24.156   3.210  52.648  1.00  0.00     0.200 C 
BRANCH   3   4
HETATM    4  C6  UNL     1      25.118   2.308  53.354  1.00  0.00    -0.005 C 
HETATM    5  C5  UNL     1      25.242   0.989  53.416  1.00  0.00     0.016 C 
BRANCH   5   6
HETATM    6  C4  UNL     1      26.122  -0.024  54.057  1.00  0.00     0.342 C 
HETATM    7  C1  UNL     1      26.950  -0.652  53.007  1.00  0.00     0.296 C 
HETATM    8  O1  UNL     1      26.631  -1.828  52.652  1.00  0.00    -0.262 OA
HETATM    9  O2  UNL     1      27.982   0.156  52.550  1.00  0.00    -0.318 OA
HETATM   10  C2  UNL     1      28.768   0.826  53.535  1.00  0.00     0.209 C 
HETATM   11  C3  UNL     1      28.318   0.284  54.869  1.00  0.00     0.297 C 
HETATM   12  N1  UNL     1      26.933   0.669  55.048  1.00  0.00     0.103 N 
HETATM   13  H5  UNL     1      26.919   1.718  54.872  1.00  0.00     0.317 HD
ENDBRANCH   5   6
ENDBRANCH   3   4
ENDBRANCH   1   3
BRANCH   2  14
HETATM   14  C8  UNL     1      24.641   3.737  49.793  1.00  0.00     0.079 A 
HETATM   15  C9  UNL     1      23.910   4.908  49.565  1.00  0.00     0.036 A 
HETATM   16  C10 UNL     1      24.511   6.056  49.044  1.00  0.00     0.035 A 
HETATM   17  C11 UNL     1      25.861   6.018  48.750  1.00  0.00     0.067 A 
HETATM   18  N4  UNL     1      26.494   7.105  48.241  1.00  0.00    -0.257 NA
HETATM   19  C15 UNL     1      26.583   4.864  48.974  1.00  0.00    -0.002 A 
HETATM   20  C12 UNL     1      27.810   7.055  47.959  1.00  0.00     0.159 A 
HETATM   21  C13 UNL     1      28.548   5.888  48.184  1.00  0.00     0.134 A 
HETATM   22  F1  UNL     1      29.867   5.884  47.884  1.00  0.00    -0.205 F 
HETATM   23  C14 UNL     1      27.947   4.753  48.701  1.00  0.00     0.057 A 
HETATM   24  C16 UNL     1      25.984   3.731  49.490  1.00  0.00     0.047 A 
ENDBRANCH   2  14
TORSDOF 4
ENDMDL
MODEL 2
REMARK VINA RESULT:      -7.8      2.356      3.255
REMARK  4 active torsions:
REMARK  status: ('A' for Active; 'I' for Inactive)
REMARK    1  A    between atoms: C4_7  and  C5_8 
REMARK    2  A    between atoms: C6_9  and  C7_10 
REMARK    3  A    between atoms: C7_10  and  N2_11 
REMARK    4  A    between atoms: N3_12  and  C8_13 
ROOT
HETATM    1  N2  UNL     1      21.891  -0.298  52.771  1.00  0.00    -0.189 NA
HETATM    2  N3  UNL     1      21.675   0.488  51.815  1.00  0.00    -0.155 NA
ENDROOT
BRANCH   1   3
HETATM    3  C7  UNL     1      22.908  -0.146  53.777  1.00  0.00     0.200 C 
BRANCH   3   4
HETATM    4  C6  UNL     1      24.243  -0.363  53.138  1.00  0.00    -0.005 C 
HETATM    5  C5  UNL     1      25.408   0.260  53.247  1.00  0.00     0.016 C 
BRANCH   5   6
HETATM    6  C4  UNL     1      26.785   0.165  52.693  1.00  0.00     0.342 C 
HETATM    7  C1  UNL     1      27.525   1.386  53.072  1.00  0.00     0.296 C 
HETATM    8  O1  UNL     1      27.714   2.249  52.161  1.00  0.00    -0.262 OA
HETATM    9  O2  UNL     1      27.915   1.413  54.404  1.00  0.00    -0.318 OA
HETATM   10  C2  UNL     1      28.514   0.229  54.930  1.00  0.00     0.209 C 
HETATM   11  C3  UNL     1      28.709  -0.698  53.756  1.00  0.00     0.297 C 
HETATM   12  N1  UNL     1      27.395  -1.035  53.248  1.00  0.00     0.103 N 
HETATM   13  H5  UNL     1      26.852  -1.368  54.099  1.00  0.00     0.317 HD
ENDBRANCH   5   6
ENDBRANCH   3   4
ENDBRANCH   1   3
BRANCH   2  14
HETATM   14  C8  UNL     1      22.377   1.675  51.525  1.00  0.00     0.079 A 
HETATM   15  C9  UNL     1      21.900   2.731  52.310  1.00  0.00     0.036 A 
HETATM   16  C10 UNL     1      22.435   4.017  52.211  1.00  0.00     0.035 A 
HETATM   17  C11 UNL     1      23.460   4.236  51.310  1.00  0.00     0.067 A 
HETATM   18  N4  UNL     1      24.016   5.467  51.174  1.00  0.00    -0.257 NA
HETATM   19  C15 UNL     1      23.932   3.196  50.536  1.00  0.00    -0.002 A 
HETATM   20  C12 UNL     1      25.014   5.667  50.292  1.00  0.00     0.159 A 
HETATM   21  C13 UNL     1      25.498   4.617  49.504  1.00  0.00     0.134 A 
HETATM   22  F1  UNL     1      26.502   4.866  48.633  1.00  0.00    -0.205 F 
HETATM   23  C14 UNL     1      24.964   3.345  49.608  1.00  0.00     0.057 A 
HETATM   24  C16 UNL     1      23.400   1.926  50.638  1.00  0.00     0.047 A 
ENDBRANCH   2  14
TORSDOF 4
ENDMDL
MODEL 3
REMARK VINA RESULT:      -7.7      3.773      6.316
REMARK  4 active torsions:
REMARK  status: ('A' for Active; 'I' for Inactive)
REMARK    1  A    between atoms: C4_7  and  C5_8 
REMARK    2  A    between atoms: C6_9  and  C7_10 
REMARK    3  A    between atoms: C7_10  and  N2_11 
REMARK    4  A    between atoms: N3_12  and  C8_13 
ROOT
HETATM    1  N2  UNL     1      23.794   3.403  49.453  1.00  0.00    -0.189 NA
HETATM    2  N3  UNL     1      22.929   2.500  49.573  1.00  0.00    -0.155 NA
ENDROOT
BRANCH   1   3
HETATM    3  C7  UNL     1      24.520   4.026  50.526  1.00  0.00     0.200 C 
BRANCH   3   4
HETATM    4  C6  UNL     1      25.758   3.227  50.788  1.00  0.00    -0.005 C 
HETATM    5  C5  UNL     1      26.136   2.450  51.794  1.00  0.00     0.016 C 
BRANCH   5   6
HETATM    6  C4  UNL     1      27.301   1.615  52.187  1.00  0.00     0.342 C 
HETATM    7  C1  UNL     1      27.742   2.034  53.534  1.00  0.00     0.296 C 
HETATM    8  O1  UNL     1      28.802   2.727  53.601  1.00  0.00    -0.262 OA
HETATM    9  O2  UNL     1      26.910   1.596  54.555  1.00  0.00    -0.318 OA
HETATM   10  C2  UNL     1      26.497   0.231  54.519  1.00  0.00     0.209 C 
HETATM   11  C3  UNL     1      27.277  -0.412  53.399  1.00  0.00     0.297 C 
HETATM   12  N1  UNL     1      26.868   0.225  52.164  1.00  0.00     0.103 N 
HETATM   13  H5  UNL     1      25.806   0.167  52.169  1.00  0.00     0.317 HD
ENDBRANCH   5   6
ENDBRANCH   3   4
ENDBRANCH   1   3
BRANCH   2  14
HETATM   14  C8  UNL     1      22.487   1.911  50.774  1.00  0.00     0.079 A 
HETATM   15  C9  UNL     1      21.261   2.460  51.168  1.00  0.00     0.036 A 
HETATM   16  C10 UNL     1      20.611   2.041  52.330  1.00  0.00     0.035 A 
HETATM   17  C11 UNL     1      21.207   1.060  53.101  1.00  0.00     0.067 A 
HETATM   18  N4  UNL     1      20.618   0.617  54.241  1.00  0.00    -0.257 NA
HETATM   19  C15 UNL     1      22.415   0.518  52.715  1.00  0.00    -0.002 A 
HETATM   20  C12 UNL     1      21.209  -0.339  54.984  1.00  0.00     0.159 A 
HETATM   21  C13 UNL     1      22.435  -0.893  54.597  1.00  0.00     0.134 A 
HETATM   22  F1  UNL     1      22.991  -1.850  55.374  1.00  0.00    -0.205 F 
HETATM   23  C14 UNL     1      23.073  -0.474  53.443  1.00  0.00     0.057 A 
HETATM   24  C16 UNL     1      23.054   0.936  51.564  1.00  0.00     0.047 A 
ENDBRANCH   2  14
TORSDOF 4
ENDMDL
MODEL 4
REMARK VINA RESULT:      -7.7      3.342      4.708
REMARK  4 active torsions:
REMARK  status: ('A' for Active; 'I' for Inactive)
REMARK    1  A    between atoms: C4_7  and  C5_8 
REMARK    2  A    between atoms: C6_9  and  C7_10 
REMARK    3  A    between atoms: C7_10  and  N2_11 
REMARK    4  A    between atoms: N3_12  and  C8_13 
ROOT
HETATM    1  N2  UNL     1      21.533  -0.436  54.907  1.00  0.00    -0.189 NA
HETATM    2  N3  UNL     1      21.105   0.564  54.278  1.00  0.00    -0.155 NA
ENDROOT
BRANCH   1   3
HETATM    3  C7  UNL     1      22.475  -1.405  54.414  1.00  0.00     0.200 C 
BRANCH   3   4
HETATM    4  C6  UNL     1      23.853  -0.960  54.789  1.00  0.00    -0.005 C 
HETATM    5  C5  UNL     1      24.819  -0.348  54.117  1.00  0.00     0.016 C 
BRANCH   5   6
HETATM    6  C4  UNL     1      26.202   0.145  54.346  1.00  0.00     0.342 C 
HETATM    7  C1  UNL     1      27.083  -0.443  53.315  1.00  0.00     0.296 C 
HETATM    8  O1  UNL     1      27.850  -1.383  53.686  1.00  0.00    -0.262 OA
HETATM    9  O2  UNL     1      26.939   0.134  52.061  1.00  0.00    -0.318 OA
HETATM   10  C2  UNL     1      26.906   1.559  52.000  1.00  0.00     0.209 C 
HETATM   11  C3  UNL     1      27.231   2.045  53.391  1.00  0.00     0.297 C 
HETATM   12  N1  UNL     1      26.166   1.599  54.265  1.00  0.00     0.103 N 
HETATM   13  H5  UNL     1      25.272   1.921  53.788  1.00  0.00     0.317 HD
ENDBRANCH   5   6
ENDBRANCH   3   4
ENDBRANCH   1   3
BRANCH   2  14
HETATM   14  C8  UNL     1      21.453   0.947  52.967  1.00  0.00     0.079 A 
HETATM   15  C9  UNL     1      20.611   0.328  52.036  1.00  0.00     0.036 A 
HETATM   16  C10 UNL     1      20.751   0.547  50.664  1.00  0.00     0.035 A 
HETATM   17  C11 UNL     1      21.751   1.397  50.231  1.00  0.00     0.067 A 
HETATM   18  N4  UNL     1      21.931   1.644  48.908  1.00  0.00    -0.257 NA
HETATM   19  C15 UNL     1      22.581   2.009  51.148  1.00  0.00    -0.002 A 
HETATM   20  C12 UNL     1      22.908   2.476  48.500  1.00  0.00     0.159 A 
HETATM   21  C13 UNL     1      23.754   3.099  49.424  1.00  0.00     0.134 A 
HETATM   22  F1  UNL     1      24.723   3.925  48.967  1.00  0.00    -0.205 F 
HETATM   23  C14 UNL     1      23.610   2.878  50.783  1.00  0.00     0.057 A 
HETATM   24  C16 UNL     1      22.438   1.789  52.504  1.00  0.00     0.047 A 
ENDBRANCH   2  14
TORSDOF 4
ENDMDL
MODEL 5
REMARK VINA RESULT:      -7.5      3.495      6.993
REMARK  4 active torsions:
REMARK  status: ('A' for Active; 'I' for Inactive)
REMARK    1  A    between atoms: C4_7  and  C5_8 
REMARK    2  A    between atoms: C6_9  and  C7_10 
REMARK    3  A    between atoms: C7_10  and  N2_11 
REMARK    4  A    between atoms: N3_12  and  C8_13 
ROOT
HETATM    1  N2  UNL     1      22.385   2.436  51.322  1.00  0.00    -0.189 NA
HETATM    2  N3  UNL     1      22.738   2.269  52.516  1.00  0.00    -0.155 NA
ENDROOT
BRANCH   1   3
HETATM    3  C7  UNL     1      23.149   2.080  50.157  1.00  0.00     0.200 C 
BRANCH   3   4
HETATM    4  C6  UNL     1      23.607   3.338  49.489  1.00  0.00    -0.005 C 
HETATM    5  C5  UNL     1      24.629   4.155  49.704  1.00  0.00     0.016 C 
BRANCH   5   6
HETATM    6  C4  UNL     1      25.199   5.407  49.141  1.00  0.00     0.342 C 
HETATM    7  C1  UNL     1      24.082   6.303  48.774  1.00  0.00     0.296 C 
HETATM    8  O1  UNL     1      23.818   6.412  47.538  1.00  0.00    -0.262 OA
HETATM    9  O2  UNL     1      23.470   6.908  49.862  1.00  0.00    -0.318 OA
HETATM   10  C2  UNL     1      24.323   7.481  50.853  1.00  0.00     0.209 C 
HETATM   11  C3  UNL     1      25.723   7.399  50.298  1.00  0.00     0.297 C 
HETATM   12  N1  UNL     1      26.054   5.995  50.163  1.00  0.00     0.103 N 
HETATM   13  H5  UNL     1      25.838   5.573  51.115  1.00  0.00     0.317 HD
ENDBRANCH   5   6
ENDBRANCH   3   4
ENDBRANCH   1   3
BRANCH   2  14
HETATM   14  C8  UNL     1      23.948   1.703  52.965  1.00  0.00     0.079 A 
HETATM   15  C9  UNL     1      23.772   0.349  53.274  1.00  0.00     0.036 A 
HETATM   16  C10 UNL     1      24.826  -0.438  53.741  1.00  0.00     0.035 A 
HETATM   17  C11 UNL     1      26.068   0.148  53.898  1.00  0.00     0.067 A 
HETATM   18  N4  UNL     1      27.126  -0.572  54.349  1.00  0.00    -0.257 NA
HETATM   19  C15 UNL     1      26.243   1.483  53.594  1.00  0.00    -0.002 A 
HETATM   20  C12 UNL     1      28.331   0.012  54.497  1.00  0.00     0.159 A 
HETATM   21  C13 UNL     1      28.515   1.365  54.190  1.00  0.00     0.134 A 
HETATM   22  F1  UNL     1      29.743   1.908  54.356  1.00  0.00    -0.205 F 
HETATM   23  C14 UNL     1      27.467   2.140  53.728  1.00  0.00     0.057 A 
HETATM   24  C16 UNL     1      25.197   2.257  53.132  1.00  0.00     0.047 A 
ENDBRANCH   2  14
TORSDOF 4
ENDMDL
MODEL 6
REMARK VINA RESULT:      -7.4      3.643      5.623
REMARK  4 active torsions:
REMARK  status: ('A' for Active; 'I' for Inactive)
REMARK    1  A    between atoms: C4_7  and  C5_8 
REMARK    2  A    between atoms: C6_9  and  C7_10 
REMARK    3  A    between atoms: C7_10  and  N2_11 
REMARK    4  A    between atoms: N3_12  and  C8_13 
ROOT
HETATM    1  N2  UNL     1      25.986   3.951  50.463  1.00  0.00    -0.189 NA
HETATM    2  N3  UNL     1      24.787   4.206  50.737  1.00  0.00    -0.155 NA
ENDROOT
BRANCH   1   3
HETATM    3  C7  UNL     1      26.551   2.641  50.273  1.00  0.00     0.200 C 
BRANCH   3   4
HETATM    4  C6  UNL     1      26.794   2.031  51.617  1.00  0.00    -0.005 C 
HETATM    5  C5  UNL     1      26.591   0.815  52.107  1.00  0.00     0.016 C 
BRANCH   5   6
HETATM    6  C4  UNL     1      26.776   0.079  53.385  1.00  0.00     0.342 C 
HETATM    7  C1  UNL     1      27.618  -1.107  53.121  1.00  0.00     0.296 C 
HETATM    8  O1  UNL     1      27.030  -2.232  53.093  1.00  0.00    -0.262 OA
HETATM    9  O2  UNL     1      28.961  -0.811  52.939  1.00  0.00    -0.318 OA
HETATM   10  C2  UNL     1      29.563   0.085  53.872  1.00  0.00     0.209 C 
HETATM   11  C3  UNL     1      28.531   0.323  54.947  1.00  0.00     0.297 C 
HETATM   12  N1  UNL     1      27.406   0.993  54.327  1.00  0.00     0.103 N 
HETATM   13  H5  UNL     1      27.833   1.820  53.813  1.00  0.00     0.317 HD
ENDBRANCH   5   6
ENDBRANCH   3   4
ENDBRANCH   1   3
BRANCH   2  14
HETATM   14  C8  UNL     1      23.748   3.272  50.917  1.00  0.00     0.079 A 
HETATM   15  C9  UNL     1      23.150   2.961  49.690  1.00  0.00     0.036 A 
HETATM   16  C10 UNL     1      22.091   2.055  49.601  1.00  0.00     0.035 A 
HETATM   17  C11 UNL     1      21.633   1.460  50.761  1.00  0.00     0.067 A 
HETATM   18  N4  UNL     1      20.606   0.573  50.730  1.00  0.00    -0.257 NA
HETATM   19  C15 UNL     1      22.222   1.765  51.971  1.00  0.00    -0.002 A 
HETATM   20  C12 UNL     1      20.170  -0.001  51.868  1.00  0.00     0.159 A 
HETATM   21  C13 UNL     1      20.763   0.304  53.099  1.00  0.00     0.134 A 
HETATM   22  F1  UNL     1      20.290  -0.296  54.215  1.00  0.00    -0.205 F 
HETATM   23  C14 UNL     1      21.812   1.202  53.181  1.00  0.00     0.057 A 
HETATM   24  C16 UNL     1      23.269   2.661  52.054  1.00  0.00     0.047 A 
ENDBRANCH   2  14
TORSDOF 4
ENDMDL
MODEL 7
REMARK VINA RESULT:      -7.2      1.564      2.161
REMARK  4 active torsions:
REMARK  status: ('A' for Active; 'I' for Inactive)
REMARK    1  A    between atoms: C4_7  and  C5_8 
REMARK    2  A    between atoms: C6_9  and  C7_10 
REMARK    3  A    between atoms: C7_10  and  N2_11 
REMARK    4  A    between atoms: N3_12  and  C8_13 
ROOT
HETATM    1  N2  UNL     1      22.621   3.475  50.920  1.00  0.00    -0.189 NA
HETATM    2  N3  UNL     1      23.269   3.332  49.853  1.00  0.00    -0.155 NA
ENDROOT
BRANCH   1   3
HETATM    3  C7  UNL     1      22.913   4.418  51.966  1.00  0.00     0.200 C 
BRANCH   3   4
HETATM    4  C6  UNL     1      23.916   3.804  52.892  1.00  0.00    -0.005 C 
HETATM    5  C5  UNL     1      24.319   2.557  53.088  1.00  0.00     0.016 C 
BRANCH   5   6
HETATM    6  C4  UNL     1      25.278   1.812  53.946  1.00  0.00     0.342 C 
HETATM    7  C1  UNL     1      25.390   0.432  53.431  1.00  0.00     0.296 C 
HETATM    8  O1  UNL     1      24.803  -0.477  54.094  1.00  0.00    -0.262 OA
HETATM    9  O2  UNL     1      26.139   0.328  52.267  1.00  0.00    -0.318 OA
HETATM   10  C2  UNL     1      27.384   1.024  52.230  1.00  0.00     0.209 C 
HETATM   11  C3  UNL     1      27.604   1.560  53.623  1.00  0.00     0.297 C 
HETATM   12  N1  UNL     1      26.551   2.517  53.890  1.00  0.00     0.103 N 
HETATM   13  H5  UNL     1      26.571   3.181  53.059  1.00  0.00     0.317 HD
ENDBRANCH   5   6
ENDBRANCH   3   4
ENDBRANCH   1   3
BRANCH   2  14
HETATM   14  C8  UNL     1      24.409   4.058  49.456  1.00  0.00     0.079 A 
HETATM   15  C9  UNL     1      25.566   3.291  49.635  1.00  0.00     0.036 A 
HETATM   16  C10 UNL     1      26.830   3.788  49.313  1.00  0.00     0.035 A 
HETATM   17  C11 UNL     1      26.925   5.071  48.807  1.00  0.00     0.067 A 
HETATM   18  N4  UNL     1      28.130   5.602  48.479  1.00  0.00    -0.257 NA
HETATM   19  C15 UNL     1      25.786   5.828  48.631  1.00  0.00    -0.002 A 
HETATM   20  C12 UNL     1      28.209   6.854  47.987  1.00  0.00     0.159 A 
HETATM   21  C13 UNL     1      27.057   7.627  47.805  1.00  0.00     0.134 A 
HETATM   22  F1  UNL     1      27.186   8.879  47.309  1.00  0.00    -0.205 F 
HETATM   23  C14 UNL     1      25.807   7.129  48.126  1.00  0.00     0.057 A 
HETATM   24  C16 UNL     1      24.538   5.332  48.950  1.00  0.00     0.047 A 
ENDBRANCH   2  14
TORSDOF 4
ENDMDL
MODEL 8
REMARK VINA RESULT:      -7.1      3.969      7.568
REMARK  4 active torsions:
REMARK  status: ('A' for Active; 'I' for Inactive)
REMARK    1  A    between atoms: C4_7  and  C5_8 
REMARK    2  A    between atoms: C6_9  and  C7_10 
REMARK    3  A    between atoms: C7_10  and  N2_11 
REMARK    4  A    between atoms: N3_12  and  C8_13 
ROOT
HETATM    1  N2  UNL     1      19.606   1.708  51.247  1.00  0.00    -0.189 NA
HETATM    2  N3  UNL     1      20.138   0.572  51.320  1.00  0.00    -0.155 NA
ENDROOT
BRANCH   1   3
HETATM    3  C7  UNL     1      19.802   2.795  52.168  1.00  0.00     0.200 C 
BRANCH   3   4
HETATM    4  C6  UNL     1      20.947   3.627  51.684  1.00  0.00    -0.005 C 
HETATM    5  C5  UNL     1      22.214   3.727  52.061  1.00  0.00     0.016 C 
BRANCH   5   6
HETATM    6  C4  UNL     1      23.436   4.487  51.688  1.00  0.00     0.342 C 
HETATM    7  C1  UNL     1      24.342   3.580  50.954  1.00  0.00     0.296 C 
HETATM    8  O1  UNL     1      25.359   3.153  51.582  1.00  0.00    -0.262 OA
HETATM    9  O2  UNL     1      23.939   3.321  49.651  1.00  0.00    -0.318 OA
HETATM   10  C2  UNL     1      23.531   4.437  48.862  1.00  0.00     0.209 C 
HETATM   11  C3  UNL     1      23.843   5.665  49.682  1.00  0.00     0.297 C 
HETATM   12  N1  UNL     1      23.015   5.614  50.869  1.00  0.00     0.103 N 
HETATM   13  H5  UNL     1      22.028   5.460  50.504  1.00  0.00     0.317 HD
ENDBRANCH   5   6
ENDBRANCH   3   4
ENDBRANCH   1   3
BRANCH   2  14
HETATM   14  C8  UNL     1      21.031   0.124  52.313  1.00  0.00     0.079 A 
HETATM   15  C9  UNL     1      20.340  -0.550  53.327  1.00  0.00     0.036 A 
HETATM   16  C10 UNL     1      21.004  -1.093  54.429  1.00  0.00     0.035 A 
HETATM   17  C11 UNL     1      22.377  -0.953  54.506  1.00  0.00     0.067 A 
HETATM   18  N4  UNL     1      23.071  -1.462  55.556  1.00  0.00    -0.257 NA
HETATM   19  C15 UNL     1      23.060  -0.290  53.508  1.00  0.00    -0.002 A 
HETATM   20  C12 UNL     1      24.408  -1.319  55.620  1.00  0.00     0.159 A 
HETATM   21  C13 UNL     1      25.107  -0.647  54.610  1.00  0.00     0.134 A 
HETATM   22  F1  UNL     1      26.450  -0.527  54.717  1.00  0.00    -0.205 F 
HETATM   23  C14 UNL     1      24.444  -0.111  53.520  1.00  0.00     0.057 A 
HETATM   24  C16 UNL     1      22.399   0.245  52.420  1.00  0.00     0.047 A 
ENDBRANCH   2  14
TORSDOF 4
ENDMDL
MODEL 9
REMARK VINA RESULT:      -7.0      4.211      7.844
REMARK  4 active torsions:
REMARK  status: ('A' for Active; 'I' for Inactive)
REMARK    1  A    between atoms: C4_7  and  C5_8 
REMARK    2  A    between atoms: C6_9  and  C7_10 
REMARK    3  A    between atoms: C7_10  and  N2_11 
REMARK    4  A    between atoms: N3_12  and  C8_13 
ROOT
HETATM    1  N2  UNL     1      26.336   3.375  50.274  1.00  0.00    -0.189 NA
HETATM    2  N3  UNL     1      26.798   2.276  50.670  1.00  0.00    -0.155 NA
ENDROOT
BRANCH   1   3
HETATM    3  C7  UNL     1      25.231   4.087  50.858  1.00  0.00     0.200 C 
BRANCH   3   4
HETATM    4  C6  UNL     1      24.061   3.989  49.931  1.00  0.00    -0.005 C 
HETATM    5  C5  UNL     1      23.648   3.047  49.093  1.00  0.00     0.016 C 
BRANCH   5   6
HETATM    6  C4  UNL     1      22.538   2.813  48.132  1.00  0.00     0.342 C 
HETATM    7  C1  UNL     1      21.560   1.903  48.765  1.00  0.00     0.296 C 
HETATM    8  O1  UNL     1      21.550   0.701  48.360  1.00  0.00    -0.262 OA
HETATM    9  O2  UNL     1      20.775   2.512  49.734  1.00  0.00    -0.318 OA
HETATM   10  C2  UNL     1      20.208   3.780  49.409  1.00  0.00     0.209 C 
HETATM   11  C3  UNL     1      20.513   4.014  47.950  1.00  0.00     0.297 C 
HETATM   12  N1  UNL     1      21.952   4.108  47.819  1.00  0.00     0.103 N 
HETATM   13  H5  UNL     1      22.243   4.832  48.542  1.00  0.00     0.317 HD
ENDBRANCH   5   6
ENDBRANCH   3   4
ENDBRANCH   1   3
BRANCH   2  14
HETATM   14  C8  UNL     1      26.337   1.512  51.760  1.00  0.00     0.079 A 
HETATM   15  C9  UNL     1      27.370   1.294  52.679  1.00  0.00     0.036 A 
HETATM   16  C10 UNL     1      27.165   0.561  53.850  1.00  0.00     0.035 A 
HETATM   17  C11 UNL     1      25.906   0.044  54.092  1.00  0.00     0.067 A 
HETATM   18  N4  UNL     1      25.654  -0.676  55.215  1.00  0.00    -0.257 NA
HETATM   19  C15 UNL     1      24.887   0.258  53.188  1.00  0.00    -0.002 A 
HETATM   20  C12 UNL     1      24.423  -1.174  55.439  1.00  0.00     0.159 A 
HETATM   21  C13 UNL     1      23.385  -0.961  54.526  1.00  0.00     0.134 A 
HETATM   22  F1  UNL     1      22.165  -1.481  54.793  1.00  0.00    -0.205 F 
HETATM   23  C14 UNL     1      23.593  -0.233  53.367  1.00  0.00     0.057 A 
HETATM   24  C16 UNL     1      25.095   0.984  52.031  1.00  0.00     0.047 A 
ENDBRANCH   2  14
TORSDOF 4
ENDMDL
