MODEL 1
REMARK VINA RESULT:      -8.2      0.000      0.000
REMARK  2 active torsions:
REMARK  status: ('A' for Active; 'I' for Inactive)
REMARK    1  A    between atoms: C2_3  and  C3_4 
REMARK    2  A    between atoms: C12_13  and  N2_14 
ROOT
HETATM    1  N1  UNL     1      20.404   2.558  47.792  1.00  0.00    -0.197 NA
HETATM    2  C1  UNL     1      20.815   1.865  48.651  1.00  0.00     0.061 C 
HETATM    3  C2  UNL     1      21.348   0.996  49.707  1.00  0.00     0.151 C 
ENDROOT
BRANCH   3   4
HETATM    4  C3  UNL     1      21.159   1.641  51.021  1.00  0.00     0.127 C 
HETATM    5  C4  UNL     1      20.563   0.838  52.121  1.00  0.00     0.019 C 
HETATM    6  C5  UNL     1      19.469  -0.094  51.747  1.00  0.00     0.007 C 
HETATM    7  C8  UNL     1      21.471  -0.100  52.892  1.00  0.00     0.014 C 
HETATM    8  C6  UNL     1      19.152  -0.718  53.119  1.00  0.00     0.001 C 
HETATM    9  C7  UNL     1      20.492  -0.742  53.843  1.00  0.00     0.009 C 
HETATM   10  C9  UNL     1      22.521   0.610  53.679  1.00  0.00    -0.021 C 
HETATM   11  C10 UNL     1      23.799   0.478  53.409  1.00  0.00     0.014 C 
HETATM   12  C11 UNL     1      25.239   0.537  53.353  1.00  0.00     0.039 A 
HETATM   13  C12 UNL     1      26.257  -0.177  53.907  1.00  0.00     0.135 A 
HETATM   14  C14 UNL     1      25.422   1.699  52.487  1.00  0.00     0.085 A 
HETATM   15  N3  UNL     1      27.515   0.229  53.629  1.00  0.00    -0.224 NA
HETATM   16  C13 UNL     1      27.692   1.315  52.820  1.00  0.00     0.236 A 
HETATM   17  N4  UNL     1      26.689   2.058  52.242  1.00  0.00    -0.240 NA
HETATM   18  C15 UNL     1      24.183   2.365  52.027  1.00  0.00     0.030 A 
HETATM   19  C16 UNL     1      23.846   3.601  52.462  1.00  0.00     0.154 A 
HETATM   20  C17 UNL     1      23.377   1.483  51.381  1.00  0.00     0.128 A 
HETATM   21  N5  UNL     1      22.548   3.540  52.036  1.00  0.00    -0.184 NA
HETATM   22  N6  UNL     1      22.360   2.341  51.456  1.00  0.00    -0.274 N 
BRANCH  13  23
HETATM   23  N2  UNL     1      25.585  -1.179  54.633  1.00  0.00    -0.383 N 
HETATM   24  H14 UNL     1      25.343  -0.954  55.627  1.00  0.00     0.157 HD
HETATM   25  H15 UNL     1      25.333  -2.113  54.208  1.00  0.00     0.157 HD
ENDBRANCH  13  23
ENDBRANCH   3   4
TORSDOF 2
ENDMDL
MODEL 2
REMARK VINA RESULT:      -8.1      2.077      4.566
REMARK  2 active torsions:
REMARK  status: ('A' for Active; 'I' for Inactive)
REMARK    1  A    between atoms: C2_3  and  C3_4 
REMARK    2  A    between atoms: C12_13  and  N2_14 
ROOT
HETATM    1  N1  UNL     1      21.267   6.607  50.809  1.00  0.00    -0.197 NA
HETATM    2  C1  UNL     1      21.928   5.759  51.290  1.00  0.00     0.061 C 
HETATM    3  C2  UNL     1      22.739   4.705  51.912  1.00  0.00     0.151 C 
ENDROOT
BRANCH   3   4
HETATM    4  C3  UNL     1      22.993   3.633  50.931  1.00  0.00     0.127 C 
HETATM    5  C4  UNL     1      24.361   3.509  50.363  1.00  0.00     0.019 C 
HETATM    6  C5  UNL     1      25.077   4.775  50.067  1.00  0.00     0.007 C 
HETATM    7  C8  UNL     1      25.411   2.785  51.184  1.00  0.00     0.014 C 
HETATM    8  C6  UNL     1      26.410   4.224  49.527  1.00  0.00     0.001 C 
HETATM    9  C7  UNL     1      26.625   2.930  50.301  1.00  0.00     0.009 C 
HETATM   10  C9  UNL     1      25.116   1.335  51.373  1.00  0.00    -0.021 C 
HETATM   11  C10 UNL     1      24.865   0.827  52.557  1.00  0.00     0.014 C 
HETATM   12  C11 UNL     1      24.555  -0.003  53.696  1.00  0.00     0.039 A 
HETATM   13  C12 UNL     1      25.284  -0.721  54.593  1.00  0.00     0.135 A 
HETATM   14  C14 UNL     1      23.096   0.060  53.679  1.00  0.00     0.085 A 
HETATM   15  N3  UNL     1      24.597  -1.420  55.524  1.00  0.00    -0.224 NA
HETATM   16  C13 UNL     1      23.232  -1.364  55.513  1.00  0.00     0.236 A 
HETATM   17  N4  UNL     1      22.464  -0.648  54.624  1.00  0.00    -0.240 NA
HETATM   18  C15 UNL     1      22.495   0.862  52.589  1.00  0.00     0.030 A 
HETATM   19  C16 UNL     1      21.797   0.276  51.588  1.00  0.00     0.154 A 
HETATM   20  C17 UNL     1      22.970   2.133  52.612  1.00  0.00     0.128 A 
HETATM   21  N5  UNL     1      21.813   1.365  50.763  1.00  0.00    -0.184 NA
HETATM   22  N6  UNL     1      22.482   2.348  51.390  1.00  0.00    -0.274 N 
BRANCH  13  23
HETATM   23  N2  UNL     1      26.612  -0.459  54.208  1.00  0.00    -0.383 N 
HETATM   24  H14 UNL     1      26.998  -1.043  53.429  1.00  0.00     0.157 HD
HETATM   25  H15 UNL     1      27.200   0.285  54.675  1.00  0.00     0.157 HD
ENDBRANCH  13  23
ENDBRANCH   3   4
TORSDOF 2
ENDMDL
MODEL 3
REMARK VINA RESULT:      -7.9      1.933      2.760
REMARK  2 active torsions:
REMARK  status: ('A' for Active; 'I' for Inactive)
REMARK    1  A    between atoms: C2_3  and  C3_4 
REMARK    2  A    between atoms: C12_13  and  N2_14 
ROOT
HETATM    1  N1  UNL     1      17.643   1.361  50.166  1.00  0.00    -0.197 NA
HETATM    2  C1  UNL     1      18.720   1.022  50.499  1.00  0.00     0.061 C 
HETATM    3  C2  UNL     1      20.071   0.599  50.890  1.00  0.00     0.151 C 
ENDROOT
BRANCH   3   4
HETATM    4  C3  UNL     1      20.465   1.290  52.132  1.00  0.00     0.127 C 
HETATM    5  C4  UNL     1      21.100   0.490  53.212  1.00  0.00     0.019 C 
HETATM    6  C5  UNL     1      20.564  -0.877  53.430  1.00  0.00     0.007 C 
HETATM    7  C8  UNL     1      22.582   0.190  53.100  1.00  0.00     0.014 C 
HETATM    8  C6  UNL     1      21.469  -1.353  54.582  1.00  0.00     0.001 C 
HETATM    9  C7  UNL     1      22.802  -0.663  54.325  1.00  0.00     0.009 C 
HETATM   10  C9  UNL     1      23.440   1.406  53.192  1.00  0.00    -0.021 C 
HETATM   11  C10 UNL     1      24.172   1.817  52.183  1.00  0.00     0.014 C 
HETATM   12  C11 UNL     1      25.059   2.501  51.273  1.00  0.00     0.039 A 
HETATM   13  C12 UNL     1      26.381   2.412  50.964  1.00  0.00     0.135 A 
HETATM   14  C14 UNL     1      24.137   3.471  50.686  1.00  0.00     0.085 A 
HETATM   15  N3  UNL     1      26.859   3.288  50.052  1.00  0.00    -0.224 NA
HETATM   16  C13 UNL     1      26.001   4.196  49.500  1.00  0.00     0.236 A 
HETATM   17  N4  UNL     1      24.661   4.313  49.787  1.00  0.00    -0.240 NA
HETATM   18  C15 UNL     1      22.747   3.433  51.196  1.00  0.00     0.030 A 
HETATM   19  C16 UNL     1      22.246   4.441  51.947  1.00  0.00     0.154 A 
HETATM   20  C17 UNL     1      22.212   2.196  51.036  1.00  0.00     0.128 A 
HETATM   21  N5  UNL     1      21.161   3.742  52.395  1.00  0.00    -0.184 NA
HETATM   22  N6  UNL     1      21.212   2.511  51.857  1.00  0.00    -0.274 N 
BRANCH  13  23
HETATM   23  N2  UNL     1      26.825   1.345  51.767  1.00  0.00    -0.383 N 
HETATM   24  H14 UNL     1      26.089   0.698  52.135  1.00  0.00     0.157 HD
HETATM   25  H15 UNL     1      27.847   1.195  51.993  1.00  0.00     0.157 HD
ENDBRANCH  13  23
ENDBRANCH   3   4
TORSDOF 2
ENDMDL
MODEL 4
REMARK VINA RESULT:      -7.9      2.959      5.426
REMARK  2 active torsions:
REMARK  status: ('A' for Active; 'I' for Inactive)
REMARK    1  A    between atoms: C2_3  and  C3_4 
REMARK    2  A    between atoms: C12_13  and  N2_14 
ROOT
HETATM    1  N1  UNL     1      21.369   7.287  50.809  1.00  0.00    -0.197 NA
HETATM    2  C1  UNL     1      22.442   6.805  50.851  1.00  0.00     0.061 C 
HETATM    3  C2  UNL     1      23.779   6.202  50.929  1.00  0.00     0.151 C 
ENDROOT
BRANCH   3   4
HETATM    4  C3  UNL     1      23.961   5.257  49.811  1.00  0.00     0.127 C 
HETATM    5  C4  UNL     1      25.304   5.165  49.179  1.00  0.00     0.019 C 
HETATM    6  C5  UNL     1      26.053   6.436  49.019  1.00  0.00     0.007 C 
HETATM    7  C8  UNL     1      26.354   4.310  49.861  1.00  0.00     0.014 C 
HETATM    8  C6  UNL     1      27.347   5.918  48.363  1.00  0.00     0.001 C 
HETATM    9  C7  UNL     1      27.543   4.530  48.957  1.00  0.00     0.009 C 
HETATM   10  C9  UNL     1      26.016   2.857  49.876  1.00  0.00    -0.021 C 
HETATM   11  C10 UNL     1      25.787   2.209  50.994  1.00  0.00     0.014 C 
HETATM   12  C11 UNL     1      25.487   1.251  52.030  1.00  0.00     0.039 A 
HETATM   13  C12 UNL     1      26.220   0.401  52.799  1.00  0.00     0.135 A 
HETATM   14  C14 UNL     1      24.032   1.360  52.077  1.00  0.00     0.085 A 
HETATM   15  N3  UNL     1      25.540  -0.389  53.660  1.00  0.00    -0.224 NA
HETATM   16  C13 UNL     1      24.180  -0.291  53.708  1.00  0.00     0.236 A 
HETATM   17  N4  UNL     1      23.407   0.557  52.948  1.00  0.00    -0.240 NA
HETATM   18  C15 UNL     1      23.422   2.313  51.121  1.00  0.00     0.030 A 
HETATM   19  C16 UNL     1      22.671   1.882  50.082  1.00  0.00     0.154 A 
HETATM   20  C17 UNL     1      23.942   3.556  51.287  1.00  0.00     0.128 A 
HETATM   21  N5  UNL     1      22.696   3.067  49.402  1.00  0.00    -0.184 NA
HETATM   22  N6  UNL     1      23.421   3.940  50.122  1.00  0.00    -0.274 N 
BRANCH  13  23
HETATM   23  N2  UNL     1      27.543   0.669  52.400  1.00  0.00    -0.383 N 
HETATM   24  H14 UNL     1      28.043   1.430  52.917  1.00  0.00     0.157 HD
HETATM   25  H15 UNL     1      28.017   0.137  51.619  1.00  0.00     0.157 HD
ENDBRANCH  13  23
ENDBRANCH   3   4
TORSDOF 2
ENDMDL
MODEL 5
REMARK VINA RESULT:      -7.9      2.212      5.508
REMARK  2 active torsions:
REMARK  status: ('A' for Active; 'I' for Inactive)
REMARK    1  A    between atoms: C2_3  and  C3_4 
REMARK    2  A    between atoms: C12_13  and  N2_14 
ROOT
HETATM    1  N1  UNL     1      23.938   6.119  51.057  1.00  0.00    -0.197 NA
HETATM    2  C1  UNL     1      23.760   5.162  51.719  1.00  0.00     0.061 C 
HETATM    3  C2  UNL     1      23.517   3.979  52.553  1.00  0.00     0.151 C 
ENDROOT
BRANCH   3   4
HETATM    4  C3  UNL     1      23.873   2.761  51.800  1.00  0.00     0.127 C 
HETATM    5  C4  UNL     1      24.600   1.678  52.514  1.00  0.00     0.019 C 
HETATM    6  C5  UNL     1      25.633   2.103  53.492  1.00  0.00     0.007 C 
HETATM    7  C8  UNL     1      23.792   0.720  53.367  1.00  0.00     0.014 C 
HETATM    8  C6  UNL     1      26.119   0.733  54.000  1.00  0.00     0.001 C 
HETATM    9  C7  UNL     1      24.881  -0.153  53.940  1.00  0.00     0.009 C 
HETATM   10  C9  UNL     1      22.853  -0.128  52.576  1.00  0.00    -0.021 C 
HETATM   11  C10 UNL     1      21.552  -0.033  52.711  1.00  0.00     0.014 C 
HETATM   12  C11 UNL     1      20.116  -0.153  52.634  1.00  0.00     0.039 A 
HETATM   13  C12 UNL     1      19.173  -0.891  53.282  1.00  0.00     0.135 A 
HETATM   14  C14 UNL     1      19.830   0.782  51.549  1.00  0.00     0.085 A 
HETATM   15  N3  UNL     1      17.892  -0.739  52.881  1.00  0.00    -0.224 NA
HETATM   16  C13 UNL     1      17.619   0.134  51.867  1.00  0.00     0.236 A 
HETATM   17  N4  UNL     1      18.544   0.896  51.192  1.00  0.00    -0.240 NA
HETATM   18  C15 UNL     1      21.005   1.451  50.945  1.00  0.00     0.030 A 
HETATM   19  C16 UNL     1      21.400   1.172  49.681  1.00  0.00     0.154 A 
HETATM   20  C17 UNL     1      21.718   2.113  51.891  1.00  0.00     0.128 A 
HETATM   21  N5  UNL     1      22.632   1.750  49.799  1.00  0.00    -0.184 NA
HETATM   22  N6  UNL     1      22.740   2.241  51.046  1.00  0.00    -0.274 N 
BRANCH  13  23
HETATM   23  N2  UNL     1      19.927  -1.612  54.227  1.00  0.00    -0.383 N 
HETATM   24  H14 UNL     1      20.266  -2.558  53.933  1.00  0.00     0.157 HD
HETATM   25  H15 UNL     1      20.145  -1.229  55.188  1.00  0.00     0.157 HD
ENDBRANCH  13  23
ENDBRANCH   3   4
TORSDOF 2
ENDMDL
MODEL 6
REMARK VINA RESULT:      -7.3      8.296     10.485
REMARK  2 active torsions:
REMARK  status: ('A' for Active; 'I' for Inactive)
REMARK    1  A    between atoms: C2_3  and  C3_4 
REMARK    2  A    between atoms: C12_13  and  N2_14 
ROOT
HETATM    1  N1  UNL     1      27.539  11.325  47.026  1.00  0.00    -0.197 NA
HETATM    2  C1  UNL     1      27.896  10.209  46.904  1.00  0.00     0.061 C 
HETATM    3  C2  UNL     1      28.351   8.825  46.730  1.00  0.00     0.151 C 
ENDROOT
BRANCH   3   4
HETATM    4  C3  UNL     1      28.755   8.269  48.037  1.00  0.00     0.127 C 
HETATM    5  C4  UNL     1      28.030   7.076  48.548  1.00  0.00     0.019 C 
HETATM    6  C5  UNL     1      26.567   7.030  48.302  1.00  0.00     0.007 C 
HETATM    7  C8  UNL     1      28.441   5.714  48.024  1.00  0.00     0.014 C 
HETATM    8  C6  UNL     1      26.216   5.678  48.953  1.00  0.00     0.001 C 
HETATM    9  C7  UNL     1      27.452   4.818  48.728  1.00  0.00     0.009 C 
HETATM   10  C9  UNL     1      29.824   5.320  48.420  1.00  0.00    -0.021 C 
HETATM   11  C10 UNL     1      30.780   5.159  47.535  1.00  0.00     0.014 C 
HETATM   12  C11 UNL     1      32.008   4.917  46.818  1.00  0.00     0.039 A 
HETATM   13  C12 UNL     1      32.588   3.833  46.236  1.00  0.00     0.135 A 
HETATM   14  C14 UNL     1      32.612   6.246  46.873  1.00  0.00     0.085 A 
HETATM   15  N3  UNL     1      33.805   4.013  45.676  1.00  0.00    -0.224 NA
HETATM   16  C13 UNL     1      34.374   5.253  45.725  1.00  0.00     0.236 A 
HETATM   17  N4  UNL     1      33.818   6.370  46.302  1.00  0.00    -0.240 NA
HETATM   18  C15 UNL     1      31.838   7.280  47.597  1.00  0.00     0.030 A 
HETATM   19  C16 UNL     1      32.270   7.785  48.775  1.00  0.00     0.154 A 
HETATM   20  C17 UNL     1      30.595   7.406  47.066  1.00  0.00     0.128 A 
HETATM   21  N5  UNL     1      31.077   8.359  49.116  1.00  0.00    -0.184 NA
HETATM   22  N6  UNL     1      30.199   8.103  48.130  1.00  0.00    -0.274 N 
BRANCH  13  23
HETATM   23  N2  UNL     1      31.633   2.817  46.431  1.00  0.00    -0.383 N 
HETATM   24  H14 UNL     1      31.639   2.341  47.364  1.00  0.00     0.157 HD
HETATM   25  H15 UNL     1      30.940   2.540  45.682  1.00  0.00     0.157 HD
ENDBRANCH  13  23
ENDBRANCH   3   4
TORSDOF 2
ENDMDL
MODEL 7
REMARK VINA RESULT:      -6.7      4.325      6.012
REMARK  2 active torsions:
REMARK  status: ('A' for Active; 'I' for Inactive)
REMARK    1  A    between atoms: C2_3  and  C3_4 
REMARK    2  A    between atoms: C12_13  and  N2_14 
ROOT
HETATM    1  N1  UNL     1      19.522   2.674  48.252  1.00  0.00    -0.197 NA
HETATM    2  C1  UNL     1      20.675   2.904  48.311  1.00  0.00     0.061 C 
HETATM    3  C2  UNL     1      22.113   3.197  48.359  1.00  0.00     0.151 C 
ENDROOT
BRANCH   3   4
HETATM    4  C3  UNL     1      22.437   3.874  49.630  1.00  0.00     0.127 C 
HETATM    5  C4  UNL     1      23.328   3.176  50.593  1.00  0.00     0.019 C 
HETATM    6  C5  UNL     1      23.146   1.709  50.725  1.00  0.00     0.007 C 
HETATM    7  C8  UNL     1      24.825   3.248  50.360  1.00  0.00     0.014 C 
HETATM    8  C6  UNL     1      24.230   1.385  51.770  1.00  0.00     0.001 C 
HETATM    9  C7  UNL     1      25.339   2.390  51.489  1.00  0.00     0.009 C 
HETATM   10  C9  UNL     1      25.380   4.625  50.502  1.00  0.00    -0.021 C 
HETATM   11  C10 UNL     1      25.910   5.268  49.488  1.00  0.00     0.014 C 
HETATM   12  C11 UNL     1      26.533   6.206  48.587  1.00  0.00     0.039 A 
HETATM   13  C12 UNL     1      27.809   6.458  48.187  1.00  0.00     0.135 A 
HETATM   14  C14 UNL     1      25.366   6.965  48.147  1.00  0.00     0.085 A 
HETATM   15  N3  UNL     1      27.992   7.483  47.326  1.00  0.00    -0.224 NA
HETATM   16  C13 UNL     1      26.904   8.196  46.912  1.00  0.00     0.236 A 
HETATM   17  N4  UNL     1      25.602   7.969  47.293  1.00  0.00    -0.240 NA
HETATM   18  C15 UNL     1      24.070   6.561  48.739  1.00  0.00     0.030 A 
HETATM   19  C16 UNL     1      23.412   7.365  49.606  1.00  0.00     0.154 A 
HETATM   20  C17 UNL     1      23.827   5.246  48.507  1.00  0.00     0.128 A 
HETATM   21  N5  UNL     1      22.560   6.397  50.061  1.00  0.00    -0.184 NA
HETATM   22  N6  UNL     1      22.852   5.254  49.415  1.00  0.00    -0.274 N 
BRANCH  13  23
HETATM   23  N2  UNL     1      28.556   5.475  48.863  1.00  0.00    -0.383 N 
HETATM   24  H14 UNL     1      29.262   5.817  49.556  1.00  0.00     0.157 HD
HETATM   25  H15 UNL     1      28.419   4.441  48.688  1.00  0.00     0.157 HD
ENDBRANCH  13  23
ENDBRANCH   3   4
TORSDOF 2
ENDMDL
MODEL 8
REMARK VINA RESULT:      -6.5      9.278     12.814
REMARK  2 active torsions:
REMARK  status: ('A' for Active; 'I' for Inactive)
REMARK    1  A    between atoms: C2_3  and  C3_4 
REMARK    2  A    between atoms: C12_13  and  N2_14 
ROOT
HETATM    1  N1  UNL     1      35.086   3.480  45.832  1.00  0.00    -0.197 NA
HETATM    2  C1  UNL     1      34.496   4.483  45.650  1.00  0.00     0.061 C 
HETATM    3  C2  UNL     1      33.743   5.720  45.411  1.00  0.00     0.151 C 
ENDROOT
BRANCH   3   4
HETATM    4  C3  UNL     1      33.808   6.578  46.609  1.00  0.00     0.127 C 
HETATM    5  C4  UNL     1      33.744   8.052  46.425  1.00  0.00     0.019 C 
HETATM    6  C5  UNL     1      34.462   8.607  45.250  1.00  0.00     0.007 C 
HETATM    7  C8  UNL     1      32.380   8.689  46.241  1.00  0.00     0.014 C 
HETATM    8  C6  UNL     1      34.146  10.106  45.412  1.00  0.00     0.001 C 
HETATM    9  C7  UNL     1      32.757  10.135  46.035  1.00  0.00     0.009 C 
HETATM   10  C9  UNL     1      31.509   8.578  47.446  1.00  0.00    -0.021 C 
HETATM   11  C10 UNL     1      30.396   7.882  47.436  1.00  0.00     0.014 C 
HETATM   12  C11 UNL     1      29.154   7.208  47.729  1.00  0.00     0.039 A 
HETATM   13  C12 UNL     1      27.836   7.530  47.633  1.00  0.00     0.135 A 
HETATM   14  C14 UNL     1      29.658   5.943  48.255  1.00  0.00     0.085 A 
HETATM   15  N3  UNL     1      26.945   6.607  48.058  1.00  0.00    -0.224 NA
HETATM   16  C13 UNL     1      27.411   5.422  48.551  1.00  0.00     0.236 A 
HETATM   17  N4  UNL     1      28.734   5.062  48.661  1.00  0.00    -0.240 NA
HETATM   18  C15 UNL     1      31.132   5.809  48.320  1.00  0.00     0.030 A 
HETATM   19  C16 UNL     1      31.783   5.773  49.506  1.00  0.00     0.154 A 
HETATM   20  C17 UNL     1      31.684   6.004  47.096  1.00  0.00     0.128 A 
HETATM   21  N5  UNL     1      33.024   6.002  48.980  1.00  0.00    -0.184 NA
HETATM   22  N6  UNL     1      32.891   6.126  47.648  1.00  0.00    -0.274 N 
BRANCH  13  23
HETATM   23  N2  UNL     1      27.863   8.820  47.070  1.00  0.00    -0.383 N 
HETATM   24  H14 UNL     1      26.997   9.131  46.569  1.00  0.00     0.157 HD
HETATM   25  H15 UNL     1      28.708   9.451  47.143  1.00  0.00     0.157 HD
ENDBRANCH  13  23
ENDBRANCH   3   4
TORSDOF 2
ENDMDL
MODEL 9
REMARK VINA RESULT:      -6.5      5.286      7.903
REMARK  2 active torsions:
REMARK  status: ('A' for Active; 'I' for Inactive)
REMARK    1  A    between atoms: C2_3  and  C3_4 
REMARK    2  A    between atoms: C12_13  and  N2_14 
ROOT
HETATM    1  N1  UNL     1      24.938  11.408  47.513  1.00  0.00    -0.197 NA
HETATM    2  C1  UNL     1      25.208  10.418  48.090  1.00  0.00     0.061 C 
HETATM    3  C2  UNL     1      25.532   9.192  48.830  1.00  0.00     0.151 C 
ENDROOT
BRANCH   3   4
HETATM    4  C3  UNL     1      25.502   8.037  47.911  1.00  0.00     0.127 C 
HETATM    5  C4  UNL     1      26.742   7.234  47.749  1.00  0.00     0.019 C 
HETATM    6  C5  UNL     1      28.023   7.983  47.729  1.00  0.00     0.007 C 
HETATM    7  C8  UNL     1      27.053   6.184  48.798  1.00  0.00     0.014 C 
HETATM    8  C6  UNL     1      29.024   6.824  47.565  1.00  0.00     0.001 C 
HETATM    9  C7  UNL     1      28.379   5.660  48.305  1.00  0.00     0.009 C 
HETATM   10  C9  UNL     1      26.066   5.066  48.827  1.00  0.00    -0.021 C 
HETATM   11  C10 UNL     1      25.293   4.850  49.865  1.00  0.00     0.014 C 
HETATM   12  C11 UNL     1      24.330   4.374  50.828  1.00  0.00     0.039 A 
HETATM   13  C12 UNL     1      24.354   3.487  51.859  1.00  0.00     0.135 A 
HETATM   14  C14 UNL     1      23.143   5.111  50.401  1.00  0.00     0.085 A 
HETATM   15  N3  UNL     1      23.194   3.283  52.522  1.00  0.00    -0.224 NA
HETATM   16  C13 UNL     1      22.082   3.970  52.127  1.00  0.00     0.236 A 
HETATM   17  N4  UNL     1      22.021   4.874  51.092  1.00  0.00    -0.240 NA
HETATM   18  C15 UNL     1      23.317   5.993  49.224  1.00  0.00     0.030 A 
HETATM   19  C16 UNL     1      22.727   5.710  48.040  1.00  0.00     0.154 A 
HETATM   20  C17 UNL     1      24.313   6.890  49.442  1.00  0.00     0.128 A 
HETATM   21  N5  UNL     1      23.482   6.581  47.306  1.00  0.00    -0.184 NA
HETATM   22  N6  UNL     1      24.339   7.191  48.144  1.00  0.00    -0.274 N 
BRANCH  13  23
HETATM   23  N2  UNL     1      25.695   3.059  51.881  1.00  0.00    -0.383 N 
HETATM   24  H14 UNL     1      25.857   2.025  51.844  1.00  0.00     0.157 HD
HETATM   25  H15 UNL     1      26.504   3.737  51.932  1.00  0.00     0.157 HD
ENDBRANCH  13  23
ENDBRANCH   3   4
TORSDOF 2
ENDMDL
