MODEL 1
REMARK VINA RESULT:      -6.9      0.000      0.000
REMARK  10 active torsions:
REMARK  status: ('A' for Active; 'I' for Inactive)
REMARK       I    between atoms: N1_5  and  C5_6 
REMARK    1  A    between atoms: C5_6  and  C6_8 
REMARK    2  A    between atoms: C7_9  and  C8_10 
REMARK    3  A    between atoms: C8_10  and  N2_11 
REMARK    4  A    between atoms: N2_11  and  C9_12 
REMARK    5  A    between atoms: N2_11  and  C12_15 
REMARK    6  A    between atoms: C9_12  and  C10_13 
REMARK    7  A    between atoms: C12_15  and  C13_16 
REMARK    8  A    between atoms: C13_16  and  C14_17 
REMARK    9  A    between atoms: C18_23  and  N5_24 
REMARK   10  A    between atoms: N5_24  and  C19_25 
ROOT
HETATM    1  C1  UNL     1      26.610   3.641  49.863  1.00  0.00     0.024 C 
HETATM    2  C2  UNL     1      25.446   3.317  50.444  1.00  0.00    -0.008 C 
HETATM    3  C3  UNL     1      24.511   2.521  51.291  1.00  0.00     0.035 C 
HETATM    4  C4  UNL     1      23.613   1.842  50.507  1.00  0.00     0.113 C 
HETATM    5  N1  UNL     1      23.365   3.003  49.647  1.00  0.00    -0.288 N 
HETATM    6  C5  UNL     1      22.495   2.825  48.494  1.00  0.00     0.304 C 
HETATM    7  O1  UNL     1      21.972   1.723  48.241  1.00  0.00    -0.258 OA
HETATM    8  C16 UNL     1      24.148   4.074  50.280  1.00  0.00     0.251 C 
HETATM    9  N3  UNL     1      23.638   4.756  51.368  1.00  0.00    -0.252 NA
HETATM   10  C17 UNL     1      23.672   4.695  52.688  1.00  0.00     0.232 C 
HETATM   11  N4  UNL     1      24.242   3.547  53.429  1.00  0.00    -0.224 NA
HETATM   12  C18 UNL     1      24.309   2.358  52.812  1.00  0.00     0.141 C 
ENDROOT
BRANCH   6  13
HETATM   13  C6  UNL     1      22.326   4.022  47.727  1.00  0.00    -0.003 C 
HETATM   14  C7  UNL     1      22.205   5.034  47.079  1.00  0.00    -0.066 C 
BRANCH  14  15
HETATM   15  C8  UNL     1      22.082   6.262  46.294  1.00  0.00     0.366 C 
BRANCH  15  16
HETATM   16  N2  UNL     1      22.781   7.323  46.953  1.00  0.00     0.099 N 
BRANCH  16  17
HETATM   17  C9  UNL     1      21.957   8.461  47.235  1.00  0.00     0.273 C 
BRANCH  17  18
HETATM   18  C10 UNL     1      21.128   8.323  48.476  1.00  0.00     0.026 C 
HETATM   19  C11 UNL     1      22.045   8.065  49.651  1.00  0.00     0.007 C 
ENDBRANCH  17  18
ENDBRANCH  16  17
BRANCH  16  20
HETATM   20  C12 UNL     1      24.031   7.660  46.366  1.00  0.00     0.273 C 
BRANCH  20  21
HETATM   21  C13 UNL     1      24.982   8.095  47.449  1.00  0.00     0.030 C 
BRANCH  21  22
HETATM   22  C14 UNL     1      25.443   6.866  48.243  1.00  0.00    -0.003 C 
HETATM   23  C15 UNL     1      25.834   7.324  49.622  1.00  0.00     0.005 C 
ENDBRANCH  21  22
ENDBRANCH  20  21
ENDBRANCH  16  20
ENDBRANCH  15  16
ENDBRANCH  14  15
ENDBRANCH   6  13
BRANCH  12  24
HETATM   24  N5  UNL     1      24.201   1.002  53.232  1.00  0.00    -0.340 N 
HETATM   25  H24 UNL     1      23.239   0.629  53.386  1.00  0.00     0.167 HD
BRANCH  24  26
HETATM   26  C19 UNL     1      25.545   0.534  53.324  1.00  0.00     0.035 A 
HETATM   27  C20 UNL     1      25.644  -0.744  52.759  1.00  0.00     0.032 A 
HETATM   28  C21 UNL     1      26.847  -1.421  52.718  1.00  0.00     0.046 A 
HETATM   29  C22 UNL     1      27.971  -0.824  53.246  1.00  0.00     0.138 A 
HETATM   30  F1  UNL     1      29.179  -1.450  53.231  1.00  0.00    -0.204 F 
HETATM   31  C23 UNL     1      27.877   0.422  53.799  1.00  0.00     0.074 A 
HETATM   32 CL1  UNL     1      29.256   1.268  54.500  1.00  0.00    -0.081 Cl
HETATM   33  C24 UNL     1      26.692   1.113  53.850  1.00  0.00     0.056 A 
ENDBRANCH  24  26
ENDBRANCH  12  24
TORSDOF 10
ENDMDL
MODEL 2
REMARK VINA RESULT:      -6.7      3.674      8.127
REMARK  10 active torsions:
REMARK  status: ('A' for Active; 'I' for Inactive)
REMARK       I    between atoms: N1_5  and  C5_6 
REMARK    1  A    between atoms: C5_6  and  C6_8 
REMARK    2  A    between atoms: C7_9  and  C8_10 
REMARK    3  A    between atoms: C8_10  and  N2_11 
REMARK    4  A    between atoms: N2_11  and  C9_12 
REMARK    5  A    between atoms: N2_11  and  C12_15 
REMARK    6  A    between atoms: C9_12  and  C10_13 
REMARK    7  A    between atoms: C12_15  and  C13_16 
REMARK    8  A    between atoms: C13_16  and  C14_17 
REMARK    9  A    between atoms: C18_23  and  N5_24 
REMARK   10  A    between atoms: N5_24  and  C19_25 
ROOT
HETATM    1  C1  UNL     1      26.740   4.046  49.280  1.00  0.00     0.024 C 
HETATM    2  C2  UNL     1      25.610   4.739  49.477  1.00  0.00    -0.008 C 
HETATM    3  C3  UNL     1      24.751   5.950  49.615  1.00  0.00     0.035 C 
HETATM    4  C4  UNL     1      24.363   6.118  50.919  1.00  0.00     0.113 C 
HETATM    5  N1  UNL     1      24.040   4.697  51.089  1.00  0.00    -0.288 N 
HETATM    6  C5  UNL     1      23.636   4.242  52.411  1.00  0.00     0.304 C 
HETATM    7  O1  UNL     1      23.562   5.030  53.373  1.00  0.00    -0.258 OA
HETATM    8  C16 UNL     1      24.251   4.134  49.748  1.00  0.00     0.251 C 
HETATM    9  N3  UNL     1      23.269   4.253  48.783  1.00  0.00    -0.252 NA
HETATM   10  C17 UNL     1      22.936   5.067  47.795  1.00  0.00     0.232 C 
HETATM   11  N4  UNL     1      23.581   6.381  47.579  1.00  0.00    -0.224 NA
HETATM   12  C18 UNL     1      24.174   6.981  48.621  1.00  0.00     0.141 C 
ENDROOT
BRANCH   6  13
HETATM   13  C6  UNL     1      23.349   2.840  52.460  1.00  0.00    -0.003 C 
HETATM   14  C7  UNL     1      23.100   1.659  52.480  1.00  0.00    -0.066 C 
BRANCH  14  15
HETATM   15  C8  UNL     1      22.794   0.228  52.481  1.00  0.00     0.366 C 
BRANCH  15  16
HETATM   16  N2  UNL     1      23.691  -0.452  53.365  1.00  0.00     0.099 N 
BRANCH  16  17
HETATM   17  C9  UNL     1      23.035  -1.072  54.478  1.00  0.00     0.273 C 
BRANCH  17  18
HETATM   18  C10 UNL     1      21.631  -0.599  54.701  1.00  0.00     0.026 C 
HETATM   19  C11 UNL     1      20.678  -1.737  54.408  1.00  0.00     0.007 C 
ENDBRANCH  17  18
ENDBRANCH  16  17
BRANCH  16  20
HETATM   20  C12 UNL     1      24.841   0.300  53.733  1.00  0.00     0.273 C 
BRANCH  20  21
HETATM   21  C13 UNL     1      26.076  -0.474  53.356  1.00  0.00     0.030 C 
BRANCH  21  22
HETATM   22  C14 UNL     1      26.559  -0.016  51.973  1.00  0.00    -0.003 C 
HETATM   23  C15 UNL     1      26.850   1.459  52.049  1.00  0.00     0.005 C 
ENDBRANCH  21  22
ENDBRANCH  20  21
ENDBRANCH  16  20
ENDBRANCH  15  16
ENDBRANCH  14  15
ENDBRANCH   6  13
BRANCH  12  24
HETATM   24  N5  UNL     1      24.357   8.333  49.030  1.00  0.00    -0.340 N 
HETATM   25  H24 UNL     1      23.508   8.854  49.339  1.00  0.00     0.167 HD
BRANCH  24  26
HETATM   26  C19 UNL     1      25.753   8.581  48.877  1.00  0.00     0.035 A 
HETATM   27  C20 UNL     1      26.286   9.066  50.078  1.00  0.00     0.032 A 
HETATM   28  C21 UNL     1      27.625   9.383  50.196  1.00  0.00     0.046 A 
HETATM   29  C22 UNL     1      28.452   9.216  49.106  1.00  0.00     0.138 A 
HETATM   30  F1  UNL     1      29.778   9.513  49.171  1.00  0.00    -0.204 F 
HETATM   31  C23 UNL     1      27.935   8.742  47.932  1.00  0.00     0.074 A 
HETATM   32 CL1  UNL     1      28.910   8.496  46.484  1.00  0.00    -0.081 Cl
HETATM   33  C24 UNL     1      26.607   8.422  47.794  1.00  0.00     0.056 A 
ENDBRANCH  24  26
ENDBRANCH  12  24
TORSDOF 10
ENDMDL
MODEL 3
REMARK VINA RESULT:      -6.7      0.498      1.866
REMARK  10 active torsions:
REMARK  status: ('A' for Active; 'I' for Inactive)
REMARK       I    between atoms: N1_5  and  C5_6 
REMARK    1  A    between atoms: C5_6  and  C6_8 
REMARK    2  A    between atoms: C7_9  and  C8_10 
REMARK    3  A    between atoms: C8_10  and  N2_11 
REMARK    4  A    between atoms: N2_11  and  C9_12 
REMARK    5  A    between atoms: N2_11  and  C12_15 
REMARK    6  A    between atoms: C9_12  and  C10_13 
REMARK    7  A    between atoms: C12_15  and  C13_16 
REMARK    8  A    between atoms: C13_16  and  C14_17 
REMARK    9  A    between atoms: C18_23  and  N5_24 
REMARK   10  A    between atoms: N5_24  and  C19_25 
ROOT
HETATM    1  C1  UNL     1      26.585   3.641  49.808  1.00  0.00     0.024 C 
HETATM    2  C2  UNL     1      25.426   3.310  50.396  1.00  0.00    -0.008 C 
HETATM    3  C3  UNL     1      24.506   2.520  51.264  1.00  0.00     0.035 C 
HETATM    4  C4  UNL     1      23.623   1.801  50.499  1.00  0.00     0.113 C 
HETATM    5  N1  UNL     1      23.353   2.933  49.606  1.00  0.00    -0.288 N 
HETATM    6  C5  UNL     1      22.489   2.704  48.458  1.00  0.00     0.304 C 
HETATM    7  O1  UNL     1      21.989   1.586  48.235  1.00  0.00    -0.258 OA
HETATM    8  C16 UNL     1      24.114   4.037  50.210  1.00  0.00     0.251 C 
HETATM    9  N3  UNL     1      23.588   4.739  51.277  1.00  0.00    -0.252 NA
HETATM   10  C17 UNL     1      23.622   4.715  52.599  1.00  0.00     0.232 C 
HETATM   11  N4  UNL     1      24.212   3.600  53.372  1.00  0.00    -0.224 NA
HETATM   12  C18 UNL     1      24.304   2.396  52.789  1.00  0.00     0.141 C 
ENDROOT
BRANCH   6  13
HETATM   13  C6  UNL     1      22.297   3.876  47.656  1.00  0.00    -0.003 C 
HETATM   14  C7  UNL     1      22.156   4.861  46.973  1.00  0.00    -0.066 C 
BRANCH  14  15
HETATM   15  C8  UNL     1      22.007   6.052  46.136  1.00  0.00     0.366 C 
BRANCH  15  16
HETATM   16  N2  UNL     1      22.438   7.206  46.865  1.00  0.00     0.099 N 
BRANCH  16  17
HETATM   17  C9  UNL     1      23.834   7.490  46.711  1.00  0.00     0.273 C 
BRANCH  17  18
HETATM   18  C10 UNL     1      24.540   7.800  47.997  1.00  0.00     0.026 C 
HETATM   19  C11 UNL     1      25.673   6.816  48.183  1.00  0.00     0.007 C 
ENDBRANCH  17  18
ENDBRANCH  16  17
BRANCH  16  20
HETATM   20  C12 UNL     1      21.997   7.249  48.217  1.00  0.00     0.273 C 
BRANCH  20  21
HETATM   21  C13 UNL     1      20.820   8.182  48.320  1.00  0.00     0.030 C 
BRANCH  21  22
HETATM   22  C14 UNL     1      20.332   8.222  49.774  1.00  0.00    -0.003 C 
HETATM   23  C15 UNL     1      21.371   7.549  50.631  1.00  0.00     0.005 C 
ENDBRANCH  21  22
ENDBRANCH  20  21
ENDBRANCH  16  20
ENDBRANCH  15  16
ENDBRANCH  14  15
ENDBRANCH   6  13
BRANCH  12  24
HETATM   24  N5  UNL     1      24.222   1.050  53.247  1.00  0.00    -0.340 N 
HETATM   25  H24 UNL     1      23.268   0.666  53.422  1.00  0.00     0.167 HD
BRANCH  24  26
HETATM   26  C19 UNL     1      25.575   0.606  53.338  1.00  0.00     0.035 A 
HETATM   27  C20 UNL     1      25.689  -0.683  52.801  1.00  0.00     0.032 A 
HETATM   28  C21 UNL     1      26.902  -1.341  52.765  1.00  0.00     0.046 A 
HETATM   29  C22 UNL     1      28.022  -0.714  53.268  1.00  0.00     0.138 A 
HETATM   30  F1  UNL     1      29.240  -1.321  53.255  1.00  0.00    -0.204 F 
HETATM   31  C23 UNL     1      27.913   0.543  53.792  1.00  0.00     0.074 A 
HETATM   32 CL1  UNL     1      29.284   1.427  54.461  1.00  0.00    -0.081 Cl
HETATM   33  C24 UNL     1      26.716   1.216  53.838  1.00  0.00     0.056 A 
ENDBRANCH  24  26
ENDBRANCH  12  24
TORSDOF 10
ENDMDL
MODEL 4
REMARK VINA RESULT:      -6.4      4.464      8.327
REMARK  10 active torsions:
REMARK  status: ('A' for Active; 'I' for Inactive)
REMARK       I    between atoms: N1_5  and  C5_6 
REMARK    1  A    between atoms: C5_6  and  C6_8 
REMARK    2  A    between atoms: C7_9  and  C8_10 
REMARK    3  A    between atoms: C8_10  and  N2_11 
REMARK    4  A    between atoms: N2_11  and  C9_12 
REMARK    5  A    between atoms: N2_11  and  C12_15 
REMARK    6  A    between atoms: C9_12  and  C10_13 
REMARK    7  A    between atoms: C12_15  and  C13_16 
REMARK    8  A    between atoms: C13_16  and  C14_17 
REMARK    9  A    between atoms: C18_23  and  N5_24 
REMARK   10  A    between atoms: N5_24  and  C19_25 
ROOT
HETATM    1  C1  UNL     1      23.142   2.947  48.546  1.00  0.00     0.024 C 
HETATM    2  C2  UNL     1      24.035   3.438  49.417  1.00  0.00    -0.008 C 
HETATM    3  C3  UNL     1      25.271   4.143  49.862  1.00  0.00     0.035 C 
HETATM    4  C4  UNL     1      26.180   3.248  50.365  1.00  0.00     0.113 C 
HETATM    5  N1  UNL     1      25.164   2.529  51.139  1.00  0.00    -0.288 N 
HETATM    6  C5  UNL     1      25.573   1.330  51.855  1.00  0.00     0.304 C 
HETATM    7  O1  UNL     1      26.749   0.923  51.818  1.00  0.00    -0.258 OA
HETATM    8  C16 UNL     1      23.943   3.319  50.922  1.00  0.00     0.251 C 
HETATM    9  N3  UNL     1      23.715   4.462  51.663  1.00  0.00    -0.252 NA
HETATM   10  C17 UNL     1      23.922   5.765  51.574  1.00  0.00     0.232 C 
HETATM   11  N4  UNL     1      24.765   6.380  50.525  1.00  0.00    -0.224 NA
HETATM   12  C18 UNL     1      25.700   5.624  49.932  1.00  0.00     0.141 C 
ENDROOT
BRANCH   6  13
HETATM   13  C6  UNL     1      24.500   0.710  52.573  1.00  0.00    -0.003 C 
HETATM   14  C7  UNL     1      23.606   0.192  53.197  1.00  0.00    -0.066 C 
BRANCH  14  15
HETATM   15  C8  UNL     1      22.533  -0.431  53.973  1.00  0.00     0.366 C 
BRANCH  15  16
HETATM   16  N2  UNL     1      21.268  -0.097  53.394  1.00  0.00     0.099 N 
BRANCH  16  17
HETATM   17  C9  UNL     1      21.173   1.271  52.979  1.00  0.00     0.273 C 
BRANCH  17  18
HETATM   18  C10 UNL     1      20.489   1.463  51.659  1.00  0.00     0.026 C 
HETATM   19  C11 UNL     1      21.136   0.556  50.636  1.00  0.00     0.007 C 
ENDBRANCH  17  18
ENDBRANCH  16  17
BRANCH  16  20
HETATM   20  C12 UNL     1      20.141  -0.543  54.139  1.00  0.00     0.273 C 
BRANCH  20  21
HETATM   21  C13 UNL     1      19.354  -1.518  53.305  1.00  0.00     0.030 C 
BRANCH  21  22
HETATM   22  C14 UNL     1      17.866  -1.148  53.364  1.00  0.00    -0.003 C 
HETATM   23  C15 UNL     1      17.388  -0.926  51.953  1.00  0.00     0.005 C 
ENDBRANCH  21  22
ENDBRANCH  20  21
ENDBRANCH  16  20
ENDBRANCH  15  16
ENDBRANCH  14  15
ENDBRANCH   6  13
BRANCH  12  24
HETATM   24  N5  UNL     1      26.997   5.869  49.395  1.00  0.00    -0.340 N 
HETATM   25  H24 UNL     1      27.703   5.109  49.496  1.00  0.00     0.167 HD
BRANCH  24  26
HETATM   26  C19 UNL     1      26.927   7.183  48.845  1.00  0.00     0.035 A 
HETATM   27  C20 UNL     1      26.086   7.185  47.725  1.00  0.00     0.032 A 
HETATM   28  C21 UNL     1      25.846   8.341  47.008  1.00  0.00     0.046 A 
HETATM   29  C22 UNL     1      26.448   9.516  47.407  1.00  0.00     0.138 A 
HETATM   30  F1  UNL     1      26.243  10.680  46.735  1.00  0.00    -0.204 F 
HETATM   31  C23 UNL     1      27.269   9.516  48.499  1.00  0.00     0.074 A 
HETATM   32 CL1  UNL     1      28.085  10.964  49.087  1.00  0.00    -0.081 Cl
HETATM   33  C24 UNL     1      27.521   8.378  49.226  1.00  0.00     0.056 A 
ENDBRANCH  24  26
ENDBRANCH  12  24
TORSDOF 10
ENDMDL
MODEL 5
REMARK VINA RESULT:      -6.4      1.946      3.026
REMARK  10 active torsions:
REMARK  status: ('A' for Active; 'I' for Inactive)
REMARK       I    between atoms: N1_5  and  C5_6 
REMARK    1  A    between atoms: C5_6  and  C6_8 
REMARK    2  A    between atoms: C7_9  and  C8_10 
REMARK    3  A    between atoms: C8_10  and  N2_11 
REMARK    4  A    between atoms: N2_11  and  C9_12 
REMARK    5  A    between atoms: N2_11  and  C12_15 
REMARK    6  A    between atoms: C9_12  and  C10_13 
REMARK    7  A    between atoms: C12_15  and  C13_16 
REMARK    8  A    between atoms: C13_16  and  C14_17 
REMARK    9  A    between atoms: C18_23  and  N5_24 
REMARK   10  A    between atoms: N5_24  and  C19_25 
ROOT
HETATM    1  C1  UNL     1      22.936   2.428  48.528  1.00  0.00     0.024 C 
HETATM    2  C2  UNL     1      23.638   3.199  49.372  1.00  0.00    -0.008 C 
HETATM    3  C3  UNL     1      24.346   3.557  50.634  1.00  0.00     0.035 C 
HETATM    4  C4  UNL     1      23.631   4.493  51.336  1.00  0.00     0.113 C 
HETATM    5  N1  UNL     1      23.352   5.294  50.140  1.00  0.00    -0.288 N 
HETATM    6  C5  UNL     1      22.482   6.452  50.282  1.00  0.00     0.304 C 
HETATM    7  O1  UNL     1      21.988   6.761  51.383  1.00  0.00    -0.258 OA
HETATM    8  C16 UNL     1      24.106   4.607  49.082  1.00  0.00     0.251 C 
HETATM    9  N3  UNL     1      25.460   4.836  48.934  1.00  0.00    -0.252 NA
HETATM   10  C17 UNL     1      26.609   4.319  49.336  1.00  0.00     0.232 C 
HETATM   11  N4  UNL     1      26.703   3.274  50.380  1.00  0.00    -0.224 NA
HETATM   12  C18 UNL     1      25.699   3.159  51.261  1.00  0.00     0.141 C 
ENDROOT
BRANCH   6  13
HETATM   13  C6  UNL     1      22.278   7.156  49.051  1.00  0.00    -0.003 C 
HETATM   14  C7  UNL     1      22.087   7.757  48.022  1.00  0.00    -0.066 C 
BRANCH  14  15
HETATM   15  C8  UNL     1      21.835   8.493  46.783  1.00  0.00     0.366 C 
BRANCH  15  16
HETATM   16  N2  UNL     1      22.974   8.385  45.923  1.00  0.00     0.099 N 
BRANCH  16  17
HETATM   17  C9  UNL     1      23.281   7.037  45.548  1.00  0.00     0.273 C 
BRANCH  17  18
HETATM   18  C10 UNL     1      22.276   6.416  44.624  1.00  0.00     0.026 C 
HETATM   19  C11 UNL     1      21.887   5.058  45.166  1.00  0.00     0.007 C 
ENDBRANCH  17  18
ENDBRANCH  16  17
BRANCH  16  20
HETATM   20  C12 UNL     1      24.110   9.126  46.351  1.00  0.00     0.273 C 
BRANCH  20  21
HETATM   21  C13 UNL     1      25.307   8.214  46.391  1.00  0.00     0.030 C 
BRANCH  21  22
HETATM   22  C14 UNL     1      25.896   8.213  47.808  1.00  0.00    -0.003 C 
HETATM   23  C15 UNL     1      25.366   9.422  48.531  1.00  0.00     0.005 C 
ENDBRANCH  21  22
ENDBRANCH  20  21
ENDBRANCH  16  20
ENDBRANCH  15  16
ENDBRANCH  14  15
ENDBRANCH   6  13
BRANCH  12  24
HETATM   24  N5  UNL     1      25.606   2.793  52.635  1.00  0.00    -0.340 N 
HETATM   25  H24 UNL     1      25.003   3.387  53.244  1.00  0.00     0.167 HD
BRANCH  24  26
HETATM   26  C19 UNL     1      26.434   1.639  52.767  1.00  0.00     0.035 A 
HETATM   27  C20 UNL     1      27.652   1.993  53.361  1.00  0.00     0.032 A 
HETATM   28  C21 UNL     1      28.633   1.052  53.605  1.00  0.00     0.046 A 
HETATM   29  C22 UNL     1      28.406  -0.262  53.254  1.00  0.00     0.138 A 
HETATM   30  F1  UNL     1      29.340  -1.226  53.474  1.00  0.00    -0.204 F 
HETATM   31  C23 UNL     1      27.218  -0.609  52.675  1.00  0.00     0.074 A 
HETATM   32 CL1  UNL     1      26.832  -2.260  52.191  1.00  0.00    -0.081 Cl
HETATM   33  C24 UNL     1      26.228   0.310  52.424  1.00  0.00     0.056 A 
ENDBRANCH  24  26
ENDBRANCH  12  24
TORSDOF 10
ENDMDL
MODEL 6
REMARK VINA RESULT:      -6.3      5.588      7.799
REMARK  10 active torsions:
REMARK  status: ('A' for Active; 'I' for Inactive)
REMARK       I    between atoms: N1_5  and  C5_6 
REMARK    1  A    between atoms: C5_6  and  C6_8 
REMARK    2  A    between atoms: C7_9  and  C8_10 
REMARK    3  A    between atoms: C8_10  and  N2_11 
REMARK    4  A    between atoms: N2_11  and  C9_12 
REMARK    5  A    between atoms: N2_11  and  C12_15 
REMARK    6  A    between atoms: C9_12  and  C10_13 
REMARK    7  A    between atoms: C12_15  and  C13_16 
REMARK    8  A    between atoms: C13_16  and  C14_17 
REMARK    9  A    between atoms: C18_23  and  N5_24 
REMARK   10  A    between atoms: N5_24  and  C19_25 
ROOT
HETATM    1  C1  UNL     1      21.341   0.755  49.288  1.00  0.00     0.024 C 
HETATM    2  C2  UNL     1      21.363   1.333  50.498  1.00  0.00    -0.008 C 
HETATM    3  C3  UNL     1      21.957   2.036  51.671  1.00  0.00     0.035 C 
HETATM    4  C4  UNL     1      22.045   1.187  52.745  1.00  0.00     0.113 C 
HETATM    5  N1  UNL     1      20.693   0.657  52.537  1.00  0.00    -0.288 N 
HETATM    6  C5  UNL     1      20.247  -0.429  53.396  1.00  0.00     0.304 C 
HETATM    7  O1  UNL     1      20.983  -0.898  54.284  1.00  0.00    -0.258 OA
HETATM    8  C16 UNL     1      20.175   1.465  51.423  1.00  0.00     0.251 C 
HETATM    9  N3  UNL     1      19.657   2.723  51.661  1.00  0.00    -0.252 NA
HETATM   10  C17 UNL     1      20.061   3.982  51.670  1.00  0.00     0.232 C 
HETATM   11  N4  UNL     1      21.486   4.373  51.573  1.00  0.00    -0.224 NA
HETATM   12  C18 UNL     1      22.419   3.483  51.939  1.00  0.00     0.141 C 
ENDROOT
BRANCH   6  13
HETATM   13  C6  UNL     1      18.915  -0.868  53.102  1.00  0.00    -0.003 C 
HETATM   14  C7  UNL     1      17.789  -1.240  52.876  1.00  0.00    -0.066 C 
BRANCH  14  15
HETATM   15  C8  UNL     1      16.421  -1.693  52.625  1.00  0.00     0.366 C 
BRANCH  15  16
HETATM   16  N2  UNL     1      15.683  -0.650  51.981  1.00  0.00     0.099 N 
BRANCH  16  17
HETATM   17  C9  UNL     1      14.837   0.086  52.874  1.00  0.00     0.273 C 
BRANCH  17  18
HETATM   18  C10 UNL     1      13.910   1.043  52.188  1.00  0.00     0.026 C 
HETATM   19  C11 UNL     1      14.459   2.445  52.331  1.00  0.00     0.007 C 
ENDBRANCH  17  18
ENDBRANCH  16  17
BRANCH  16  20
HETATM   20  C12 UNL     1      15.032  -1.042  50.779  1.00  0.00     0.273 C 
BRANCH  20  21
HETATM   21  C13 UNL     1      15.985  -0.875  49.626  1.00  0.00     0.030 C 
BRANCH  21  22
HETATM   22  C14 UNL     1      16.685   0.486  49.740  1.00  0.00    -0.003 C 
HETATM   23  C15 UNL     1      16.011   1.434  48.785  1.00  0.00     0.005 C 
ENDBRANCH  21  22
ENDBRANCH  20  21
ENDBRANCH  16  20
ENDBRANCH  15  16
ENDBRANCH  14  15
ENDBRANCH   6  13
BRANCH  12  24
HETATM   24  N5  UNL     1      23.706   3.570  52.545  1.00  0.00    -0.340 N 
HETATM   25  H24 UNL     1      23.755   3.423  53.577  1.00  0.00     0.167 HD
BRANCH  24  26
HETATM   26  C19 UNL     1      24.601   3.857  51.473  1.00  0.00     0.035 A 
HETATM   27  C20 UNL     1      25.544   2.828  51.353  1.00  0.00     0.032 A 
HETATM   28  C21 UNL     1      26.527   2.863  50.383  1.00  0.00     0.046 A 
HETATM   29  C22 UNL     1      26.578   3.934  49.517  1.00  0.00     0.138 A 
HETATM   30  F1  UNL     1      27.526   4.015  48.545  1.00  0.00    -0.204 F 
HETATM   31  C23 UNL     1      25.659   4.939  49.633  1.00  0.00     0.074 A 
HETATM   32 CL1  UNL     1      25.641   6.350  48.576  1.00  0.00    -0.081 Cl
HETATM   33  C24 UNL     1      24.674   4.925  50.589  1.00  0.00     0.056 A 
ENDBRANCH  24  26
ENDBRANCH  12  24
TORSDOF 10
ENDMDL
MODEL 7
REMARK VINA RESULT:      -6.2      1.869      2.277
REMARK  10 active torsions:
REMARK  status: ('A' for Active; 'I' for Inactive)
REMARK       I    between atoms: N1_5  and  C5_6 
REMARK    1  A    between atoms: C5_6  and  C6_8 
REMARK    2  A    between atoms: C7_9  and  C8_10 
REMARK    3  A    between atoms: C8_10  and  N2_11 
REMARK    4  A    between atoms: N2_11  and  C9_12 
REMARK    5  A    between atoms: N2_11  and  C12_15 
REMARK    6  A    between atoms: C9_12  and  C10_13 
REMARK    7  A    between atoms: C12_15  and  C13_16 
REMARK    8  A    between atoms: C13_16  and  C14_17 
REMARK    9  A    between atoms: C18_23  and  N5_24 
REMARK   10  A    between atoms: N5_24  and  C19_25 
ROOT
HETATM    1  C1  UNL     1      26.152   3.740  49.378  1.00  0.00     0.024 C 
HETATM    2  C2  UNL     1      24.851   3.582  49.662  1.00  0.00    -0.008 C 
HETATM    3  C3  UNL     1      23.623   2.865  50.112  1.00  0.00     0.035 C 
HETATM    4  C4  UNL     1      22.798   2.612  49.046  1.00  0.00     0.113 C 
HETATM    5  N1  UNL     1      22.966   3.960  48.494  1.00  0.00    -0.288 N 
HETATM    6  C5  UNL     1      22.342   4.254  47.213  1.00  0.00     0.304 C 
HETATM    7  O1  UNL     1      21.683   3.394  46.599  1.00  0.00    -0.258 OA
HETATM    8  C16 UNL     1      23.788   4.645  49.502  1.00  0.00     0.251 C 
HETATM    9  N3  UNL     1      23.200   5.170  50.636  1.00  0.00    -0.252 NA
HETATM   10  C17 UNL     1      22.942   4.811  51.882  1.00  0.00     0.232 C 
HETATM   11  N4  UNL     1      23.110   3.425  52.374  1.00  0.00    -0.224 NA
HETATM   12  C18 UNL     1      23.076   2.423  51.485  1.00  0.00     0.141 C 
ENDROOT
BRANCH   6  13
HETATM   13  C6  UNL     1      22.572   5.597  46.770  1.00  0.00    -0.003 C 
HETATM   14  C7  UNL     1      22.761   6.736  46.417  1.00  0.00    -0.066 C 
BRANCH  14  15
HETATM   15  C8  UNL     1      22.985   8.124  46.011  1.00  0.00     0.366 C 
BRANCH  15  16
HETATM   16  N2  UNL     1      23.799   8.782  46.987  1.00  0.00     0.099 N 
BRANCH  16  17
HETATM   17  C9  UNL     1      23.043   9.478  47.986  1.00  0.00     0.273 C 
BRANCH  17  18
HETATM   18  C10 UNL     1      23.046   8.813  49.329  1.00  0.00     0.026 C 
HETATM   19  C11 UNL     1      21.651   8.311  49.630  1.00  0.00     0.007 C 
ENDBRANCH  17  18
ENDBRANCH  16  17
BRANCH  16  20
HETATM   20  C12 UNL     1      24.865   9.551  46.445  1.00  0.00     0.273 C 
BRANCH  20  21
HETATM   21  C13 UNL     1      26.123   9.262  47.219  1.00  0.00     0.030 C 
BRANCH  21  22
HETATM   22  C14 UNL     1      26.349   7.745  47.271  1.00  0.00    -0.003 C 
HETATM   23  C15 UNL     1      26.644   7.370  48.699  1.00  0.00     0.005 C 
ENDBRANCH  21  22
ENDBRANCH  20  21
ENDBRANCH  16  20
ENDBRANCH  15  16
ENDBRANCH  14  15
ENDBRANCH   6  13
BRANCH  12  24
HETATM   24  N5  UNL     1      22.622   1.072  51.511  1.00  0.00    -0.340 N 
HETATM   25  H24 UNL     1      21.901   0.801  50.808  1.00  0.00     0.167 HD
BRANCH  24  26
HETATM   26  C19 UNL     1      23.347   0.459  52.576  1.00  0.00     0.035 A 
HETATM   27  C20 UNL     1      22.462  -0.224  53.421  1.00  0.00     0.032 A 
HETATM   28  C21 UNL     1      22.914  -0.909  54.532  1.00  0.00     0.046 A 
HETATM   29  C22 UNL     1      24.263  -0.918  54.812  1.00  0.00     0.138 A 
HETATM   30  F1  UNL     1      24.758  -1.578  55.894  1.00  0.00    -0.204 F 
HETATM   31  C23 UNL     1      25.128  -0.253  53.989  1.00  0.00     0.074 A 
HETATM   32 CL1  UNL     1      26.869  -0.205  54.262  1.00  0.00    -0.081 Cl
HETATM   33  C24 UNL     1      24.701   0.434  52.879  1.00  0.00     0.056 A 
ENDBRANCH  24  26
ENDBRANCH  12  24
TORSDOF 10
ENDMDL
MODEL 8
REMARK VINA RESULT:      -6.2      2.724      3.943
REMARK  10 active torsions:
REMARK  status: ('A' for Active; 'I' for Inactive)
REMARK       I    between atoms: N1_5  and  C5_6 
REMARK    1  A    between atoms: C5_6  and  C6_8 
REMARK    2  A    between atoms: C7_9  and  C8_10 
REMARK    3  A    between atoms: C8_10  and  N2_11 
REMARK    4  A    between atoms: N2_11  and  C9_12 
REMARK    5  A    between atoms: N2_11  and  C12_15 
REMARK    6  A    between atoms: C9_12  and  C10_13 
REMARK    7  A    between atoms: C12_15  and  C13_16 
REMARK    8  A    between atoms: C13_16  and  C14_17 
REMARK    9  A    between atoms: C18_23  and  N5_24 
REMARK   10  A    between atoms: N5_24  and  C19_25 
ROOT
HETATM    1  C1  UNL     1      26.545   3.764  49.564  1.00  0.00     0.024 C 
HETATM    2  C2  UNL     1      25.236   3.911  49.810  1.00  0.00    -0.008 C 
HETATM    3  C3  UNL     1      23.841   3.479  50.116  1.00  0.00     0.035 C 
HETATM    4  C4  UNL     1      23.035   3.649  49.020  1.00  0.00     0.113 C 
HETATM    5  N1  UNL     1      23.578   4.979  48.727  1.00  0.00    -0.288 N 
HETATM    6  C5  UNL     1      23.120   5.653  47.521  1.00  0.00     0.304 C 
HETATM    7  O1  UNL     1      22.292   5.123  46.757  1.00  0.00    -0.258 OA
HETATM    8  C16 UNL     1      24.497   5.229  49.847  1.00  0.00     0.251 C 
HETATM    9  N3  UNL     1      24.009   5.681  51.057  1.00  0.00    -0.252 NA
HETATM   10  C17 UNL     1      23.602   5.188  52.214  1.00  0.00     0.232 C 
HETATM   11  N4  UNL     1      23.375   3.743  52.441  1.00  0.00    -0.224 NA
HETATM   12  C18 UNL     1      23.127   2.961  51.381  1.00  0.00     0.141 C 
ENDROOT
BRANCH   6  13
HETATM   13  C6  UNL     1      23.717   6.942  47.336  1.00  0.00    -0.003 C 
HETATM   14  C7  UNL     1      24.209   8.036  47.198  1.00  0.00    -0.066 C 
BRANCH  14  15
HETATM   15  C8  UNL     1      24.795   9.368  47.051  1.00  0.00     0.366 C 
BRANCH  15  16
HETATM   16  N2  UNL     1      26.047   9.266  46.365  1.00  0.00     0.099 N 
BRANCH  16  17
HETATM   17  C9  UNL     1      27.168   9.108  47.243  1.00  0.00     0.273 C 
BRANCH  17  18
HETATM   18  C10 UNL     1      27.945   7.846  47.020  1.00  0.00     0.026 C 
HETATM   19  C11 UNL     1      27.733   6.925  48.201  1.00  0.00     0.007 C 
ENDBRANCH  17  18
ENDBRANCH  16  17
BRANCH  16  20
HETATM   20  C12 UNL     1      26.250  10.250  45.358  1.00  0.00     0.273 C 
BRANCH  20  21
HETATM   21  C13 UNL     1      26.755   9.578  44.109  1.00  0.00     0.030 C 
BRANCH  21  22
HETATM   22  C14 UNL     1      25.925   8.316  43.841  1.00  0.00    -0.003 C 
HETATM   23  C15 UNL     1      24.685   8.728  43.094  1.00  0.00     0.005 C 
ENDBRANCH  21  22
ENDBRANCH  20  21
ENDBRANCH  16  20
ENDBRANCH  15  16
ENDBRANCH  14  15
ENDBRANCH   6  13
BRANCH  12  24
HETATM   24  N5  UNL     1      22.335   1.798  51.156  1.00  0.00    -0.340 N 
HETATM   25  H24 UNL     1      21.712   1.804  50.319  1.00  0.00     0.167 HD
BRANCH  24  26
HETATM   26  C19 UNL     1      22.659   0.915  52.228  1.00  0.00     0.035 A 
HETATM   27  C20 UNL     1      21.485   0.460  52.841  1.00  0.00     0.032 A 
HETATM   28  C21 UNL     1      21.524  -0.413  53.910  1.00  0.00     0.046 A 
HETATM   29  C22 UNL     1      22.745  -0.845  54.380  1.00  0.00     0.138 A 
HETATM   30  F1  UNL     1      22.837  -1.705  55.430  1.00  0.00    -0.204 F 
HETATM   31  C23 UNL     1      23.893  -0.402  53.784  1.00  0.00     0.074 A 
HETATM   32 CL1  UNL     1      25.501  -0.894  54.312  1.00  0.00    -0.081 Cl
HETATM   33  C24 UNL     1      23.877   0.467  52.720  1.00  0.00     0.056 A 
ENDBRANCH  24  26
ENDBRANCH  12  24
TORSDOF 10
ENDMDL
MODEL 9
REMARK VINA RESULT:      -6.2      5.030      7.026
REMARK  10 active torsions:
REMARK  status: ('A' for Active; 'I' for Inactive)
REMARK       I    between atoms: N1_5  and  C5_6 
REMARK    1  A    between atoms: C5_6  and  C6_8 
REMARK    2  A    between atoms: C7_9  and  C8_10 
REMARK    3  A    between atoms: C8_10  and  N2_11 
REMARK    4  A    between atoms: N2_11  and  C9_12 
REMARK    5  A    between atoms: N2_11  and  C12_15 
REMARK    6  A    between atoms: C9_12  and  C10_13 
REMARK    7  A    between atoms: C12_15  and  C13_16 
REMARK    8  A    between atoms: C13_16  and  C14_17 
REMARK    9  A    between atoms: C18_23  and  N5_24 
REMARK   10  A    between atoms: N5_24  and  C19_25 
ROOT
HETATM    1  C1  UNL     1      24.636   7.289  47.061  1.00  0.00     0.024 C 
HETATM    2  C2  UNL     1      25.242   6.902  48.192  1.00  0.00    -0.008 C 
HETATM    3  C3  UNL     1      25.339   6.387  49.589  1.00  0.00     0.035 C 
HETATM    4  C4  UNL     1      25.721   7.389  50.444  1.00  0.00     0.113 C 
HETATM    5  N1  UNL     1      26.763   7.876  49.534  1.00  0.00    -0.288 N 
HETATM    6  C5  UNL     1      27.491   9.078  49.911  1.00  0.00     0.304 C 
HETATM    7  O1  UNL     1      27.243   9.680  50.973  1.00  0.00    -0.258 OA
HETATM    8  C16 UNL     1      26.735   6.907  48.429  1.00  0.00     0.251 C 
HETATM    9  N3  UNL     1      27.391   5.698  48.550  1.00  0.00    -0.252 NA
HETATM   10  C17 UNL     1      27.130   4.456  48.923  1.00  0.00     0.232 C 
HETATM   11  N4  UNL     1      25.868   4.060  49.587  1.00  0.00    -0.224 NA
HETATM   12  C18 UNL     1      25.168   4.999  50.240  1.00  0.00     0.141 C 
ENDROOT
BRANCH   6  13
HETATM   13  C6  UNL     1      28.480   9.462  48.949  1.00  0.00    -0.003 C 
HETATM   14  C7  UNL     1      29.329   9.775  48.150  1.00  0.00    -0.066 C 
BRANCH  14  15
HETATM   15  C8  UNL     1      30.374  10.141  47.193  1.00  0.00     0.366 C 
BRANCH  15  16
HETATM   16  N2  UNL     1      30.247  11.525  46.853  1.00  0.00     0.099 N 
BRANCH  16  17
HETATM   17  C9  UNL     1      31.073  11.921  45.752  1.00  0.00     0.273 C 
BRANCH  17  18
HETATM   18  C10 UNL     1      32.542  11.756  46.000  1.00  0.00     0.026 C 
HETATM   19  C11 UNL     1      33.215  11.354  44.706  1.00  0.00     0.007 C 
ENDBRANCH  17  18
ENDBRANCH  16  17
BRANCH  16  20
HETATM   20  C12 UNL     1      30.315  12.414  47.961  1.00  0.00     0.273 C 
BRANCH  20  21
HETATM   21  C13 UNL     1      29.272  13.487  47.797  1.00  0.00     0.030 C 
BRANCH  21  22
HETATM   22  C14 UNL     1      28.159  13.275  48.832  1.00  0.00    -0.003 C 
HETATM   23  C15 UNL     1      26.945  12.759  48.107  1.00  0.00     0.005 C 
ENDBRANCH  21  22
ENDBRANCH  20  21
ENDBRANCH  16  20
ENDBRANCH  15  16
ENDBRANCH  14  15
ENDBRANCH   6  13
BRANCH  12  24
HETATM   24  N5  UNL     1      24.343   5.010  51.402  1.00  0.00    -0.340 N 
HETATM   25  H24 UNL     1      24.262   5.913  51.916  1.00  0.00     0.167 HD
BRANCH  24  26
HETATM   26  C19 UNL     1      23.847   3.678  51.516  1.00  0.00     0.035 A 
HETATM   27  C20 UNL     1      24.355   3.079  52.676  1.00  0.00     0.032 A 
HETATM   28  C21 UNL     1      24.022   1.783  53.021  1.00  0.00     0.046 A 
HETATM   29  C22 UNL     1      23.173   1.068  52.204  1.00  0.00     0.138 A 
HETATM   30  F1  UNL     1      22.815  -0.211  52.500  1.00  0.00    -0.204 F 
HETATM   31  C23 UNL     1      22.676   1.650  51.072  1.00  0.00     0.074 A 
HETATM   32 CL1  UNL     1      21.585   0.819  49.964  1.00  0.00    -0.081 Cl
HETATM   33  C24 UNL     1      22.993   2.937  50.710  1.00  0.00     0.056 A 
ENDBRANCH  24  26
ENDBRANCH  12  24
TORSDOF 10
ENDMDL
