MODEL 1
REMARK VINA RESULT:      -8.0      0.000      0.000
REMARK  5 active torsions:
REMARK  status: ('A' for Active; 'I' for Inactive)
REMARK    1  A    between atoms: P1_3  and  C3_4 
REMARK    2  A    between atoms: C8_11  and  O1_12 
REMARK    3  A    between atoms: N1_14  and  C10_15 
REMARK    4  A    between atoms: C10_15  and  N2_17 
REMARK    5  A    between atoms: N2_17  and  C11_18 
ROOT
HETATM    1  C1  UNL     1      29.113   0.709  53.964  1.00  0.00     0.102 C 
HETATM    2  C2  UNL     1      27.834   1.124  53.660  1.00  0.00    -0.155 C 
HETATM    3  P1  UNL     1      26.709   1.511  53.400  1.00  0.00    -0.029 P 
HETATM    4  H4  UNL     1      26.310   1.640  53.311  1.00  0.00     0.074 HD
ENDROOT
BRANCH   3   5
HETATM    5  C3  UNL     1      24.565   2.292  52.899  1.00  0.00    -0.016 C 
HETATM    6  C4  UNL     1      23.602   1.480  53.015  1.00  0.00     0.002 C 
HETATM    7  C5  UNL     1      23.425   0.101  53.398  1.00  0.00     0.045 C 
HETATM    8  C9  UNL     1      22.656   2.488  52.505  1.00  0.00     0.181 C 
HETATM    9 CL1  UNL     1      24.712  -0.827  54.111  1.00  0.00    -0.084 Cl
HETATM   10  C6  UNL     1      22.213  -0.347  53.145  1.00  0.00     0.051 C 
HETATM   11  C7  UNL     1      21.201   0.522  52.556  1.00  0.00     0.067 C 
HETATM   12 CL2  UNL     1      19.583  -0.029  52.180  1.00  0.00    -0.082 Cl
HETATM   13  C8  UNL     1      21.366   1.808  52.237  1.00  0.00     0.092 C 
HETATM   14  N1  UNL     1      23.272   3.139  51.412  1.00  0.00    -0.339 N 
HETATM   15  C17 UNL     1      24.339   3.638  52.337  1.00  0.00     0.167 C 
BRANCH  13  16
HETATM   16  O1  UNL     1      20.537   2.754  51.674  1.00  0.00    -0.361 OA
HETATM   17  H6  UNL     1      20.478   2.911  50.675  1.00  0.00     0.217 HD
ENDBRANCH  13  16
BRANCH  14  18
HETATM   18  C10 UNL     1      23.309   3.477  50.037  1.00  0.00     0.175 C 
HETATM   19  S1  UNL     1      22.730   2.519  48.863  1.00  0.00    -0.041 SA
BRANCH  18  20
HETATM   20  N2  UNL     1      23.853   4.690  49.516  1.00  0.00    -0.333 N 
HETATM   21  H8  UNL     1      23.452   5.637  49.268  1.00  0.00     0.168 HD
BRANCH  20  22
HETATM   22  C11 UNL     1      25.220   4.975  49.157  1.00  0.00     0.034 A 
HETATM   23  C12 UNL     1      26.321   4.151  49.238  1.00  0.00     0.029 A 
HETATM   24  C13 UNL     1      27.552   4.635  48.846  1.00  0.00     0.002 A 
HETATM   25  C14 UNL     1      27.682   5.924  48.381  1.00  0.00     0.000 A 
HETATM   26  C15 UNL     1      26.603   6.784  48.285  1.00  0.00     0.002 A 
HETATM   27  C16 UNL     1      25.361   6.281  48.684  1.00  0.00     0.029 A 
ENDBRANCH  20  22
ENDBRANCH  18  20
ENDBRANCH  14  18
ENDBRANCH   3   5
TORSDOF 5
ENDMDL
MODEL 2
REMARK VINA RESULT:      -8.0      2.614      4.439
REMARK  5 active torsions:
REMARK  status: ('A' for Active; 'I' for Inactive)
REMARK    1  A    between atoms: P1_3  and  C3_4 
REMARK    2  A    between atoms: C8_11  and  O1_12 
REMARK    3  A    between atoms: N1_14  and  C10_15 
REMARK    4  A    between atoms: C10_15  and  N2_17 
REMARK    5  A    between atoms: N2_17  and  C11_18 
ROOT
HETATM    1  C1  UNL     1      18.816  -0.630  53.015  1.00  0.00     0.102 C 
HETATM    2  C2  UNL     1      19.997  -0.078  52.563  1.00  0.00    -0.155 C 
HETATM    3  P1  UNL     1      21.037   0.424  52.180  1.00  0.00    -0.029 P 
HETATM    4  H4  UNL     1      21.401   0.601  52.038  1.00  0.00     0.074 HD
ENDROOT
BRANCH   3   5
HETATM    5  C3  UNL     1      23.040   1.406  51.483  1.00  0.00    -0.016 C 
HETATM    6  C4  UNL     1      24.076   1.178  52.172  1.00  0.00     0.002 C 
HETATM    7  C5  UNL     1      24.412   0.428  53.356  1.00  0.00     0.045 C 
HETATM    8  C9  UNL     1      24.871   2.083  51.322  1.00  0.00     0.181 C 
HETATM    9 CL1  UNL     1      23.294  -0.688  54.085  1.00  0.00    -0.084 Cl
HETATM   10  C6  UNL     1      25.624   0.689  53.799  1.00  0.00     0.051 C 
HETATM   11  C7  UNL     1      26.488   1.635  53.103  1.00  0.00     0.067 C 
HETATM   12 CL2  UNL     1      28.098   2.034  53.661  1.00  0.00    -0.082 Cl
HETATM   13  C8  UNL     1      26.179   2.299  51.986  1.00  0.00     0.092 C 
HETATM   14  N1  UNL     1      24.088   3.231  51.068  1.00  0.00    -0.339 N 
HETATM   15  C17 UNL     1      23.087   2.367  50.364  1.00  0.00     0.167 C 
BRANCH  13  16
HETATM   16  O1  UNL     1      26.858   3.219  51.218  1.00  0.00    -0.361 OA
HETATM   17  H6  UNL     1      27.424   2.960  50.419  1.00  0.00     0.217 HD
ENDBRANCH  13  16
BRANCH  14  18
HETATM   18  C10 UNL     1      23.874   4.627  51.170  1.00  0.00     0.175 C 
HETATM   19  S1  UNL     1      22.404   5.304  51.279  1.00  0.00    -0.041 SA
BRANCH  18  20
HETATM   20  N2  UNL     1      24.914   5.605  51.192  1.00  0.00    -0.333 N 
HETATM   21  H8  UNL     1      25.580   5.965  51.932  1.00  0.00     0.168 HD
BRANCH  20  22
HETATM   22  C11 UNL     1      25.380   6.440  50.112  1.00  0.00     0.034 A 
HETATM   23  C12 UNL     1      25.975   6.064  48.928  1.00  0.00     0.029 A 
HETATM   24  C13 UNL     1      26.356   7.037  48.028  1.00  0.00     0.002 A 
HETATM   25  C14 UNL     1      26.147   8.369  48.308  1.00  0.00     0.000 A 
HETATM   26  C15 UNL     1      25.553   8.789  49.485  1.00  0.00     0.002 A 
HETATM   27  C16 UNL     1      25.171   7.793  50.387  1.00  0.00     0.029 A 
ENDBRANCH  20  22
ENDBRANCH  18  20
ENDBRANCH  14  18
ENDBRANCH   3   5
TORSDOF 5
ENDMDL
MODEL 3
REMARK VINA RESULT:      -7.9      3.623      6.717
REMARK  5 active torsions:
REMARK  status: ('A' for Active; 'I' for Inactive)
REMARK    1  A    between atoms: P1_3  and  C3_4 
REMARK    2  A    between atoms: C8_11  and  O1_12 
REMARK    3  A    between atoms: N1_14  and  C10_15 
REMARK    4  A    between atoms: C10_15  and  N2_17 
REMARK    5  A    between atoms: N2_17  and  C11_18 
ROOT
HETATM    1  C1  UNL     1      17.313   0.156  50.011  1.00  0.00     0.102 C 
HETATM    2  C2  UNL     1      18.518   0.605  50.510  1.00  0.00    -0.155 C 
HETATM    3  P1  UNL     1      19.576   0.992  50.970  1.00  0.00    -0.029 P 
HETATM    4  H4  UNL     1      19.947   1.136  51.129  1.00  0.00     0.074 HD
ENDROOT
BRANCH   3   5
HETATM    5  C3  UNL     1      21.606   1.704  51.882  1.00  0.00    -0.016 C 
HETATM    6  C4  UNL     1      22.450   2.227  51.097  1.00  0.00     0.002 C 
HETATM    7  C5  UNL     1      22.533   2.540  49.693  1.00  0.00     0.045 C 
HETATM    8  C9  UNL     1      23.432   2.344  52.191  1.00  0.00     0.181 C 
HETATM    9 CL1  UNL     1      21.149   2.432  48.644  1.00  0.00    -0.084 Cl
HETATM   10  C6  UNL     1      23.743   2.900  49.321  1.00  0.00     0.051 C 
HETATM   11  C7  UNL     1      24.833   2.971  50.286  1.00  0.00     0.067 C 
HETATM   12 CL2  UNL     1      26.465   3.423  49.840  1.00  0.00    -0.082 Cl
HETATM   13  C8  UNL     1      24.737   2.712  51.593  1.00  0.00     0.092 C 
HETATM   14  N1  UNL     1      23.388   1.143  52.935  1.00  0.00    -0.339 N 
HETATM   15  C17 UNL     1      21.963   1.439  53.289  1.00  0.00     0.167 C 
BRANCH  13  16
HETATM   16  O1  UNL     1      25.650   2.719  52.625  1.00  0.00    -0.361 OA
HETATM   17  H6  UNL     1      26.193   3.538  52.876  1.00  0.00     0.217 HD
ENDBRANCH  13  16
BRANCH  14  18
HETATM   18  C10 UNL     1      24.012  -0.032  53.421  1.00  0.00     0.175 C 
HETATM   19  S1  UNL     1      23.386  -0.959  54.596  1.00  0.00    -0.041 SA
BRANCH  18  20
HETATM   20  N2  UNL     1      25.255  -0.545  52.942  1.00  0.00    -0.333 N 
HETATM   21  H8  UNL     1      25.549  -1.114  52.100  1.00  0.00     0.168 HD
BRANCH  20  22
HETATM   22  C11 UNL     1      26.564  -0.410  53.532  1.00  0.00     0.034 A 
HETATM   23  C12 UNL     1      26.943   0.336  54.626  1.00  0.00     0.029 A 
HETATM   24  C13 UNL     1      28.266   0.330  55.019  1.00  0.00     0.002 A 
HETATM   25  C14 UNL     1      29.198  -0.411  54.327  1.00  0.00     0.000 A 
HETATM   26  C15 UNL     1      28.860  -1.173  53.224  1.00  0.00     0.002 A 
HETATM   27  C16 UNL     1      27.517  -1.159  52.837  1.00  0.00     0.029 A 
ENDBRANCH  20  22
ENDBRANCH  18  20
ENDBRANCH  14  18
ENDBRANCH   3   5
TORSDOF 5
ENDMDL
MODEL 4
REMARK VINA RESULT:      -7.9      2.781      5.257
REMARK  5 active torsions:
REMARK  status: ('A' for Active; 'I' for Inactive)
REMARK    1  A    between atoms: P1_3  and  C3_4 
REMARK    2  A    between atoms: C8_11  and  O1_12 
REMARK    3  A    between atoms: N1_14  and  C10_15 
REMARK    4  A    between atoms: C10_15  and  N2_17 
REMARK    5  A    between atoms: N2_17  and  C11_18 
ROOT
HETATM    1  C1  UNL     1      21.585  -1.889  54.535  1.00  0.00     0.102 C 
HETATM    2  C2  UNL     1      21.958  -0.760  53.836  1.00  0.00    -0.155 C 
HETATM    3  P1  UNL     1      22.283   0.248  53.236  1.00  0.00    -0.029 P 
HETATM    4  H4  UNL     1      22.393   0.600  53.019  1.00  0.00     0.074 HD
ENDROOT
BRANCH   3   5
HETATM    5  C3  UNL     1      22.913   2.203  52.122  1.00  0.00    -0.016 C 
HETATM    6  C4  UNL     1      22.396   2.425  50.988  1.00  0.00     0.002 C 
HETATM    7  C5  UNL     1      21.454   1.773  50.112  1.00  0.00     0.045 C 
HETATM    8  C9  UNL     1      23.216   3.639  50.824  1.00  0.00     0.181 C 
HETATM    9 CL1  UNL     1      20.510   0.407  50.630  1.00  0.00    -0.084 Cl
HETATM   10  C6  UNL     1      21.406   2.322  48.916  1.00  0.00     0.051 C 
HETATM   11  C7  UNL     1      22.234   3.476  48.588  1.00  0.00     0.067 C 
HETATM   12 CL2  UNL     1      22.225   4.230  47.009  1.00  0.00    -0.082 Cl
HETATM   13  C8  UNL     1      23.078   4.094  49.420  1.00  0.00     0.092 C 
HETATM   14  N1  UNL     1      24.522   3.337  51.270  1.00  0.00    -0.339 N 
HETATM   15  C17 UNL     1      23.973   3.088  52.642  1.00  0.00     0.167 C 
BRANCH  13  16
HETATM   16  O1  UNL     1      23.927   5.169  49.274  1.00  0.00    -0.361 OA
HETATM   17  H6  UNL     1      24.285   5.700  50.060  1.00  0.00     0.217 HD
ENDBRANCH  13  16
BRANCH  14  18
HETATM   18  C10 UNL     1      25.909   3.195  51.024  1.00  0.00     0.175 C 
HETATM   19  S1  UNL     1      26.572   3.298  49.547  1.00  0.00    -0.041 SA
BRANCH  18  20
HETATM   20  N2  UNL     1      26.889   2.950  52.033  1.00  0.00    -0.333 N 
HETATM   21  H8  UNL     1      27.485   3.565  52.655  1.00  0.00     0.168 HD
BRANCH  20  22
HETATM   22  C11 UNL     1      27.374   1.682  52.519  1.00  0.00     0.034 A 
HETATM   23  C12 UNL     1      26.885   0.419  52.265  1.00  0.00     0.029 A 
HETATM   24  C13 UNL     1      27.501  -0.669  52.848  1.00  0.00     0.002 A 
HETATM   25  C14 UNL     1      28.589  -0.499  53.675  1.00  0.00     0.000 A 
HETATM   26  C15 UNL     1      29.110   0.751  53.956  1.00  0.00     0.002 A 
HETATM   27  C16 UNL     1      28.478   1.845  53.358  1.00  0.00     0.029 A 
ENDBRANCH  20  22
ENDBRANCH  18  20
ENDBRANCH  14  18
ENDBRANCH   3   5
TORSDOF 5
ENDMDL
MODEL 5
REMARK VINA RESULT:      -7.8      1.329      1.422
REMARK  5 active torsions:
REMARK  status: ('A' for Active; 'I' for Inactive)
REMARK    1  A    between atoms: P1_3  and  C3_4 
REMARK    2  A    between atoms: C8_11  and  O1_12 
REMARK    3  A    between atoms: N1_14  and  C10_15 
REMARK    4  A    between atoms: C10_15  and  N2_17 
REMARK    5  A    between atoms: N2_17  and  C11_18 
ROOT
HETATM    1  C1  UNL     1      28.268   0.980  53.260  1.00  0.00     0.102 C 
HETATM    2  C2  UNL     1      27.005   1.529  53.184  1.00  0.00    -0.155 C 
HETATM    3  P1  UNL     1      25.886   2.000  53.100  1.00  0.00    -0.029 P 
HETATM    4  H4  UNL     1      25.495   2.173  53.071  1.00  0.00     0.074 HD
ENDROOT
BRANCH   3   5
HETATM    5  C3  UNL     1      23.723   2.867  52.923  1.00  0.00    -0.016 C 
HETATM    6  C4  UNL     1      22.768   2.044  52.817  1.00  0.00     0.002 C 
HETATM    7  C5  UNL     1      22.609   0.612  52.771  1.00  0.00     0.045 C 
HETATM    8  C9  UNL     1      21.802   3.147  52.664  1.00  0.00     0.181 C 
HETATM    9 CL1  UNL     1      23.922  -0.470  53.132  1.00  0.00    -0.084 Cl
HETATM   10  C6  UNL     1      21.391   0.245  52.431  1.00  0.00     0.051 C 
HETATM   11  C7  UNL     1      20.357   1.237  52.162  1.00  0.00     0.067 C 
HETATM   12 CL2  UNL     1      18.730   0.803  51.686  1.00  0.00    -0.082 Cl
HETATM   13  C8  UNL     1      20.507   2.562  52.242  1.00  0.00     0.092 C 
HETATM   14  N1  UNL     1      22.379   4.105  51.801  1.00  0.00    -0.339 N 
HETATM   15  C17 UNL     1      23.474   4.317  52.801  1.00  0.00     0.167 C 
BRANCH  13  16
HETATM   16  O1  UNL     1      19.656   3.622  52.016  1.00  0.00    -0.361 OA
HETATM   17  H6  UNL     1      19.827   4.553  52.378  1.00  0.00     0.217 HD
ENDBRANCH  13  16
BRANCH  14  18
HETATM   18  C10 UNL     1      22.370   4.842  50.591  1.00  0.00     0.175 C 
HETATM   19  S1  UNL     1      21.480   6.179  50.363  1.00  0.00    -0.041 SA
BRANCH  18  20
HETATM   20  N2  UNL     1      23.136   4.507  49.434  1.00  0.00    -0.333 N 
HETATM   21  H8  UNL     1      22.899   4.223  48.443  1.00  0.00     0.168 HD
BRANCH  20  22
HETATM   22  C11 UNL     1      24.571   4.463  49.294  1.00  0.00     0.034 A 
HETATM   23  C12 UNL     1      25.428   3.412  49.533  1.00  0.00     0.029 A 
HETATM   24  C13 UNL     1      26.782   3.591  49.342  1.00  0.00     0.002 A 
HETATM   25  C14 UNL     1      27.275   4.806  48.920  1.00  0.00     0.000 A 
HETATM   26  C15 UNL     1      26.449   5.887  48.669  1.00  0.00     0.002 A 
HETATM   27  C16 UNL     1      25.080   5.691  48.865  1.00  0.00     0.029 A 
ENDBRANCH  20  22
ENDBRANCH  18  20
ENDBRANCH  14  18
ENDBRANCH   3   5
TORSDOF 5
ENDMDL
MODEL 6
REMARK VINA RESULT:      -7.8      4.600      6.752
REMARK  5 active torsions:
REMARK  status: ('A' for Active; 'I' for Inactive)
REMARK    1  A    between atoms: P1_3  and  C3_4 
REMARK    2  A    between atoms: C8_11  and  O1_12 
REMARK    3  A    between atoms: N1_14  and  C10_15 
REMARK    4  A    between atoms: C10_15  and  N2_17 
REMARK    5  A    between atoms: N2_17  and  C11_18 
ROOT
HETATM    1  C1  UNL     1      16.583  -3.463  53.465  1.00  0.00     0.102 C 
HETATM    2  C2  UNL     1      17.613  -2.546  53.462  1.00  0.00    -0.155 C 
HETATM    3  P1  UNL     1      18.511  -1.724  53.473  1.00  0.00    -0.029 P 
HETATM    4  H4  UNL     1      18.827  -1.435  53.469  1.00  0.00     0.074 HD
ENDROOT
BRANCH   3   5
HETATM    5  C3  UNL     1      20.219  -0.131  53.532  1.00  0.00    -0.016 C 
HETATM    6  C4  UNL     1      20.437   0.535  52.477  1.00  0.00     0.002 C 
HETATM    7  C5  UNL     1      19.896   0.605  51.143  1.00  0.00     0.045 C 
HETATM    8  C9  UNL     1      21.582   1.212  53.112  1.00  0.00     0.181 C 
HETATM    9 CL1  UNL     1      18.426  -0.214  50.703  1.00  0.00    -0.084 Cl
HETATM   10  C6  UNL     1      20.631   1.337  50.333  1.00  0.00     0.051 C 
HETATM   11  C7  UNL     1      21.843   1.993  50.808  1.00  0.00     0.067 C 
HETATM   12 CL2  UNL     1      22.867   2.959  49.768  1.00  0.00    -0.082 Cl
HETATM   13  C8  UNL     1      22.317   1.950  52.056  1.00  0.00     0.092 C 
HETATM   14  N1  UNL     1      22.310   0.239  53.833  1.00  0.00    -0.339 N 
HETATM   15  C17 UNL     1      21.110   0.013  54.700  1.00  0.00     0.167 C 
BRANCH  13  16
HETATM   16  O1  UNL     1      23.429   2.491  52.662  1.00  0.00    -0.361 OA
HETATM   17  H6  UNL     1      23.375   3.214  53.371  1.00  0.00     0.217 HD
ENDBRANCH  13  16
BRANCH  14  18
HETATM   18  C10 UNL     1      23.499  -0.496  54.061  1.00  0.00     0.175 C 
HETATM   19  S1  UNL     1      23.722  -1.465  55.343  1.00  0.00    -0.041 SA
BRANCH  18  20
HETATM   20  N2  UNL     1      24.637  -0.480  53.199  1.00  0.00    -0.333 N 
HETATM   21  H8  UNL     1      24.776  -0.525  52.151  1.00  0.00     0.168 HD
BRANCH  20  22
HETATM   22  C11 UNL     1      26.030  -0.389  53.560  1.00  0.00     0.034 A 
HETATM   23  C12 UNL     1      26.631   0.456  54.467  1.00  0.00     0.029 A 
HETATM   24  C13 UNL     1      27.996   0.382  54.653  1.00  0.00     0.002 A 
HETATM   25  C14 UNL     1      28.751  -0.524  53.942  1.00  0.00     0.000 A 
HETATM   26  C15 UNL     1      28.188  -1.390  53.023  1.00  0.00     0.002 A 
HETATM   27  C16 UNL     1      26.804  -1.305  52.844  1.00  0.00     0.029 A 
ENDBRANCH  20  22
ENDBRANCH  18  20
ENDBRANCH  14  18
ENDBRANCH   3   5
TORSDOF 5
ENDMDL
MODEL 7
REMARK VINA RESULT:      -7.5      3.024      4.621
REMARK  5 active torsions:
REMARK  status: ('A' for Active; 'I' for Inactive)
REMARK    1  A    between atoms: P1_3  and  C3_4 
REMARK    2  A    between atoms: C8_11  and  O1_12 
REMARK    3  A    between atoms: N1_14  and  C10_15 
REMARK    4  A    between atoms: C10_15  and  N2_17 
REMARK    5  A    between atoms: N2_17  and  C11_18 
ROOT
HETATM    1  C1  UNL     1      25.519   5.095  49.348  1.00  0.00     0.102 C 
HETATM    2  C2  UNL     1      24.531   4.466  50.077  1.00  0.00    -0.155 C 
HETATM    3  P1  UNL     1      23.673   3.893  50.722  1.00  0.00    -0.029 P 
HETATM    4  H4  UNL     1      23.365   3.693  50.944  1.00  0.00     0.074 HD
ENDROOT
BRANCH   3   5
HETATM    5  C3  UNL     1      22.055   2.770  51.979  1.00  0.00    -0.016 C 
HETATM    6  C4  UNL     1      22.408   1.717  52.585  1.00  0.00     0.002 C 
HETATM    7  C5  UNL     1      23.616   0.945  52.741  1.00  0.00     0.045 C 
HETATM    8  C9  UNL     1      21.028   1.489  53.048  1.00  0.00     0.181 C 
HETATM    9 CL1  UNL     1      25.160   1.534  52.200  1.00  0.00    -0.084 Cl
HETATM   10  C6  UNL     1      23.406  -0.218  53.321  1.00  0.00     0.051 C 
HETATM   11  C7  UNL     1      22.069  -0.611  53.750  1.00  0.00     0.067 C 
HETATM   12 CL2  UNL     1      21.732  -2.153  54.506  1.00  0.00    -0.082 Cl
HETATM   13  C8  UNL     1      20.962   0.128  53.632  1.00  0.00     0.092 C 
HETATM   14  N1  UNL     1      20.162   1.761  51.965  1.00  0.00    -0.339 N 
HETATM   15  C17 UNL     1      20.637   3.181  51.968  1.00  0.00     0.167 C 
BRANCH  13  16
HETATM   16  O1  UNL     1      19.644  -0.089  53.966  1.00  0.00    -0.361 OA
HETATM   17  H6  UNL     1      19.233   0.241  54.832  1.00  0.00     0.217 HD
ENDBRANCH  13  16
BRANCH  14  18
HETATM   18  C10 UNL     1      19.188   1.339  51.027  1.00  0.00     0.175 C 
HETATM   19  S1  UNL     1      17.628   1.095  51.403  1.00  0.00    -0.041 SA
BRANCH  18  20
HETATM   20  N2  UNL     1      19.451   1.081  49.648  1.00  0.00    -0.333 N 
HETATM   21  H8  UNL     1      19.040   0.430  48.923  1.00  0.00     0.168 HD
BRANCH  20  22
HETATM   22  C11 UNL     1      20.437   1.697  48.795  1.00  0.00     0.034 A 
HETATM   23  C12 UNL     1      21.716   1.271  48.510  1.00  0.00     0.029 A 
HETATM   24  C13 UNL     1      22.504   2.027  47.667  1.00  0.00     0.002 A 
HETATM   25  C14 UNL     1      22.022   3.193  47.117  1.00  0.00     0.000 A 
HETATM   26  C15 UNL     1      20.745   3.657  47.377  1.00  0.00     0.002 A 
HETATM   27  C16 UNL     1      19.957   2.881  48.233  1.00  0.00     0.029 A 
ENDBRANCH  20  22
ENDBRANCH  18  20
ENDBRANCH  14  18
ENDBRANCH   3   5
TORSDOF 5
ENDMDL
MODEL 8
REMARK VINA RESULT:      -7.4      3.259      5.637
REMARK  5 active torsions:
REMARK  status: ('A' for Active; 'I' for Inactive)
REMARK    1  A    between atoms: P1_3  and  C3_4 
REMARK    2  A    between atoms: C8_11  and  O1_12 
REMARK    3  A    between atoms: N1_14  and  C10_15 
REMARK    4  A    between atoms: C10_15  and  N2_17 
REMARK    5  A    between atoms: N2_17  and  C11_18 
ROOT
HETATM    1  C1  UNL     1      23.808   6.486  48.146  1.00  0.00     0.102 C 
HETATM    2  C2  UNL     1      23.809   5.539  49.148  1.00  0.00    -0.155 C 
HETATM    3  P1  UNL     1      23.789   4.701  50.031  1.00  0.00    -0.029 P 
HETATM    4  H4  UNL     1      23.786   4.411  50.346  1.00  0.00     0.074 HD
ENDROOT
BRANCH   3   5
HETATM    5  C3  UNL     1      23.713   3.078  51.710  1.00  0.00    -0.016 C 
HETATM    6  C4  UNL     1      24.720   2.323  51.843  1.00  0.00     0.002 C 
HETATM    7  C5  UNL     1      26.006   2.159  51.211  1.00  0.00     0.045 C 
HETATM    8  C9  UNL     1      24.037   1.555  52.899  1.00  0.00     0.181 C 
HETATM    9 CL1  UNL     1      26.625   3.318  50.071  1.00  0.00    -0.084 Cl
HETATM   10  C6  UNL     1      26.624   1.060  51.592  1.00  0.00     0.051 C 
HETATM   11  C7  UNL     1      26.020   0.160  52.567  1.00  0.00     0.067 C 
HETATM   12 CL2  UNL     1      26.789  -1.322  53.090  1.00  0.00    -0.082 Cl
HETATM   13  C8  UNL     1      24.843   0.341  53.172  1.00  0.00     0.092 C 
HETATM   14  N1  UNL     1      22.701   1.354  52.486  1.00  0.00    -0.339 N 
HETATM   15  C17 UNL     1      22.493   2.837  52.505  1.00  0.00     0.167 C 
BRANCH  13  16
HETATM   16  O1  UNL     1      24.132  -0.400  54.091  1.00  0.00    -0.361 OA
HETATM   17  H6  UNL     1      23.120  -0.446  54.097  1.00  0.00     0.217 HD
ENDBRANCH  13  16
BRANCH  14  18
HETATM   18  C10 UNL     1      21.637   0.492  52.125  1.00  0.00     0.175 C 
HETATM   19  S1  UNL     1      20.698  -0.274  53.204  1.00  0.00    -0.041 SA
BRANCH  18  20
HETATM   20  N2  UNL     1      21.258   0.194  50.781  1.00  0.00    -0.333 N 
HETATM   21  H8  UNL     1      21.033  -0.694  50.253  1.00  0.00     0.168 HD
BRANCH  20  22
HETATM   22  C11 UNL     1      21.062   1.109  49.684  1.00  0.00     0.034 A 
HETATM   23  C12 UNL     1      21.962   1.497  48.715  1.00  0.00     0.029 A 
HETATM   24  C13 UNL     1      21.564   2.402  47.753  1.00  0.00     0.002 A 
HETATM   25  C14 UNL     1      20.286   2.914  47.758  1.00  0.00     0.000 A 
HETATM   26  C15 UNL     1      19.352   2.551  48.712  1.00  0.00     0.002 A 
HETATM   27  C16 UNL     1      19.768   1.633  49.681  1.00  0.00     0.029 A 
ENDBRANCH  20  22
ENDBRANCH  18  20
ENDBRANCH  14  18
ENDBRANCH   3   5
TORSDOF 5
ENDMDL
MODEL 9
REMARK VINA RESULT:      -7.3      3.617      5.869
REMARK  5 active torsions:
REMARK  status: ('A' for Active; 'I' for Inactive)
REMARK    1  A    between atoms: P1_3  and  C3_4 
REMARK    2  A    between atoms: C8_11  and  O1_12 
REMARK    3  A    between atoms: N1_14  and  C10_15 
REMARK    4  A    between atoms: C10_15  and  N2_17 
REMARK    5  A    between atoms: N2_17  and  C11_18 
ROOT
HETATM    1  C1  UNL     1      18.284   3.884  47.156  1.00  0.00     0.102 C 
HETATM    2  C2  UNL     1      19.172   3.255  48.003  1.00  0.00    -0.155 C 
HETATM    3  P1  UNL     1      19.969   2.698  48.734  1.00  0.00    -0.029 P 
HETATM    4  H4  UNL     1      20.244   2.496  48.994  1.00  0.00     0.074 HD
ENDROOT
BRANCH   3   5
HETATM    5  C3  UNL     1      21.531   1.637  50.111  1.00  0.00    -0.016 C 
HETATM    6  C4  UNL     1      21.090   0.902  51.042  1.00  0.00     0.002 C 
HETATM    7  C5  UNL     1      19.801   0.493  51.542  1.00  0.00     0.045 C 
HETATM    8  C9  UNL     1      22.459   0.652  51.528  1.00  0.00     0.181 C 
HETATM    9 CL1  UNL     1      18.331   0.821  50.671  1.00  0.00    -0.084 Cl
HETATM   10  C6  UNL     1      19.878  -0.134  52.697  1.00  0.00     0.051 C 
HETATM   11  C7  UNL     1      21.167  -0.369  53.337  1.00  0.00     0.067 C 
HETATM   12 CL2  UNL     1      21.323  -1.177  54.882  1.00  0.00    -0.082 Cl
HETATM   13  C8  UNL     1      22.358  -0.016  52.847  1.00  0.00     0.092 C 
HETATM   14  N1  UNL     1      23.158   1.879  51.486  1.00  0.00    -0.339 N 
HETATM   15  C17 UNL     1      22.978   1.909  50.000  1.00  0.00     0.167 C 
BRANCH  13  16
HETATM   16  O1  UNL     1      23.647  -0.149  53.315  1.00  0.00    -0.361 OA
HETATM   17  H6  UNL     1      23.874  -0.187  54.302  1.00  0.00     0.217 HD
ENDBRANCH  13  16
BRANCH  14  18
HETATM   18  C10 UNL     1      23.853   2.927  52.139  1.00  0.00     0.175 C 
HETATM   19  S1  UNL     1      23.158   4.325  52.580  1.00  0.00    -0.041 SA
BRANCH  18  20
HETATM   20  N2  UNL     1      25.237   2.885  52.489  1.00  0.00    -0.333 N 
HETATM   21  H8  UNL     1      25.986   3.615  52.646  1.00  0.00     0.168 HD
BRANCH  20  22
HETATM   22  C11 UNL     1      26.058   1.728  52.748  1.00  0.00     0.034 A 
HETATM   23  C12 UNL     1      26.465   0.747  51.870  1.00  0.00     0.029 A 
HETATM   24  C13 UNL     1      27.249  -0.288  52.336  1.00  0.00     0.002 A 
HETATM   25  C14 UNL     1      27.621  -0.343  53.660  1.00  0.00     0.000 A 
HETATM   26  C15 UNL     1      27.234   0.620  54.574  1.00  0.00     0.002 A 
HETATM   27  C16 UNL     1      26.440   1.664  54.089  1.00  0.00     0.029 A 
ENDBRANCH  20  22
ENDBRANCH  18  20
ENDBRANCH  14  18
ENDBRANCH   3   5
TORSDOF 5
ENDMDL
