MODEL 1
REMARK VINA RESULT:      -8.6      0.000      0.000
REMARK  4 active torsions:
REMARK  status: ('A' for Active; 'I' for Inactive)
REMARK    1  A    between atoms: C2_2  and  C3_3 
REMARK    2  A    between atoms: C3_3  and  C5_5 
REMARK    3  A    between atoms: N1_12  and  N2_13 
REMARK    4  A    between atoms: N3_14  and  C11_15 
ROOT
HETATM    1  C5  UNL     1      26.636   5.683  49.011  1.00  0.00     0.006 C 
HETATM    2  C6  UNL     1      25.611   5.166  49.612  1.00  0.00     0.046 C 
HETATM    3  C7  UNL     1      24.262   5.789  49.637  1.00  0.00     0.233 C 
HETATM    4  O1  UNL     1      23.478   5.365  50.769  1.00  0.00    -0.348 OA
HETATM    5  C8  UNL     1      23.581   4.144  51.493  1.00  0.00     0.061 C 
HETATM    6  C9  UNL     1      23.605   2.935  50.873  1.00  0.00     0.056 C 
HETATM    7  C10 UNL     1      25.109   2.811  50.903  1.00  0.00     0.245 C 
HETATM    8  N1  UNL     1      25.808   3.904  50.304  1.00  0.00    -0.289 N 
HETATM    9  N3  UNL     1      25.400   2.577  52.302  1.00  0.00    -0.284 N 
HETATM   10  N4  UNL     1      24.762   3.219  53.385  1.00  0.00    -0.229 NA
HETATM   11  C17 UNL     1      23.675   4.079  53.013  1.00  0.00     0.175 C 
HETATM   12  H20 UNL     1      25.476   3.740  53.939  1.00  0.00     0.147 HD
ENDROOT
BRANCH   9  13
HETATM   13  C11 UNL     1      26.384   1.638  52.746  1.00  0.00     0.050 A 
HETATM   14  C12 UNL     1      27.476   2.003  53.505  1.00  0.00     0.034 A 
HETATM   15  C13 UNL     1      28.443   1.139  53.957  1.00  0.00     0.046 A 
HETATM   16  C14 UNL     1      28.349  -0.200  53.648  1.00  0.00     0.138 A 
HETATM   17  F1  UNL     1      29.267  -1.091  54.066  1.00  0.00    -0.204 F 
HETATM   18  C15 UNL     1      27.281  -0.625  52.894  1.00  0.00     0.074 A 
HETATM   19 CL1  UNL     1      27.118  -2.312  52.478  1.00  0.00    -0.081 Cl
HETATM   20  C16 UNL     1      26.362   0.299  52.484  1.00  0.00     0.057 A 
ENDBRANCH   9  13
BRANCH   8  21
HETATM   21  N2  UNL     1      27.152   3.528  50.515  1.00  0.00    -0.245 NA
HETATM   22  H15 UNL     1      27.326   2.524  50.465  1.00  0.00     0.143 HD
HETATM   23  H16 UNL     1      27.785   4.111  49.934  1.00  0.00     0.143 HD
ENDBRANCH   8  21
BRANCH   1  24
HETATM   24  C3  UNL     1      27.260   6.732  48.211  1.00  0.00     0.006 C 
HETATM   25  C4  UNL     1      28.728   6.435  47.920  1.00  0.00     0.014 C 
BRANCH  24  26
HETATM   26  C2  UNL     1      27.100   8.095  48.847  1.00  0.00     0.003 C 
HETATM   27  C1  UNL     1      28.460   8.736  48.979  1.00  0.00     0.006 C 
ENDBRANCH  24  26
ENDBRANCH   1  24
TORSDOF 4
ENDMDL
MODEL 2
REMARK VINA RESULT:      -8.0      3.550      6.829
REMARK  4 active torsions:
REMARK  status: ('A' for Active; 'I' for Inactive)
REMARK    1  A    between atoms: C2_2  and  C3_3 
REMARK    2  A    between atoms: C3_3  and  C5_5 
REMARK    3  A    between atoms: N1_12  and  N2_13 
REMARK    4  A    between atoms: N3_14  and  C11_15 
ROOT
HETATM    1  C5  UNL     1      26.591   0.713  53.306  1.00  0.00     0.006 C 
HETATM    2  C6  UNL     1      25.468   1.185  52.868  1.00  0.00     0.046 C 
HETATM    3  C7  UNL     1      24.165   0.480  52.994  1.00  0.00     0.233 C 
HETATM    4  O1  UNL     1      23.214   0.893  51.993  1.00  0.00    -0.348 OA
HETATM    5  C8  UNL     1      23.148   2.142  51.315  1.00  0.00     0.061 C 
HETATM    6  C9  UNL     1      23.185   3.327  51.977  1.00  0.00     0.056 C 
HETATM    7  C10 UNL     1      24.662   3.546  51.755  1.00  0.00     0.245 C 
HETATM    8  N1  UNL     1      25.497   2.480  52.209  1.00  0.00    -0.289 N 
HETATM    9  N3  UNL     1      24.749   3.846  50.340  1.00  0.00    -0.284 N 
HETATM   10  N4  UNL     1      24.010   3.203  49.325  1.00  0.00    -0.229 NA
HETATM   11  C17 UNL     1      23.034   2.264  49.800  1.00  0.00     0.175 C 
HETATM   12  H20 UNL     1      24.672   2.747  48.659  1.00  0.00     0.147 HD
ENDROOT
BRANCH   9  13
HETATM   13  C11 UNL     1      25.609   4.859  49.811  1.00  0.00     0.050 A 
HETATM   14  C12 UNL     1      26.696   4.574  49.011  1.00  0.00     0.034 A 
HETATM   15  C13 UNL     1      27.547   5.511  48.477  1.00  0.00     0.046 A 
HETATM   16  C14 UNL     1      27.329   6.846  48.739  1.00  0.00     0.138 A 
HETATM   17  F1  UNL     1      28.130   7.806  48.241  1.00  0.00    -0.204 F 
HETATM   18  C15 UNL     1      26.260   7.192  49.530  1.00  0.00     0.074 A 
HETATM   19 CL1  UNL     1      25.944   8.871  49.889  1.00  0.00    -0.081 Cl
HETATM   20  C16 UNL     1      25.462   6.200  50.022  1.00  0.00     0.057 A 
ENDBRANCH   9  13
BRANCH   8  21
HETATM   21  N2  UNL     1      26.777   2.946  51.840  1.00  0.00    -0.245 NA
HETATM   22  H15 UNL     1      27.061   3.813  52.294  1.00  0.00     0.143 HD
HETATM   23  H16 UNL     1      27.471   2.175  51.894  1.00  0.00     0.143 HD
ENDBRANCH   8  21
BRANCH   1  24
HETATM   24  C3  UNL     1      27.377  -0.322  53.972  1.00  0.00     0.006 C 
HETATM   25  C4  UNL     1      28.489   0.266  54.833  1.00  0.00     0.014 C 
BRANCH  24  26
HETATM   26  C2  UNL     1      27.930  -1.329  52.987  1.00  0.00     0.003 C 
HETATM   27  C1  UNL     1      29.375  -1.601  53.327  1.00  0.00     0.006 C 
ENDBRANCH  24  26
ENDBRANCH   1  24
TORSDOF 4
ENDMDL
MODEL 3
REMARK VINA RESULT:      -7.8      2.668      5.739
REMARK  4 active torsions:
REMARK  status: ('A' for Active; 'I' for Inactive)
REMARK    1  A    between atoms: C2_2  and  C3_3 
REMARK    2  A    between atoms: C3_3  and  C5_5 
REMARK    3  A    between atoms: N1_12  and  N2_13 
REMARK    4  A    between atoms: N3_14  and  C11_15 
ROOT
HETATM    1  C5  UNL     1      21.284   0.688  52.414  1.00  0.00     0.006 C 
HETATM    2  C6  UNL     1      21.945   1.800  52.341  1.00  0.00     0.046 C 
HETATM    3  C7  UNL     1      21.378   3.069  51.814  1.00  0.00     0.233 C 
HETATM    4  O1  UNL     1      22.393   3.965  51.320  1.00  0.00    -0.348 OA
HETATM    5  C8  UNL     1      23.755   4.047  51.723  1.00  0.00     0.061 C 
HETATM    6  C9  UNL     1      24.120   4.121  53.029  1.00  0.00     0.056 C 
HETATM    7  C10 UNL     1      24.410   2.645  53.160  1.00  0.00     0.245 C 
HETATM    8  N1  UNL     1      23.324   1.791  52.799  1.00  0.00    -0.289 N 
HETATM    9  N3  UNL     1      25.624   2.471  52.389  1.00  0.00    -0.284 N 
HETATM   10  N4  UNL     1      25.902   3.099  51.157  1.00  0.00    -0.229 NA
HETATM   11  C17 UNL     1      24.918   4.056  50.738  1.00  0.00     0.175 C 
HETATM   12  H20 UNL     1      26.043   2.366  50.427  1.00  0.00     0.147 HD
ENDROOT
BRANCH   9  13
HETATM   13  C11 UNL     1      26.700   1.629  52.812  1.00  0.00     0.050 A 
HETATM   14  C12 UNL     1      27.810   2.110  53.474  1.00  0.00     0.034 A 
HETATM   15  C13 UNL     1      28.865   1.341  53.902  1.00  0.00     0.046 A 
HETATM   16  C14 UNL     1      28.848  -0.016  53.670  1.00  0.00     0.138 A 
HETATM   17  F1  UNL     1      29.854  -0.817  54.069  1.00  0.00    -0.204 F 
HETATM   18  C15 UNL     1      27.767  -0.555  53.014  1.00  0.00     0.074 A 
HETATM   19 CL1  UNL     1      27.700  -2.270  52.697  1.00  0.00    -0.081 Cl
HETATM   20  C16 UNL     1      26.759   0.279  52.621  1.00  0.00     0.057 A 
ENDBRANCH   9  13
BRANCH   8  21
HETATM   21  N2  UNL     1      23.895   0.514  52.984  1.00  0.00    -0.245 NA
HETATM   22  H15 UNL     1      23.231  -0.259  52.947  1.00  0.00     0.143 HD
HETATM   23  H16 UNL     1      24.732   0.402  52.379  1.00  0.00     0.143 HD
ENDBRANCH   8  21
BRANCH   1  24
HETATM   24  C3  UNL     1      20.072  -0.101  52.218  1.00  0.00     0.006 C 
HETATM   25  C4  UNL     1      18.935   0.731  51.633  1.00  0.00     0.014 C 
BRANCH  24  26
HETATM   26  C2  UNL     1      19.637  -0.791  53.492  1.00  0.00     0.003 C 
HETATM   27  C1  UNL     1      20.857  -1.346  54.187  1.00  0.00     0.006 C 
ENDBRANCH  24  26
ENDBRANCH   1  24
TORSDOF 4
ENDMDL
MODEL 4
REMARK VINA RESULT:      -7.6      1.701      2.208
REMARK  4 active torsions:
REMARK  status: ('A' for Active; 'I' for Inactive)
REMARK    1  A    between atoms: C2_2  and  C3_3 
REMARK    2  A    between atoms: C3_3  and  C5_5 
REMARK    3  A    between atoms: N1_12  and  N2_13 
REMARK    4  A    between atoms: N3_14  and  C11_15 
ROOT
HETATM    1  C5  UNL     1      27.850   5.702  48.421  1.00  0.00     0.006 C 
HETATM    2  C6  UNL     1      26.595   5.676  48.738  1.00  0.00     0.046 C 
HETATM    3  C7  UNL     1      25.637   6.772  48.432  1.00  0.00     0.233 C 
HETATM    4  O1  UNL     1      24.507   6.783  49.325  1.00  0.00    -0.348 OA
HETATM    5  C8  UNL     1      23.943   5.686  50.033  1.00  0.00     0.061 C 
HETATM    6  C9  UNL     1      23.633   4.513  49.422  1.00  0.00     0.056 C 
HETATM    7  C10 UNL     1      24.911   3.820  49.827  1.00  0.00     0.245 C 
HETATM    8  N1  UNL     1      26.106   4.501  49.439  1.00  0.00    -0.289 N 
HETATM    9  N3  UNL     1      24.746   3.614  51.252  1.00  0.00    -0.284 N 
HETATM   10  N4  UNL     1      24.178   4.544  52.148  1.00  0.00    -0.229 NA
HETATM   11  C17 UNL     1      23.642   5.721  51.527  1.00  0.00     0.175 C 
HETATM   12  H20 UNL     1      24.887   4.794  52.872  1.00  0.00     0.147 HD
ENDROOT
BRANCH   9  13
HETATM   13  C11 UNL     1      25.143   2.410  51.915  1.00  0.00     0.050 A 
HETATM   14  C12 UNL     1      24.260   1.393  52.209  1.00  0.00     0.034 A 
HETATM   15  C13 UNL     1      24.595   0.219  52.840  1.00  0.00     0.046 A 
HETATM   16  C14 UNL     1      25.901   0.008  53.222  1.00  0.00     0.138 A 
HETATM   17  F1  UNL     1      26.284  -1.123  53.843  1.00  0.00    -0.204 F 
HETATM   18  C15 UNL     1      26.828   0.988  52.956  1.00  0.00     0.074 A 
HETATM   19 CL1  UNL     1      28.495   0.766  53.422  1.00  0.00    -0.081 Cl
HETATM   20  C16 UNL     1      26.413   2.126  52.325  1.00  0.00     0.057 A 
ENDBRANCH   9  13
BRANCH   8  21
HETATM   21  N2  UNL     1      27.100   3.655  49.975  1.00  0.00    -0.245 NA
HETATM   22  H15 UNL     1      27.044   2.685  49.667  1.00  0.00     0.143 HD
HETATM   23  H16 UNL     1      28.037   4.092  49.878  1.00  0.00     0.143 HD
ENDBRANCH   8  21
BRANCH   1  24
HETATM   24  C3  UNL     1      29.009   6.355  47.820  1.00  0.00     0.006 C 
HETATM   25  C4  UNL     1      30.267   5.499  47.920  1.00  0.00     0.014 C 
BRANCH  24  26
HETATM   26  C2  UNL     1      29.244   7.732  48.400  1.00  0.00     0.003 C 
HETATM   27  C1  UNL     1      28.681   8.764  47.453  1.00  0.00     0.006 C 
ENDBRANCH  24  26
ENDBRANCH   1  24
TORSDOF 4
ENDMDL
MODEL 5
REMARK VINA RESULT:      -7.5      3.479      5.085
REMARK  4 active torsions:
REMARK  status: ('A' for Active; 'I' for Inactive)
REMARK    1  A    between atoms: C2_2  and  C3_3 
REMARK    2  A    between atoms: C3_3  and  C5_5 
REMARK    3  A    between atoms: N1_12  and  N2_13 
REMARK    4  A    between atoms: N3_14  and  C11_15 
ROOT
HETATM    1  C5  UNL     1      30.053   5.747  48.006  1.00  0.00     0.006 C 
HETATM    2  C6  UNL     1      29.049   6.552  48.150  1.00  0.00     0.046 C 
HETATM    3  C7  UNL     1      29.152   8.033  48.066  1.00  0.00     0.233 C 
HETATM    4  O1  UNL     1      28.097   8.702  48.783  1.00  0.00    -0.348 OA
HETATM    5  C8  UNL     1      26.791   8.215  49.069  1.00  0.00     0.061 C 
HETATM    6  C9  UNL     1      25.994   7.675  48.111  1.00  0.00     0.056 C 
HETATM    7  C10 UNL     1      26.350   6.247  48.445  1.00  0.00     0.245 C 
HETATM    8  N1  UNL     1      27.749   5.959  48.416  1.00  0.00    -0.289 N 
HETATM    9  N3  UNL     1      25.694   6.025  49.718  1.00  0.00    -0.284 N 
HETATM   10  N4  UNL     1      25.627   6.960  50.772  1.00  0.00    -0.229 NA
HETATM   11  C17 UNL     1      26.173   8.250  50.462  1.00  0.00     0.175 C 
HETATM   12  H20 UNL     1      26.088   6.553  51.616  1.00  0.00     0.147 HD
ENDROOT
BRANCH   9  13
HETATM   13  C11 UNL     1      25.020   4.806  50.044  1.00  0.00     0.050 A 
HETATM   14  C12 UNL     1      24.211   4.137  49.150  1.00  0.00     0.034 A 
HETATM   15  C13 UNL     1      23.548   2.964  49.416  1.00  0.00     0.046 A 
HETATM   16  C14 UNL     1      23.676   2.383  50.659  1.00  0.00     0.138 A 
HETATM   17  F1  UNL     1      23.049   1.234  50.973  1.00  0.00    -0.204 F 
HETATM   18  C15 UNL     1      24.469   3.005  51.593  1.00  0.00     0.074 A 
HETATM   19 CL1  UNL     1      24.663   2.307  53.181  1.00  0.00    -0.081 Cl
HETATM   20  C16 UNL     1      25.095   4.169  51.249  1.00  0.00     0.057 A 
ENDBRANCH   9  13
BRANCH   8  21
HETATM   21  N2  UNL     1      27.766   4.600  48.797  1.00  0.00    -0.245 NA
HETATM   22  H15 UNL     1      27.543   4.431  49.777  1.00  0.00     0.143 HD
HETATM   23  H16 UNL     1      27.225   4.029  48.119  1.00  0.00     0.143 HD
ENDBRANCH   8  21
BRANCH   1  24
HETATM   24  C3  UNL     1      31.470   5.493  47.762  1.00  0.00     0.006 C 
HETATM   25  C4  UNL     1      31.722   4.069  47.278  1.00  0.00     0.014 C 
BRANCH  24  26
HETATM   26  C2  UNL     1      32.316   5.810  48.975  1.00  0.00     0.003 C 
HETATM   27  C1  UNL     1      32.862   7.211  48.837  1.00  0.00     0.006 C 
ENDBRANCH  24  26
ENDBRANCH   1  24
TORSDOF 4
ENDMDL
MODEL 6
REMARK VINA RESULT:      -7.4      5.313      7.787
REMARK  4 active torsions:
REMARK  status: ('A' for Active; 'I' for Inactive)
REMARK    1  A    between atoms: C2_2  and  C3_3 
REMARK    2  A    between atoms: C3_3  and  C5_5 
REMARK    3  A    between atoms: N1_12  and  N2_13 
REMARK    4  A    between atoms: N3_14  and  C11_15 
ROOT
HETATM    1  C5  UNL     1      24.814  -0.065  53.108  1.00  0.00     0.006 C 
HETATM    2  C6  UNL     1      24.183   0.895  52.509  1.00  0.00     0.046 C 
HETATM    3  C7  UNL     1      24.775   2.230  52.229  1.00  0.00     0.233 C 
HETATM    4  O1  UNL     1      23.776   3.258  52.087  1.00  0.00    -0.348 OA
HETATM    5  C8  UNL     1      22.425   3.109  51.667  1.00  0.00     0.061 C 
HETATM    6  C9  UNL     1      22.087   2.424  50.544  1.00  0.00     0.056 C 
HETATM    7  C10 UNL     1      21.759   1.144  51.274  1.00  0.00     0.245 C 
HETATM    8  N1  UNL     1      22.814   0.640  52.095  1.00  0.00    -0.289 N 
HETATM    9  N3  UNL     1      20.526   1.459  51.966  1.00  0.00    -0.284 N 
HETATM   10  N4  UNL     1      20.241   2.683  52.606  1.00  0.00    -0.229 NA
HETATM   11  C17 UNL     1      21.243   3.696  52.431  1.00  0.00     0.175 C 
HETATM   12  H20 UNL     1      20.066   2.505  53.619  1.00  0.00     0.147 HD
ENDROOT
BRANCH   9  13
HETATM   13  C11 UNL     1      19.435   0.539  52.069  1.00  0.00     0.050 A 
HETATM   14  C12 UNL     1      19.250  -0.282  53.161  1.00  0.00     0.034 A 
HETATM   15  C13 UNL     1      18.218  -1.177  53.307  1.00  0.00     0.046 A 
HETATM   16  C14 UNL     1      17.277  -1.289  52.307  1.00  0.00     0.138 A 
HETATM   17  F1  UNL     1      16.245  -2.148  52.397  1.00  0.00    -0.204 F 
HETATM   18  C15 UNL     1      17.409  -0.496  51.192  1.00  0.00     0.074 A 
HETATM   19 CL1  UNL     1      16.241  -0.602  49.899  1.00  0.00    -0.081 Cl
HETATM   20  C16 UNL     1      18.464   0.368  51.125  1.00  0.00     0.057 A 
ENDBRANCH   9  13
BRANCH   8  21
HETATM   21  N2  UNL     1      22.211  -0.505  52.658  1.00  0.00    -0.245 NA
HETATM   22  H15 UNL     1      22.790  -1.344  52.638  1.00  0.00     0.143 HD
HETATM   23  H16 UNL     1      21.800  -0.277  53.585  1.00  0.00     0.143 HD
ENDBRANCH   8  21
BRANCH   1  24
HETATM   24  C3  UNL     1      26.000  -0.612  53.759  1.00  0.00     0.006 C 
HETATM   25  C4  UNL     1      26.466   0.255  54.924  1.00  0.00     0.014 C 
BRANCH  24  26
HETATM   26  C2  UNL     1      27.125  -0.845  52.775  1.00  0.00     0.003 C 
HETATM   27  C1  UNL     1      28.443  -0.646  53.484  1.00  0.00     0.006 C 
ENDBRANCH  24  26
ENDBRANCH   1  24
TORSDOF 4
ENDMDL
MODEL 7
REMARK VINA RESULT:      -7.4      2.926      5.870
REMARK  4 active torsions:
REMARK  status: ('A' for Active; 'I' for Inactive)
REMARK    1  A    between atoms: C2_2  and  C3_3 
REMARK    2  A    between atoms: C3_3  and  C5_5 
REMARK    3  A    between atoms: N1_12  and  N2_13 
REMARK    4  A    between atoms: N3_14  and  C11_15 
ROOT
HETATM    1  C5  UNL     1      20.559   1.484  52.197  1.00  0.00     0.006 C 
HETATM    2  C6  UNL     1      21.320   2.532  52.190  1.00  0.00     0.046 C 
HETATM    3  C7  UNL     1      20.866   3.887  51.781  1.00  0.00     0.233 C 
HETATM    4  O1  UNL     1      21.949   4.720  51.327  1.00  0.00    -0.348 OA
HETATM    5  C8  UNL     1      23.322   4.642  51.692  1.00  0.00     0.061 C 
HETATM    6  C9  UNL     1      23.724   4.576  52.988  1.00  0.00     0.056 C 
HETATM    7  C10 UNL     1      23.874   3.074  52.995  1.00  0.00     0.245 C 
HETATM    8  N1  UNL     1      22.703   2.357  52.602  1.00  0.00    -0.289 N 
HETATM    9  N3  UNL     1      25.047   2.850  52.175  1.00  0.00    -0.284 N 
HETATM   10  N4  UNL     1      25.355   3.545  50.987  1.00  0.00    -0.229 NA
HETATM   11  C17 UNL     1      24.457   4.621  50.675  1.00  0.00     0.175 C 
HETATM   12  H20 UNL     1      25.408   2.864  50.198  1.00  0.00     0.147 HD
ENDROOT
BRANCH   9  13
HETATM   13  C11 UNL     1      26.048   1.880  52.497  1.00  0.00     0.050 A 
HETATM   14  C12 UNL     1      26.018   0.587  52.017  1.00  0.00     0.034 A 
HETATM   15  C13 UNL     1      26.956  -0.377  52.295  1.00  0.00     0.046 A 
HETATM   16  C14 UNL     1      28.021  -0.065  53.112  1.00  0.00     0.138 A 
HETATM   17  F1  UNL     1      28.970  -0.970  53.416  1.00  0.00    -0.204 F 
HETATM   18  C15 UNL     1      28.105   1.209  53.621  1.00  0.00     0.074 A 
HETATM   19 CL1  UNL     1      29.437   1.651  54.660  1.00  0.00    -0.081 Cl
HETATM   20  C16 UNL     1      27.131   2.108  53.296  1.00  0.00     0.057 A 
ENDBRANCH   9  13
BRANCH   8  21
HETATM   21  N2  UNL     1      23.154   1.022  52.670  1.00  0.00    -0.245 NA
HETATM   22  H15 UNL     1      23.367   0.599  51.767  1.00  0.00     0.143 HD
HETATM   23  H16 UNL     1      23.902   0.929  53.385  1.00  0.00     0.143 HD
ENDBRANCH   8  21
BRANCH   1  24
HETATM   24  C3  UNL     1      19.271   0.831  51.978  1.00  0.00     0.006 C 
HETATM   25  C4  UNL     1      19.116  -0.428  52.824  1.00  0.00     0.014 C 
BRANCH  24  26
HETATM   26  C2  UNL     1      19.034   0.533  50.515  1.00  0.00     0.003 C 
HETATM   27  C1  UNL     1      17.556   0.652  50.226  1.00  0.00     0.006 C 
ENDBRANCH  24  26
ENDBRANCH   1  24
TORSDOF 4
ENDMDL
MODEL 8
REMARK VINA RESULT:      -7.2      3.488      6.854
REMARK  4 active torsions:
REMARK  status: ('A' for Active; 'I' for Inactive)
REMARK    1  A    between atoms: C2_2  and  C3_3 
REMARK    2  A    between atoms: C3_3  and  C5_5 
REMARK    3  A    between atoms: N1_12  and  N2_13 
REMARK    4  A    between atoms: N3_14  and  C11_15 
ROOT
HETATM    1  C5  UNL     1      25.938   1.069  52.627  1.00  0.00     0.006 C 
HETATM    2  C6  UNL     1      24.886   1.612  52.101  1.00  0.00     0.046 C 
HETATM    3  C7  UNL     1      23.588   0.909  51.924  1.00  0.00     0.233 C 
HETATM    4  O1  UNL     1      22.793   1.477  50.866  1.00  0.00    -0.348 OA
HETATM    5  C8  UNL     1      22.812   2.815  50.381  1.00  0.00     0.061 C 
HETATM    6  C9  UNL     1      22.735   3.887  51.211  1.00  0.00     0.056 C 
HETATM    7  C10 UNL     1      24.226   4.122  51.248  1.00  0.00     0.245 C 
HETATM    8  N1  UNL     1      24.997   2.991  51.657  1.00  0.00    -0.289 N 
HETATM    9  N3  UNL     1      24.519   4.631  49.924  1.00  0.00    -0.284 N 
HETATM   10  N4  UNL     1      23.948   4.155  48.724  1.00  0.00    -0.229 NA
HETATM   11  C17 UNL     1      22.925   3.165  48.901  1.00  0.00     0.175 C 
HETATM   12  H20 UNL     1      24.709   3.798  48.105  1.00  0.00     0.147 HD
ENDROOT
BRANCH   9  13
HETATM   13  C11 UNL     1      25.436   5.703  49.687  1.00  0.00     0.050 A 
HETATM   14  C12 UNL     1      25.312   6.938  50.288  1.00  0.00     0.034 A 
HETATM   15  C13 UNL     1      26.168   7.996  50.096  1.00  0.00     0.046 A 
HETATM   16  C14 UNL     1      27.242   7.848  49.245  1.00  0.00     0.138 A 
HETATM   17  F1  UNL     1      28.112   8.850  49.021  1.00  0.00    -0.204 F 
HETATM   18  C15 UNL     1      27.417   6.638  48.616  1.00  0.00     0.074 A 
HETATM   19 CL1  UNL     1      28.762   6.403  47.530  1.00  0.00    -0.081 Cl
HETATM   20  C16 UNL     1      26.521   5.638  48.862  1.00  0.00     0.057 A 
ENDBRANCH   9  13
BRANCH   8  21
HETATM   21  N2  UNL     1      26.311   3.495  51.558  1.00  0.00    -0.245 NA
HETATM   22  H15 UNL     1      26.956   3.144  52.265  1.00  0.00     0.143 HD
HETATM   23  H16 UNL     1      26.652   3.423  50.579  1.00  0.00     0.143 HD
ENDBRANCH   8  21
BRANCH   1  24
HETATM   24  C3  UNL     1      26.628  -0.062  53.240  1.00  0.00     0.006 C 
HETATM   25  C4  UNL     1      26.392  -1.361  52.476  1.00  0.00     0.014 C 
BRANCH  24  26
HETATM   26  C2  UNL     1      26.266  -0.219  54.700  1.00  0.00     0.003 C 
HETATM   27  C1  UNL     1      24.944  -0.943  54.800  1.00  0.00     0.006 C 
ENDBRANCH  24  26
ENDBRANCH   1  24
TORSDOF 4
ENDMDL
MODEL 9
REMARK VINA RESULT:      -7.1      4.910      7.816
REMARK  4 active torsions:
REMARK  status: ('A' for Active; 'I' for Inactive)
REMARK    1  A    between atoms: C2_2  and  C3_3 
REMARK    2  A    between atoms: C3_3  and  C5_5 
REMARK    3  A    between atoms: N1_12  and  N2_13 
REMARK    4  A    between atoms: N3_14  and  C11_15 
ROOT
HETATM    1  C5  UNL     1      26.806   6.013  48.774  1.00  0.00     0.006 C 
HETATM    2  C6  UNL     1      27.566   6.997  48.410  1.00  0.00     0.046 C 
HETATM    3  C7  UNL     1      27.055   8.315  47.948  1.00  0.00     0.233 C 
HETATM    4  O1  UNL     1      27.996   9.007  47.104  1.00  0.00    -0.348 OA
HETATM    5  C8  UNL     1      29.413   8.884  47.094  1.00  0.00     0.061 C 
HETATM    6  C9  UNL     1      30.155   8.962  48.229  1.00  0.00     0.056 C 
HETATM    7  C10 UNL     1      30.257   7.467  48.412  1.00  0.00     0.245 C 
HETATM    8  N1  UNL     1      29.003   6.785  48.457  1.00  0.00    -0.289 N 
HETATM    9  N3  UNL     1      31.152   7.059  47.348  1.00  0.00    -0.284 N 
HETATM   10  N4  UNL     1      31.140   7.571  46.034  1.00  0.00    -0.229 NA
HETATM   11  C17 UNL     1      30.223   8.654  45.822  1.00  0.00     0.175 C 
HETATM   12  H20 UNL     1      30.953   6.790  45.366  1.00  0.00     0.147 HD
ENDROOT
BRANCH   9  13
HETATM   13  C11 UNL     1      32.174   6.074  47.526  1.00  0.00     0.050 A 
HETATM   14  C12 UNL     1      32.108   4.818  46.961  1.00  0.00     0.034 A 
HETATM   15  C13 UNL     1      33.065   3.842  47.100  1.00  0.00     0.046 A 
HETATM   16  C14 UNL     1      34.188   4.102  47.853  1.00  0.00     0.138 A 
HETATM   17  F1  UNL     1      35.157   3.183  48.022  1.00  0.00    -0.204 F 
HETATM   18  C15 UNL     1      34.311   5.338  48.442  1.00  0.00     0.074 A 
HETATM   19 CL1  UNL     1      35.717   5.714  49.404  1.00  0.00    -0.081 Cl
HETATM   20  C16 UNL     1      33.314   6.252  48.254  1.00  0.00     0.057 A 
ENDBRANCH   9  13
BRANCH   8  21
HETATM   21  N2  UNL     1      29.416   5.443  48.592  1.00  0.00    -0.245 NA
HETATM   22  H15 UNL     1      28.814   4.764  48.127  1.00  0.00     0.143 HD
HETATM   23  H16 UNL     1      30.428   5.353  48.375  1.00  0.00     0.143 HD
ENDBRANCH   8  21
BRANCH   1  24
HETATM   24  C3  UNL     1      25.490   5.426  49.006  1.00  0.00     0.006 C 
HETATM   25  C4  UNL     1      24.438   6.482  49.325  1.00  0.00     0.014 C 
BRANCH  24  26
HETATM   26  C2  UNL     1      25.531   4.360  50.079  1.00  0.00     0.003 C 
HETATM   27  C1  UNL     1      26.559   3.322  49.698  1.00  0.00     0.006 C 
ENDBRANCH  24  26
ENDBRANCH   1  24
TORSDOF 4
ENDMDL
