MODEL 1
REMARK VINA RESULT:      -7.6      0.000      0.000
REMARK  3 active torsions:
REMARK  status: ('A' for Active; 'I' for Inactive)
REMARK       I    between atoms: C1_2  and  N1_3 
REMARK    1  A    between atoms: C1_2  and  C8_14 
REMARK    2  A    between atoms: N1_3  and  S1_4 
REMARK    3  A    between atoms: S1_4  and  C2_7 
ROOT
HETATM    1  O1  UNL     1      26.480   2.705  49.625  1.00  0.00    -0.267 OA
HETATM    2  C1  UNL     1      26.238   3.908  49.922  1.00  0.00     0.266 C 
HETATM    3  N1  UNL     1      25.454   4.073  51.088  1.00  0.00    -0.246 N 
HETATM    4  H1  UNL     1      25.192   5.005  51.429  1.00  0.00     0.182 HD
ENDROOT
BRANCH   3   5
HETATM    5  S1  UNL     1      24.970   2.651  51.890  1.00  0.00     0.265 S 
HETATM    6  O2  UNL     1      24.075   1.861  50.984  1.00  0.00    -0.200 OA
HETATM    7  O3  UNL     1      24.122   3.077  53.079  1.00  0.00    -0.200 OA
BRANCH   5   8
HETATM    8  C2  UNL     1      26.322   1.678  52.419  1.00  0.00     0.080 A 
HETATM    9  C3  UNL     1      26.149   0.299  52.260  1.00  0.00     0.027 A 
HETATM   10  C4  UNL     1      27.113  -0.626  52.622  1.00  0.00     0.025 A 
HETATM   11  C5  UNL     1      28.285  -0.151  53.159  1.00  0.00     0.034 A 
HETATM   12 CL1  UNL     1      29.561  -1.276  53.644  1.00  0.00    -0.084 Cl
HETATM   13  C6  UNL     1      28.471   1.193  53.321  1.00  0.00     0.025 A 
HETATM   14  C7  UNL     1      27.508   2.112  52.959  1.00  0.00     0.027 A 
ENDBRANCH   5   8
ENDBRANCH   3   5
BRANCH   2  15
HETATM   15  C8  UNL     1      26.722   5.037  49.136  1.00  0.00     0.050 A 
HETATM   16  C9  UNL     1      28.005   5.127  48.634  1.00  0.00     0.022 A 
HETATM   17  C10 UNL     1      28.427   6.213  47.894  1.00  0.00     0.045 A 
HETATM   18  C11 UNL     1      27.454   7.175  47.711  1.00  0.00     0.125 A 
HETATM   19 CL2  UNL     1      27.887   8.607  46.778  1.00  0.00    -0.062 Cl
HETATM   20  N2  UNL     1      26.192   7.144  48.174  1.00  0.00    -0.248 NA
HETATM   21  C12 UNL     1      25.805   6.067  48.897  1.00  0.00     0.135 A 
ENDBRANCH   2  15
TORSDOF 3
ENDMDL
MODEL 2
REMARK VINA RESULT:      -7.0      4.839      7.191
REMARK  3 active torsions:
REMARK  status: ('A' for Active; 'I' for Inactive)
REMARK       I    between atoms: C1_2  and  N1_3 
REMARK    1  A    between atoms: C1_2  and  C8_14 
REMARK    2  A    between atoms: N1_3  and  S1_4 
REMARK    3  A    between atoms: S1_4  and  C2_7 
ROOT
HETATM    1  O1  UNL     1      22.166   2.774  52.226  1.00  0.00    -0.267 OA
HETATM    2  C1  UNL     1      22.164   1.536  52.472  1.00  0.00     0.266 C 
HETATM    3  N1  UNL     1      23.449   0.980  52.672  1.00  0.00    -0.246 N 
HETATM    4  H1  UNL     1      23.575  -0.018  52.878  1.00  0.00     0.182 HD
ENDROOT
BRANCH   3   5
HETATM    5  S1  UNL     1      24.770   2.049  52.553  1.00  0.00     0.265 S 
HETATM    6  O2  UNL     1      24.531   3.220  53.458  1.00  0.00    -0.200 OA
HETATM    7  O3  UNL     1      24.776   2.590  51.131  1.00  0.00    -0.200 OA
BRANCH   5   8
HETATM    8  C2  UNL     1      26.296   1.285  52.926  1.00  0.00     0.080 A 
HETATM    9  C3  UNL     1      26.338  -0.091  52.678  1.00  0.00     0.027 A 
HETATM   10  C4  UNL     1      27.464  -0.863  52.913  1.00  0.00     0.025 A 
HETATM   11  C5  UNL     1      28.578  -0.232  53.412  1.00  0.00     0.034 A 
HETATM   12 CL1  UNL     1      30.051  -1.156  53.735  1.00  0.00    -0.084 Cl
HETATM   13  C6  UNL     1      28.554   1.112  53.659  1.00  0.00     0.025 A 
HETATM   14  C7  UNL     1      27.431   1.877  53.425  1.00  0.00     0.027 A 
ENDBRANCH   5   8
ENDBRANCH   3   5
BRANCH   2  15
HETATM   15  C8  UNL     1      20.944   0.738  52.544  1.00  0.00     0.050 A 
HETATM   16  C9  UNL     1      19.968   0.742  51.569  1.00  0.00     0.022 A 
HETATM   17  C10 UNL     1      18.826  -0.027  51.674  1.00  0.00     0.045 A 
HETATM   18  C11 UNL     1      18.766  -0.782  52.828  1.00  0.00     0.125 A 
HETATM   19 CL2  UNL     1      17.348  -1.803  53.064  1.00  0.00    -0.062 Cl
HETATM   20  N2  UNL     1      19.682  -0.827  53.811  1.00  0.00    -0.248 NA
HETATM   21  C12 UNL     1      20.792  -0.063  53.682  1.00  0.00     0.135 A 
ENDBRANCH   2  15
TORSDOF 3
ENDMDL
MODEL 3
REMARK VINA RESULT:      -6.9      4.499      6.868
REMARK  3 active torsions:
REMARK  status: ('A' for Active; 'I' for Inactive)
REMARK       I    between atoms: C1_2  and  N1_3 
REMARK    1  A    between atoms: C1_2  and  C8_14 
REMARK    2  A    between atoms: N1_3  and  S1_4 
REMARK    3  A    between atoms: S1_4  and  C2_7 
ROOT
HETATM    1  O1  UNL     1      24.429   2.282  53.320  1.00  0.00    -0.267 OA
HETATM    2  C1  UNL     1      25.293   1.958  52.458  1.00  0.00     0.266 C 
HETATM    3  N1  UNL     1      25.044   2.470  51.163  1.00  0.00    -0.246 N 
HETATM    4  H1  UNL     1      25.676   2.274  50.379  1.00  0.00     0.182 HD
ENDROOT
BRANCH   3   5
HETATM    5  S1  UNL     1      23.645   3.425  50.976  1.00  0.00     0.265 S 
HETATM    6  O2  UNL     1      23.622   3.987  49.587  1.00  0.00    -0.200 OA
HETATM    7  O3  UNL     1      23.785   4.606  51.924  1.00  0.00    -0.200 OA
BRANCH   5   8
HETATM    8  C2  UNL     1      22.174   2.543  51.308  1.00  0.00     0.080 A 
HETATM    9  C3  UNL     1      22.091   1.290  50.691  1.00  0.00     0.027 A 
HETATM   10  C4  UNL     1      20.999   0.451  50.839  1.00  0.00     0.025 A 
HETATM   11  C5  UNL     1      19.963   0.884  51.630  1.00  0.00     0.034 A 
HETATM   12 CL1  UNL     1      18.537  -0.137  51.864  1.00  0.00    -0.084 Cl
HETATM   13  C6  UNL     1      20.028   2.104  52.241  1.00  0.00     0.025 A 
HETATM   14  C7  UNL     1      21.116   2.939  52.090  1.00  0.00     0.027 A 
ENDBRANCH   5   8
ENDBRANCH   3   5
BRANCH   2  15
HETATM   15  C8  UNL     1      26.452   1.127  52.763  1.00  0.00     0.050 A 
HETATM   16  C9  UNL     1      26.466  -0.247  52.629  1.00  0.00     0.022 A 
HETATM   17  C10 UNL     1      27.583  -1.000  52.928  1.00  0.00     0.045 A 
HETATM   18  C11 UNL     1      28.659  -0.253  53.365  1.00  0.00     0.125 A 
HETATM   19 CL2  UNL     1      30.141  -1.117  53.775  1.00  0.00    -0.062 Cl
HETATM   20  N2  UNL     1      28.705   1.082  53.516  1.00  0.00    -0.248 NA
HETATM   21  C12 UNL     1      27.596   1.796  53.215  1.00  0.00     0.135 A 
ENDBRANCH   2  15
TORSDOF 3
ENDMDL
MODEL 4
REMARK VINA RESULT:      -6.9      2.118      2.600
REMARK  3 active torsions:
REMARK  status: ('A' for Active; 'I' for Inactive)
REMARK       I    between atoms: C1_2  and  N1_3 
REMARK    1  A    between atoms: C1_2  and  C8_14 
REMARK    2  A    between atoms: N1_3  and  S1_4 
REMARK    3  A    between atoms: S1_4  and  C2_7 
ROOT
HETATM    1  O1  UNL     1      24.874   3.514  49.431  1.00  0.00    -0.267 OA
HETATM    2  C1  UNL     1      25.296   4.635  49.829  1.00  0.00     0.266 C 
HETATM    3  N1  UNL     1      24.569   5.179  50.914  1.00  0.00    -0.246 N 
HETATM    4  H1  UNL     1      24.818   6.086  51.325  1.00  0.00     0.182 HD
ENDROOT
BRANCH   3   5
HETATM    5  S1  UNL     1      23.266   4.251  51.500  1.00  0.00     0.265 S 
HETATM    6  O2  UNL     1      22.303   4.002  50.379  1.00  0.00    -0.200 OA
HETATM    7  O3  UNL     1      22.535   5.109  52.522  1.00  0.00    -0.200 OA
BRANCH   5   8
HETATM    8  C2  UNL     1      23.777   2.743  52.218  1.00  0.00     0.080 A 
HETATM    9  C3  UNL     1      24.932   2.829  53.002  1.00  0.00     0.027 A 
HETATM   10  C4  UNL     1      25.484   1.736  53.650  1.00  0.00     0.025 A 
HETATM   11  C5  UNL     1      24.856   0.523  53.504  1.00  0.00     0.034 A 
HETATM   12 CL1  UNL     1      25.506  -0.916  54.303  1.00  0.00    -0.084 Cl
HETATM   13  C6  UNL     1      23.727   0.421  52.741  1.00  0.00     0.025 A 
HETATM   14  C7  UNL     1      23.180   1.511  52.097  1.00  0.00     0.027 A 
ENDBRANCH   5   8
ENDBRANCH   3   5
BRANCH   2  15
HETATM   15  C8  UNL     1      26.435   5.319  49.227  1.00  0.00     0.050 A 
HETATM   16  C9  UNL     1      27.574   4.672  48.791  1.00  0.00     0.022 A 
HETATM   17  C10 UNL     1      28.633   5.354  48.226  1.00  0.00     0.045 A 
HETATM   18  C11 UNL     1      28.437   6.718  48.144  1.00  0.00     0.125 A 
HETATM   19 CL2  UNL     1      29.729   7.688  47.437  1.00  0.00    -0.062 Cl
HETATM   20  N2  UNL     1      27.354   7.403  48.550  1.00  0.00    -0.248 NA
HETATM   21  C12 UNL     1      26.330   6.709  49.100  1.00  0.00     0.135 A 
ENDBRANCH   2  15
TORSDOF 3
ENDMDL
MODEL 5
REMARK VINA RESULT:      -6.9      3.561      7.309
REMARK  3 active torsions:
REMARK  status: ('A' for Active; 'I' for Inactive)
REMARK       I    between atoms: C1_2  and  N1_3 
REMARK    1  A    between atoms: C1_2  and  C8_14 
REMARK    2  A    between atoms: N1_3  and  S1_4 
REMARK    3  A    between atoms: S1_4  and  C2_7 
ROOT
HETATM    1  O1  UNL     1      23.904   4.048  52.187  1.00  0.00    -0.267 OA
HETATM    2  C1  UNL     1      23.229   3.109  51.682  1.00  0.00     0.266 C 
HETATM    3  N1  UNL     1      22.790   3.354  50.359  1.00  0.00    -0.246 N 
HETATM    4  H1  UNL     1      22.233   2.663  49.844  1.00  0.00     0.182 HD
ENDROOT
BRANCH   3   5
HETATM    5  S1  UNL     1      23.236   4.847  49.672  1.00  0.00     0.265 S 
HETATM    6  O2  UNL     1      22.854   5.949  50.614  1.00  0.00    -0.200 OA
HETATM    7  O3  UNL     1      22.391   5.030  48.421  1.00  0.00    -0.200 OA
BRANCH   5   8
HETATM    8  C2  UNL     1      24.936   4.934  49.283  1.00  0.00     0.080 A 
HETATM    9  C3  UNL     1      25.361   6.171  48.787  1.00  0.00     0.027 A 
HETATM   10  C4  UNL     1      26.674   6.425  48.425  1.00  0.00     0.025 A 
HETATM   11  C5  UNL     1      27.584   5.406  48.566  1.00  0.00     0.034 A 
HETATM   12 CL1  UNL     1      29.278   5.660  48.124  1.00  0.00    -0.084 Cl
HETATM   13  C6  UNL     1      27.186   4.191  49.050  1.00  0.00     0.025 A 
HETATM   14  C7  UNL     1      25.878   3.941  49.409  1.00  0.00     0.027 A 
ENDBRANCH   5   8
ENDBRANCH   3   5
BRANCH   2  15
HETATM   15  C8  UNL     1      22.922   1.873  52.394  1.00  0.00     0.050 A 
HETATM   16  C9  UNL     1      23.881   0.976  52.819  1.00  0.00     0.022 A 
HETATM   17  C10 UNL     1      23.552  -0.184  53.490  1.00  0.00     0.045 A 
HETATM   18  C11 UNL     1      22.195  -0.348  53.688  1.00  0.00     0.125 A 
HETATM   19 CL2  UNL     1      21.662  -1.798  54.538  1.00  0.00    -0.062 Cl
HETATM   20  N2  UNL     1      21.217   0.488  53.299  1.00  0.00    -0.248 NA
HETATM   21  C12 UNL     1      21.568   1.619  52.643  1.00  0.00     0.135 A 
ENDBRANCH   2  15
TORSDOF 3
ENDMDL
MODEL 6
REMARK VINA RESULT:      -6.8      5.005      7.109
REMARK  3 active torsions:
REMARK  status: ('A' for Active; 'I' for Inactive)
REMARK       I    between atoms: C1_2  and  N1_3 
REMARK    1  A    between atoms: C1_2  and  C8_14 
REMARK    2  A    between atoms: N1_3  and  S1_4 
REMARK    3  A    between atoms: S1_4  and  C2_7 
ROOT
HETATM    1  O1  UNL     1      23.260   1.212  50.983  1.00  0.00    -0.267 OA
HETATM    2  C1  UNL     1      23.695   1.704  52.061  1.00  0.00     0.266 C 
HETATM    3  N1  UNL     1      22.748   2.479  52.771  1.00  0.00    -0.246 N 
HETATM    4  H1  UNL     1      22.985   2.930  53.662  1.00  0.00     0.182 HD
ENDROOT
BRANCH   3   5
HETATM    5  S1  UNL     1      21.201   2.622  52.072  1.00  0.00     0.265 S 
HETATM    6  O2  UNL     1      21.353   2.853  50.598  1.00  0.00    -0.200 OA
HETATM    7  O3  UNL     1      20.568   3.878  52.649  1.00  0.00    -0.200 OA
BRANCH   5   8
HETATM    8  C2  UNL     1      20.190   1.230  52.374  1.00  0.00     0.080 A 
HETATM    9  C3  UNL     1      20.563   0.465  53.484  1.00  0.00     0.027 A 
HETATM   10  C4  UNL     1      19.879  -0.673  53.877  1.00  0.00     0.025 A 
HETATM   11  C5  UNL     1      18.788  -1.052  53.133  1.00  0.00     0.034 A 
HETATM   12 CL1  UNL     1      17.867  -2.495  53.577  1.00  0.00    -0.084 Cl
HETATM   13  C6  UNL     1      18.409  -0.316  52.045  1.00  0.00     0.025 A 
HETATM   14  C7  UNL     1      19.093   0.817  51.656  1.00  0.00     0.027 A 
ENDBRANCH   5   8
ENDBRANCH   3   5
BRANCH   2  15
HETATM   15  C8  UNL     1      25.057   1.496  52.542  1.00  0.00     0.050 A 
HETATM   16  C9  UNL     1      25.900   0.519  52.053  1.00  0.00     0.022 A 
HETATM   17  C10 UNL     1      27.183   0.352  52.534  1.00  0.00     0.045 A 
HETATM   18  C11 UNL     1      27.526   1.244  53.530  1.00  0.00     0.125 A 
HETATM   19 CL2  UNL     1      29.145   1.121  54.217  1.00  0.00    -0.062 Cl
HETATM   20  N2  UNL     1      26.750   2.214  54.046  1.00  0.00    -0.248 NA
HETATM   21  C12 UNL     1      25.496   2.355  53.556  1.00  0.00     0.135 A 
ENDBRANCH   2  15
TORSDOF 3
ENDMDL
MODEL 7
REMARK VINA RESULT:      -6.8      2.409      6.929
REMARK  3 active torsions:
REMARK  status: ('A' for Active; 'I' for Inactive)
REMARK       I    between atoms: C1_2  and  N1_3 
REMARK    1  A    between atoms: C1_2  and  C8_14 
REMARK    2  A    between atoms: N1_3  and  S1_4 
REMARK    3  A    between atoms: S1_4  and  C2_7 
ROOT
HETATM    1  O1  UNL     1      24.983   2.824  53.313  1.00  0.00    -0.267 OA
HETATM    2  C1  UNL     1      25.434   1.975  52.495  1.00  0.00     0.266 C 
HETATM    3  N1  UNL     1      24.761   1.951  51.250  1.00  0.00    -0.246 N 
HETATM    4  H1  UNL     1      25.038   1.303  50.504  1.00  0.00     0.182 HD
ENDROOT
BRANCH   3   5
HETATM    5  S1  UNL     1      23.476   3.052  51.057  1.00  0.00     0.265 S 
HETATM    6  O2  UNL     1      22.558   2.940  52.237  1.00  0.00    -0.200 OA
HETATM    7  O3  UNL     1      22.682   2.599  49.841  1.00  0.00    -0.200 OA
BRANCH   5   8
HETATM    8  C2  UNL     1      24.019   4.700  50.856  1.00  0.00     0.080 A 
HETATM    9  C3  UNL     1      25.148   4.849  50.044  1.00  0.00     0.027 A 
HETATM   10  C4  UNL     1      25.721   6.081  49.771  1.00  0.00     0.025 A 
HETATM   11  C5  UNL     1      25.141   7.193  50.331  1.00  0.00     0.034 A 
HETATM   12 CL1  UNL     1      25.818   8.798  50.025  1.00  0.00    -0.084 Cl
HETATM   13  C6  UNL     1      24.036   7.066  51.126  1.00  0.00     0.025 A 
HETATM   14  C7  UNL     1      23.469   5.837  51.397  1.00  0.00     0.027 A 
ENDBRANCH   5   8
ENDBRANCH   3   5
BRANCH   2  15
HETATM   15  C8  UNL     1      26.553   1.089  52.798  1.00  0.00     0.050 A 
HETATM   16  C9  UNL     1      26.509  -0.281  52.641  1.00  0.00     0.022 A 
HETATM   17  C10 UNL     1      27.589  -1.087  52.939  1.00  0.00     0.045 A 
HETATM   18  C11 UNL     1      28.691  -0.395  53.400  1.00  0.00     0.125 A 
HETATM   19 CL2  UNL     1      30.129  -1.328  53.812  1.00  0.00    -0.062 Cl
HETATM   20  N2  UNL     1      28.793   0.934  53.575  1.00  0.00    -0.248 NA
HETATM   21  C12 UNL     1      27.718   1.701  53.274  1.00  0.00     0.135 A 
ENDBRANCH   2  15
TORSDOF 3
ENDMDL
MODEL 8
REMARK VINA RESULT:      -6.7      3.867      7.070
REMARK  3 active torsions:
REMARK  status: ('A' for Active; 'I' for Inactive)
REMARK       I    between atoms: C1_2  and  N1_3 
REMARK    1  A    between atoms: C1_2  and  C8_14 
REMARK    2  A    between atoms: N1_3  and  S1_4 
REMARK    3  A    between atoms: S1_4  and  C2_7 
ROOT
HETATM    1  O1  UNL     1      25.103   3.170  51.390  1.00  0.00    -0.267 OA
HETATM    2  C1  UNL     1      24.968   2.103  52.051  1.00  0.00     0.266 C 
HETATM    3  N1  UNL     1      23.628   1.784  52.373  1.00  0.00    -0.246 N 
HETATM    4  H1  UNL     1      23.392   0.940  52.908  1.00  0.00     0.182 HD
ENDROOT
BRANCH   3   5
HETATM    5  S1  UNL     1      22.434   2.869  51.828  1.00  0.00     0.265 S 
HETATM    6  O2  UNL     1      22.726   4.232  52.378  1.00  0.00    -0.200 OA
HETATM    7  O3  UNL     1      21.115   2.423  52.442  1.00  0.00    -0.200 OA
BRANCH   5   8
HETATM    8  C2  UNL     1      22.312   2.923  50.086  1.00  0.00     0.080 A 
HETATM    9  C3  UNL     1      22.225   4.210  49.545  1.00  0.00     0.027 A 
HETATM   10  C4  UNL     1      22.123   4.448  48.184  1.00  0.00     0.025 A 
HETATM   11  C5  UNL     1      22.108   3.361  47.345  1.00  0.00     0.034 A 
HETATM   12 CL1  UNL     1      21.980   3.590  45.595  1.00  0.00    -0.084 Cl
HETATM   13  C6  UNL     1      22.192   2.096  47.856  1.00  0.00     0.025 A 
HETATM   14  C7  UNL     1      22.293   1.863  49.212  1.00  0.00     0.027 A 
ENDBRANCH   5   8
ENDBRANCH   3   5
BRANCH   2  15
HETATM   15  C8  UNL     1      26.092   1.265  52.453  1.00  0.00     0.050 A 
HETATM   16  C9  UNL     1      26.043  -0.114  52.494  1.00  0.00     0.022 A 
HETATM   17  C10 UNL     1      27.128  -0.874  52.881  1.00  0.00     0.045 A 
HETATM   18  C11 UNL     1      28.242  -0.128  53.211  1.00  0.00     0.125 A 
HETATM   19 CL2  UNL     1      29.688  -1.000  53.719  1.00  0.00    -0.062 Cl
HETATM   20  N2  UNL     1      28.350   1.212  53.190  1.00  0.00    -0.248 NA
HETATM   21  C12 UNL     1      27.270   1.932  52.807  1.00  0.00     0.135 A 
ENDBRANCH   2  15
TORSDOF 3
ENDMDL
MODEL 9
REMARK VINA RESULT:      -6.6      3.609      4.228
REMARK  3 active torsions:
REMARK  status: ('A' for Active; 'I' for Inactive)
REMARK       I    between atoms: C1_2  and  N1_3 
REMARK    1  A    between atoms: C1_2  and  C8_14 
REMARK    2  A    between atoms: N1_3  and  S1_4 
REMARK    3  A    between atoms: S1_4  and  C2_7 
ROOT
HETATM    1  O1  UNL     1      23.363   2.697  49.134  1.00  0.00    -0.267 OA
HETATM    2  C1  UNL     1      23.853   3.701  49.723  1.00  0.00     0.266 C 
HETATM    3  N1  UNL     1      23.071   4.183  50.799  1.00  0.00    -0.246 N 
HETATM    4  H1  UNL     1      23.366   4.995  51.354  1.00  0.00     0.182 HD
ENDROOT
BRANCH   3   5
HETATM    5  S1  UNL     1      21.622   3.349  51.123  1.00  0.00     0.265 S 
HETATM    6  O2  UNL     1      20.967   2.988  49.823  1.00  0.00    -0.200 OA
HETATM    7  O3  UNL     1      20.692   4.328  51.823  1.00  0.00    -0.200 OA
BRANCH   5   8
HETATM    8  C2  UNL     1      21.865   1.924  52.104  1.00  0.00     0.080 A 
HETATM    9  C3  UNL     1      20.777   1.577  52.913  1.00  0.00     0.027 A 
HETATM   10  C4  UNL     1      20.788   0.479  53.757  1.00  0.00     0.025 A 
HETATM   11  C5  UNL     1      21.925  -0.292  53.788  1.00  0.00     0.034 A 
HETATM   12 CL1  UNL     1      22.009  -1.709  54.842  1.00  0.00    -0.084 Cl
HETATM   13  C6  UNL     1      22.997   0.032  53.004  1.00  0.00     0.025 A 
HETATM   14  C7  UNL     1      22.983   1.127  52.165  1.00  0.00     0.027 A 
ENDBRANCH   5   8
ENDBRANCH   3   5
BRANCH   2  15
HETATM   15  C8  UNL     1      25.116   4.317  49.334  1.00  0.00     0.050 A 
HETATM   16  C9  UNL     1      25.227   5.614  48.875  1.00  0.00     0.022 A 
HETATM   17  C10 UNL     1      26.441   6.163  48.516  1.00  0.00     0.045 A 
HETATM   18  C11 UNL     1      27.508   5.299  48.660  1.00  0.00     0.125 A 
HETATM   19 CL2  UNL     1      29.109   5.898  48.229  1.00  0.00    -0.062 Cl
HETATM   20  N2  UNL     1      27.463   4.029  49.099  1.00  0.00    -0.248 NA
HETATM   21  C12 UNL     1      26.259   3.516  49.446  1.00  0.00     0.135 A 
ENDBRANCH   2  15
TORSDOF 3
ENDMDL
