MODEL 1
REMARK VINA RESULT:      -8.1      0.000      0.000
REMARK  3 active torsions:
REMARK  status: ('A' for Active; 'I' for Inactive)
REMARK    1  A    between atoms: N1_1  and  C1_2 
REMARK    2  A    between atoms: C8_13  and  N6_14 
REMARK    3  A    between atoms: N6_14  and  C9_15 
ROOT
HETATM    1  C1  UNL     1      27.221   0.786  53.556  1.00  0.00     0.220 C 
HETATM    2  C2  UNL     1      26.672  -0.593  53.038  1.00  0.00     0.065 C 
HETATM    3  C3  UNL     1      25.302  -0.341  53.075  1.00  0.00     0.272 C 
HETATM    4  N2  UNL     1      23.976  -0.629  52.898  1.00  0.00     0.087 N 
HETATM    5  C4  UNL     1      23.395   0.645  53.434  1.00  0.00     0.306 C 
HETATM    6  C5  UNL     1      24.058   1.827  52.744  1.00  0.00    -0.020 C 
HETATM    7  C6  UNL     1      23.527   1.964  51.566  1.00  0.00     0.100 A 
HETATM    8  N3  UNL     1      22.508   1.019  51.189  1.00  0.00    -0.273 N 
HETATM    9  N4  UNL     1      21.943   1.155  49.938  1.00  0.00    -0.167 NA
HETATM   10  C7  UNL     1      22.240   2.044  49.080  1.00  0.00     0.257 A 
HETATM   11  N5  UNL     1      23.236   3.023  49.368  1.00  0.00    -0.220 NA
HETATM   12  C8  UNL     1      23.794   2.937  50.530  1.00  0.00     0.158 A 
HETATM   13  C15 UNL     1      25.183   2.448  53.453  1.00  0.00     0.040 C 
HETATM   14  C16 UNL     1      26.533   1.984  53.003  1.00  0.00     0.040 C 
HETATM   15  H8  UNL     1      23.532  -1.412  53.372  1.00  0.00     0.316 HD
HETATM   16  H11 UNL     1      22.079   0.207  51.626  1.00  0.00     0.189 HD
ENDROOT
BRANCH  12  17
HETATM   17  N6  UNL     1      24.734   3.949  50.777  1.00  0.00    -0.339 N 
HETATM   18  H13 UNL     1      24.658   4.298  51.752  1.00  0.00     0.167 HD
BRANCH  17  19
HETATM   19  C9  UNL     1      25.696   4.534  49.984  1.00  0.00     0.033 A 
HETATM   20  C10 UNL     1      25.570   5.903  49.687  1.00  0.00     0.029 A 
HETATM   21  C11 UNL     1      26.438   6.641  48.922  1.00  0.00     0.002 A 
HETATM   22  C12 UNL     1      27.542   6.078  48.362  1.00  0.00     0.000 A 
HETATM   23  C13 UNL     1      27.733   4.731  48.611  1.00  0.00     0.002 A 
HETATM   24  C14 UNL     1      26.826   4.017  49.396  1.00  0.00     0.029 A 
ENDBRANCH  17  19
ENDBRANCH  12  17
BRANCH   1  25
HETATM   25  N1  UNL     1      27.346   0.786  54.963  1.00  0.00     0.083 N 
HETATM   26  H1  UNL     1      27.017   1.705  55.333  1.00  0.00     0.313 HD
HETATM   27  H2  UNL     1      26.753   0.053  55.398  1.00  0.00     0.313 HD
ENDBRANCH   1  25
TORSDOF 3
ENDMDL
MODEL 2
REMARK VINA RESULT:      -8.1      3.084      5.898
REMARK  3 active torsions:
REMARK  status: ('A' for Active; 'I' for Inactive)
REMARK    1  A    between atoms: N1_1  and  C1_2 
REMARK    2  A    between atoms: C8_13  and  N6_14 
REMARK    3  A    between atoms: N6_14  and  C9_15 
ROOT
HETATM    1  C1  UNL     1      22.461   3.851  51.526  1.00  0.00     0.220 C 
HETATM    2  C2  UNL     1      21.163   3.759  52.408  1.00  0.00     0.065 C 
HETATM    3  C3  UNL     1      20.904   2.392  52.320  1.00  0.00     0.272 C 
HETATM    4  N2  UNL     1      20.229   1.231  52.585  1.00  0.00     0.087 N 
HETATM    5  C4  UNL     1      21.035   0.301  51.729  1.00  0.00     0.306 C 
HETATM    6  C5  UNL     1      22.510   0.465  52.062  1.00  0.00    -0.020 C 
HETATM    7  C6  UNL     1      22.755  -0.178  53.164  1.00  0.00     0.100 A 
HETATM    8  N3  UNL     1      21.647  -0.845  53.798  1.00  0.00    -0.273 N 
HETATM    9  N4  UNL     1      21.900  -1.526  54.971  1.00  0.00    -0.167 NA
HETATM   10  C7  UNL     1      23.026  -1.620  55.550  1.00  0.00     0.257 A 
HETATM   11  N5  UNL     1      24.180  -0.993  54.993  1.00  0.00    -0.220 NA
HETATM   12  C8  UNL     1      23.994  -0.343  53.892  1.00  0.00     0.158 A 
HETATM   13  C15 UNL     1      23.276   1.370  51.197  1.00  0.00     0.040 C 
HETATM   14  C16 UNL     1      23.445   2.755  51.740  1.00  0.00     0.040 C 
HETATM   15  H8  UNL     1      19.246   1.119  52.348  1.00  0.00     0.316 HD
HETATM   16  H11 UNL     1      20.654  -0.937  53.604  1.00  0.00     0.189 HD
ENDROOT
BRANCH  12  17
HETATM   17  N6  UNL     1      25.168   0.217  53.366  1.00  0.00    -0.339 N 
HETATM   18  H13 UNL     1      24.956   1.053  52.788  1.00  0.00     0.167 HD
BRANCH  17  19
HETATM   19  C9  UNL     1      26.494  -0.137  53.478  1.00  0.00     0.033 A 
HETATM   20  C10 UNL     1      27.315   0.622  54.332  1.00  0.00     0.029 A 
HETATM   21  C11 UNL     1      28.649   0.403  54.566  1.00  0.00     0.002 A 
HETATM   22  C12 UNL     1      29.316  -0.615  53.959  1.00  0.00     0.000 A 
HETATM   23  C13 UNL     1      28.573  -1.407  53.104  1.00  0.00     0.002 A 
HETATM   24  C14 UNL     1      27.216  -1.151  52.895  1.00  0.00     0.029 A 
ENDBRANCH  17  19
ENDBRANCH  12  17
BRANCH   1  25
HETATM   25  N1  UNL     1      22.138   4.086  50.171  1.00  0.00     0.083 N 
HETATM   26  H1  UNL     1      22.229   5.107  49.973  1.00  0.00     0.313 HD
HETATM   27  H2  UNL     1      22.792   3.593  49.534  1.00  0.00     0.313 HD
ENDBRANCH   1  25
TORSDOF 3
ENDMDL
MODEL 3
REMARK VINA RESULT:      -8.0      1.999      5.128
REMARK  3 active torsions:
REMARK  status: ('A' for Active; 'I' for Inactive)
REMARK    1  A    between atoms: N1_1  and  C1_2 
REMARK    2  A    between atoms: C8_13  and  N6_14 
REMARK    3  A    between atoms: N6_14  and  C9_15 
ROOT
HETATM    1  C1  UNL     1      21.887   0.770  52.286  1.00  0.00     0.220 C 
HETATM    2  C2  UNL     1      21.146   1.751  51.305  1.00  0.00     0.065 C 
HETATM    3  C3  UNL     1      21.825   2.935  51.585  1.00  0.00     0.272 C 
HETATM    4  N2  UNL     1      22.127   4.263  51.443  1.00  0.00     0.087 N 
HETATM    5  C4  UNL     1      23.171   4.372  52.513  1.00  0.00     0.306 C 
HETATM    6  C5  UNL     1      24.215   3.287  52.308  1.00  0.00    -0.020 C 
HETATM    7  C6  UNL     1      25.012   3.661  51.352  1.00  0.00     0.100 A 
HETATM    8  N3  UNL     1      24.741   4.929  50.726  1.00  0.00    -0.273 N 
HETATM    9  N4  UNL     1      25.581   5.331  49.709  1.00  0.00    -0.167 NA
HETATM   10  C7  UNL     1      26.581   4.682  49.268  1.00  0.00     0.257 A 
HETATM   11  N5  UNL     1      26.926   3.417  49.830  1.00  0.00    -0.220 NA
HETATM   12  C8  UNL     1      26.168   2.998  50.788  1.00  0.00     0.158 A 
HETATM   13  C15 UNL     1      24.038   2.056  53.088  1.00  0.00     0.040 C 
HETATM   14  C16 UNL     1      23.363   0.943  52.350  1.00  0.00     0.040 C 
HETATM   15  H8  UNL     1      21.429   4.988  51.595  1.00  0.00     0.316 HD
HETATM   16  H11 UNL     1      24.031   5.649  50.832  1.00  0.00     0.189 HD
ENDROOT
BRANCH  12  17
HETATM   17  N6  UNL     1      26.578   1.771  51.332  1.00  0.00    -0.339 N 
HETATM   18  H13 UNL     1      26.161   0.975  50.812  1.00  0.00     0.167 HD
BRANCH  17  19
HETATM   19  C9  UNL     1      27.399   1.457  52.392  1.00  0.00     0.033 A 
HETATM   20  C10 UNL     1      27.474   0.112  52.798  1.00  0.00     0.029 A 
HETATM   21  C11 UNL     1      28.245  -0.374  53.824  1.00  0.00     0.002 A 
HETATM   22  C12 UNL     1      29.033   0.447  54.567  1.00  0.00     0.000 A 
HETATM   23  C13 UNL     1      29.012   1.787  54.225  1.00  0.00     0.002 A 
HETATM   24  C14 UNL     1      28.215   2.240  53.173  1.00  0.00     0.029 A 
ENDBRANCH  17  19
ENDBRANCH  12  17
BRANCH   1  25
HETATM   25  N1  UNL     1      21.250   0.738  53.546  1.00  0.00     0.083 N 
HETATM   26  H1  UNL     1      20.223   0.867  53.412  1.00  0.00     0.313 HD
HETATM   27  H2  UNL     1      21.383  -0.179  54.016  1.00  0.00     0.313 HD
ENDBRANCH   1  25
TORSDOF 3
ENDMDL
MODEL 4
REMARK VINA RESULT:      -7.5      2.739      5.789
REMARK  3 active torsions:
REMARK  status: ('A' for Active; 'I' for Inactive)
REMARK    1  A    between atoms: N1_1  and  C1_2 
REMARK    2  A    between atoms: C8_13  and  N6_14 
REMARK    3  A    between atoms: N6_14  and  C9_15 
ROOT
HETATM    1  C1  UNL     1      27.619   0.097  54.451  1.00  0.00     0.220 C 
HETATM    2  C2  UNL     1      28.262   1.531  54.384  1.00  0.00     0.065 C 
HETATM    3  C3  UNL     1      27.778   1.958  53.148  1.00  0.00     0.272 C 
HETATM    4  N2  UNL     1      27.599   2.839  52.116  1.00  0.00     0.087 N 
HETATM    5  C4  UNL     1      26.792   1.961  51.207  1.00  0.00     0.306 C 
HETATM    6  C5  UNL     1      25.619   1.383  51.981  1.00  0.00    -0.020 C 
HETATM    7  C6  UNL     1      24.700   2.297  52.076  1.00  0.00     0.100 A 
HETATM    8  N3  UNL     1      24.983   3.579  51.483  1.00  0.00    -0.273 N 
HETATM    9  N4  UNL     1      24.014   4.556  51.584  1.00  0.00    -0.167 NA
HETATM   10  C7  UNL     1      22.886   4.430  52.155  1.00  0.00     0.257 A 
HETATM   11  N5  UNL     1      22.520   3.195  52.767  1.00  0.00    -0.220 NA
HETATM   12  C8  UNL     1      23.395   2.248  52.698  1.00  0.00     0.158 A 
HETATM   13  C15 UNL     1      25.806   0.040  52.543  1.00  0.00     0.040 C 
HETATM   14  C16 UNL     1      26.207   0.020  53.985  1.00  0.00     0.040 C 
HETATM   15  H8  UNL     1      28.386   3.214  51.592  1.00  0.00     0.316 HD
HETATM   16  H11 UNL     1      25.773   3.988  50.992  1.00  0.00     0.189 HD
ENDROOT
BRANCH  12  17
HETATM   17  N6  UNL     1      22.967   1.044  53.278  1.00  0.00    -0.339 N 
HETATM   18  H13 UNL     1      23.732   0.598  53.819  1.00  0.00     0.167 HD
BRANCH  17  19
HETATM   19  C9  UNL     1      21.759   0.382  53.251  1.00  0.00     0.033 A 
HETATM   20  C10 UNL     1      21.593  -0.730  54.095  1.00  0.00     0.029 A 
HETATM   21  C11 UNL     1      20.458  -1.495  54.201  1.00  0.00     0.002 A 
HETATM   22  C12 UNL     1      19.351  -1.225  53.457  1.00  0.00     0.000 A 
HETATM   23  C13 UNL     1      19.440  -0.143  52.602  1.00  0.00     0.002 A 
HETATM   24  C14 UNL     1      20.613   0.611  52.527  1.00  0.00     0.029 A 
ENDBRANCH  17  19
ENDBRANCH  12  17
BRANCH   1  25
HETATM   25  N1  UNL     1      28.473  -0.870  53.877  1.00  0.00     0.083 N 
HETATM   26  H1  UNL     1      28.932  -1.413  54.641  1.00  0.00     0.313 HD
HETATM   27  H2  UNL     1      27.945  -1.548  53.297  1.00  0.00     0.313 HD
ENDBRANCH   1  25
TORSDOF 3
ENDMDL
MODEL 5
REMARK VINA RESULT:      -7.3      2.442      6.887
REMARK  3 active torsions:
REMARK  status: ('A' for Active; 'I' for Inactive)
REMARK    1  A    between atoms: N1_1  and  C1_2 
REMARK    2  A    between atoms: C8_13  and  N6_14 
REMARK    3  A    between atoms: N6_14  and  C9_15 
ROOT
HETATM    1  C1  UNL     1      22.473   4.100  48.896  1.00  0.00     0.220 C 
HETATM    2  C2  UNL     1      23.881   4.792  49.000  1.00  0.00     0.065 C 
HETATM    3  C3  UNL     1      23.989   4.918  50.384  1.00  0.00     0.272 C 
HETATM    4  N2  UNL     1      24.601   5.256  51.561  1.00  0.00     0.087 N 
HETATM    5  C4  UNL     1      23.500   4.873  52.505  1.00  0.00     0.306 C 
HETATM    6  C5  UNL     1      23.060   3.449  52.210  1.00  0.00    -0.020 C 
HETATM    7  C6  UNL     1      23.928   2.636  52.735  1.00  0.00     0.100 A 
HETATM    8  N3  UNL     1      25.051   3.222  53.419  1.00  0.00    -0.273 N 
HETATM    9  N4  UNL     1      25.977   2.365  53.975  1.00  0.00    -0.167 NA
HETATM   10  C7  UNL     1      25.933   1.095  53.939  1.00  0.00     0.257 A 
HETATM   11  N5  UNL     1      24.856   0.428  53.285  1.00  0.00    -0.220 NA
HETATM   12  C8  UNL     1      23.961   1.189  52.749  1.00  0.00     0.158 A 
HETATM   13  C15 UNL     1      21.893   3.295  51.333  1.00  0.00     0.040 C 
HETATM   14  C16 UNL     1      22.224   3.029  49.898  1.00  0.00     0.040 C 
HETATM   15  H8  UNL     1      24.882   6.214  51.761  1.00  0.00     0.316 HD
HETATM   16  H11 UNL     1      25.373   4.170  53.596  1.00  0.00     0.189 HD
ENDROOT
BRANCH  12  17
HETATM   17  N6  UNL     1      22.903   0.482  52.157  1.00  0.00    -0.339 N 
HETATM   18  H13 UNL     1      23.035   0.405  51.130  1.00  0.00     0.167 HD
BRANCH  17  19
HETATM   19  C9  UNL     1      21.771  -0.100  52.682  1.00  0.00     0.033 A 
HETATM   20  C10 UNL     1      20.528   0.234  52.114  1.00  0.00     0.029 A 
HETATM   21  C11 UNL     1      19.309  -0.257  52.506  1.00  0.00     0.002 A 
HETATM   22  C12 UNL     1      19.200  -1.148  53.527  1.00  0.00     0.000 A 
HETATM   23  C13 UNL     1      20.383  -1.526  54.136  1.00  0.00     0.002 A 
HETATM   24  C14 UNL     1      21.604  -1.003  53.704  1.00  0.00     0.029 A 
ENDBRANCH  17  19
ENDBRANCH  12  17
BRANCH   1  25
HETATM   25  N1  UNL     1      21.442   5.061  48.804  1.00  0.00     0.083 N 
HETATM   26  H1  UNL     1      21.196   5.199  47.799  1.00  0.00     0.313 HD
HETATM   27  H2  UNL     1      20.580   4.742  49.287  1.00  0.00     0.313 HD
ENDBRANCH   1  25
TORSDOF 3
ENDMDL
MODEL 6
REMARK VINA RESULT:      -7.2      1.884      5.427
REMARK  3 active torsions:
REMARK  status: ('A' for Active; 'I' for Inactive)
REMARK    1  A    between atoms: N1_1  and  C1_2 
REMARK    2  A    between atoms: C8_13  and  N6_14 
REMARK    3  A    between atoms: N6_14  and  C9_15 
ROOT
HETATM    1  C1  UNL     1      24.956   5.572  50.320  1.00  0.00     0.220 C 
HETATM    2  C2  UNL     1      23.682   5.979  51.147  1.00  0.00     0.065 C 
HETATM    3  C3  UNL     1      22.870   4.871  50.906  1.00  0.00     0.272 C 
HETATM    4  N2  UNL     1      21.746   4.100  51.026  1.00  0.00     0.087 N 
HETATM    5  C4  UNL     1      22.137   2.986  50.101  1.00  0.00     0.306 C 
HETATM    6  C5  UNL     1      23.511   2.468  50.494  1.00  0.00    -0.020 C 
HETATM    7  C6  UNL     1      23.375   1.694  51.529  1.00  0.00     0.100 A 
HETATM    8  N3  UNL     1      22.045   1.522  52.054  1.00  0.00    -0.273 N 
HETATM    9  N4  UNL     1      21.895   0.705  53.155  1.00  0.00    -0.167 NA
HETATM   10  C7  UNL     1      22.827   0.084  53.755  1.00  0.00     0.257 A 
HETATM   11  N5  UNL     1      24.176   0.193  53.303  1.00  0.00    -0.220 NA
HETATM   12  C8  UNL     1      24.368   0.948  52.272  1.00  0.00     0.158 A 
HETATM   13  C15 UNL     1      24.652   3.019  49.754  1.00  0.00     0.040 C 
HETATM   14  C16 UNL     1      25.357   4.144  50.446  1.00  0.00     0.040 C 
HETATM   15  H8  UNL     1      20.830   4.445  50.749  1.00  0.00     0.316 HD
HETATM   16  H11 UNL     1      21.125   1.886  51.821  1.00  0.00     0.189 HD
ENDROOT
BRANCH  12  17
HETATM   17  N6  UNL     1      25.703   0.986  51.845  1.00  0.00    -0.339 N 
HETATM   18  H13 UNL     1      25.765   1.203  50.832  1.00  0.00     0.167 HD
BRANCH  17  19
HETATM   19  C9  UNL     1      26.894   0.791  52.510  1.00  0.00     0.033 A 
HETATM   20  C10 UNL     1      27.360  -0.527  52.666  1.00  0.00     0.029 A 
HETATM   21  C11 UNL     1      28.524  -0.898  53.290  1.00  0.00     0.002 A 
HETATM   22  C12 UNL     1      29.359   0.026  53.838  1.00  0.00     0.000 A 
HETATM   23  C13 UNL     1      28.966   1.347  53.723  1.00  0.00     0.002 A 
HETATM   24  C14 UNL     1      27.774   1.682  53.077  1.00  0.00     0.029 A 
ENDBRANCH  17  19
ENDBRANCH  12  17
BRANCH   1  25
HETATM   25  N1  UNL     1      24.865   6.034  48.989  1.00  0.00     0.083 N 
HETATM   26  H1  UNL     1      25.440   5.416  48.375  1.00  0.00     0.313 HD
HETATM   27  H2  UNL     1      23.890   5.991  48.636  1.00  0.00     0.313 HD
ENDBRANCH   1  25
TORSDOF 3
ENDMDL
MODEL 7
REMARK VINA RESULT:      -7.0      2.037      4.989
REMARK  3 active torsions:
REMARK  status: ('A' for Active; 'I' for Inactive)
REMARK    1  A    between atoms: N1_1  and  C1_2 
REMARK    2  A    between atoms: C8_13  and  N6_14 
REMARK    3  A    between atoms: N6_14  and  C9_15 
ROOT
HETATM    1  C1  UNL     1      25.366   4.159  49.923  1.00  0.00     0.220 C 
HETATM    2  C2  UNL     1      26.415   2.987  49.933  1.00  0.00     0.065 C 
HETATM    3  C3  UNL     1      26.306   2.573  51.259  1.00  0.00     0.272 C 
HETATM    4  N2  UNL     1      26.584   1.791  52.348  1.00  0.00     0.087 N 
HETATM    5  C4  UNL     1      25.720   2.491  53.354  1.00  0.00     0.306 C 
HETATM    6  C5  UNL     1      24.310   2.621  52.800  1.00  0.00    -0.020 C 
HETATM    7  C6  UNL     1      23.711   1.476  52.934  1.00  0.00     0.100 A 
HETATM    8  N3  UNL     1      24.467   0.400  53.522  1.00  0.00    -0.273 N 
HETATM    9  N4  UNL     1      23.838  -0.819  53.662  1.00  0.00    -0.167 NA
HETATM   10  C7  UNL     1      22.644  -1.085  53.319  1.00  0.00     0.257 A 
HETATM   11  N5  UNL     1      21.819  -0.081  52.732  1.00  0.00    -0.220 NA
HETATM   12  C8  UNL     1      22.364   1.081  52.579  1.00  0.00     0.158 A 
HETATM   13  C15 UNL     1      23.982   3.893  52.146  1.00  0.00     0.040 C 
HETATM   14  C16 UNL     1      24.101   3.875  50.654  1.00  0.00     0.040 C 
HETATM   15  H8  UNL     1      27.526   1.718  52.725  1.00  0.00     0.316 HD
HETATM   16  H11 UNL     1      25.417   0.291  53.867  1.00  0.00     0.189 HD
ENDROOT
BRANCH  12  17
HETATM   17  N6  UNL     1      21.497   2.041  52.037  1.00  0.00    -0.339 N 
HETATM   18  H13 UNL     1      21.117   2.660  52.778  1.00  0.00     0.167 HD
BRANCH  17  19
HETATM   19  C9  UNL     1      21.082   2.291  50.748  1.00  0.00     0.033 A 
HETATM   20  C10 UNL     1      21.604   1.490  49.715  1.00  0.00     0.029 A 
HETATM   21  C11 UNL     1      21.293   1.596  48.383  1.00  0.00     0.002 A 
HETATM   22  C12 UNL     1      20.415   2.532  47.933  1.00  0.00     0.000 A 
HETATM   23  C13 UNL     1      19.860   3.358  48.893  1.00  0.00     0.002 A 
HETATM   24  C14 UNL     1      20.201   3.215  50.240  1.00  0.00     0.029 A 
ENDBRANCH  17  19
ENDBRANCH  12  17
BRANCH   1  25
HETATM   25  N1  UNL     1      25.973   5.386  50.269  1.00  0.00     0.083 N 
HETATM   26  H1  UNL     1      25.368   5.882  50.960  1.00  0.00     0.313 HD
HETATM   27  H2  UNL     1      26.896   5.240  50.721  1.00  0.00     0.313 HD
ENDBRANCH   1  25
TORSDOF 3
ENDMDL
MODEL 8
REMARK VINA RESULT:      -6.9      2.295      5.151
REMARK  3 active torsions:
REMARK  status: ('A' for Active; 'I' for Inactive)
REMARK    1  A    between atoms: N1_1  and  C1_2 
REMARK    2  A    between atoms: C8_13  and  N6_14 
REMARK    3  A    between atoms: N6_14  and  C9_15 
ROOT
HETATM    1  C1  UNL     1      25.840   0.526  53.907  1.00  0.00     0.220 C 
HETATM    2  C2  UNL     1      27.005   1.582  53.921  1.00  0.00     0.065 C 
HETATM    3  C3  UNL     1      26.850   2.133  52.651  1.00  0.00     0.272 C 
HETATM    4  N2  UNL     1      27.135   2.986  51.618  1.00  0.00     0.087 N 
HETATM    5  C4  UNL     1      26.134   2.479  50.624  1.00  0.00     0.306 C 
HETATM    6  C5  UNL     1      24.760   2.437  51.273  1.00  0.00    -0.020 C 
HETATM    7  C6  UNL     1      24.279   3.644  51.292  1.00  0.00     0.100 A 
HETATM    8  N3  UNL     1      25.104   4.691  50.746  1.00  0.00    -0.273 N 
HETATM    9  N4  UNL     1      24.601   5.975  50.766  1.00  0.00    -0.167 NA
HETATM   10  C7  UNL     1      23.469   6.325  51.224  1.00  0.00     0.257 A 
HETATM   11  N5  UNL     1      22.584   5.355  51.782  1.00  0.00    -0.220 NA
HETATM   12  C8  UNL     1      23.011   4.136  51.785  1.00  0.00     0.158 A 
HETATM   13  C15 UNL     1      24.342   1.146  51.833  1.00  0.00     0.040 C 
HETATM   14  C16 UNL     1      24.565   1.006  53.307  1.00  0.00     0.040 C 
HETATM   15  H8  UNL     1      28.052   3.002  51.176  1.00  0.00     0.316 HD
HETATM   16  H11 UNL     1      26.034   4.738  50.339  1.00  0.00     0.189 HD
ENDROOT
BRANCH  12  17
HETATM   17  N6  UNL     1      22.085   3.218  52.304  1.00  0.00    -0.339 N 
HETATM   18  H13 UNL     1      22.140   3.179  53.340  1.00  0.00     0.167 HD
BRANCH  17  19
HETATM   19  C9  UNL     1      21.158   2.396  51.702  1.00  0.00     0.033 A 
HETATM   20  C10 UNL     1      20.527   1.417  52.490  1.00  0.00     0.029 A 
HETATM   21  C11 UNL     1      19.579   0.526  52.055  1.00  0.00     0.002 A 
HETATM   22  C12 UNL     1      19.156   0.517  50.762  1.00  0.00     0.000 A 
HETATM   23  C13 UNL     1      19.733   1.455  49.926  1.00  0.00     0.002 A 
HETATM   24  C14 UNL     1      20.693   2.346  50.409  1.00  0.00     0.029 A 
ENDBRANCH  17  19
ENDBRANCH  12  17
BRANCH   1  25
HETATM   25  N1  UNL     1      26.287  -0.716  53.405  1.00  0.00     0.083 N 
HETATM   26  H1  UNL     1      27.327  -0.692  53.316  1.00  0.00     0.313 HD
HETATM   27  H2  UNL     1      26.055  -1.494  54.053  1.00  0.00     0.313 HD
ENDBRANCH   1  25
TORSDOF 3
ENDMDL
MODEL 9
REMARK VINA RESULT:      -6.9      1.811      4.425
REMARK  3 active torsions:
REMARK  status: ('A' for Active; 'I' for Inactive)
REMARK    1  A    between atoms: N1_1  and  C1_2 
REMARK    2  A    between atoms: C8_13  and  N6_14 
REMARK    3  A    between atoms: N6_14  and  C9_15 
ROOT
HETATM    1  C1  UNL     1      20.485   3.772  50.378  1.00  0.00     0.220 C 
HETATM    2  C2  UNL     1      20.267   3.620  51.928  1.00  0.00     0.065 C 
HETATM    3  C3  UNL     1      20.962   2.434  52.157  1.00  0.00     0.272 C 
HETATM    4  N2  UNL     1      21.470   1.413  52.915  1.00  0.00     0.087 N 
HETATM    5  C4  UNL     1      22.087   0.602  51.815  1.00  0.00     0.306 C 
HETATM    6  C5  UNL     1      22.981   1.497  50.972  1.00  0.00    -0.020 C 
HETATM    7  C6  UNL     1      24.101   1.671  51.607  1.00  0.00     0.100 A 
HETATM    8  N3  UNL     1      24.236   1.035  52.892  1.00  0.00    -0.273 N 
HETATM    9  N4  UNL     1      25.421   1.219  53.574  1.00  0.00    -0.167 NA
HETATM   10  C7  UNL     1      26.414   1.902  53.171  1.00  0.00     0.257 A 
HETATM   11  N5  UNL     1      26.370   2.565  51.909  1.00  0.00    -0.220 NA
HETATM   12  C8  UNL     1      25.279   2.422  51.232  1.00  0.00     0.158 A 
HETATM   13  C15 UNL     1      22.381   2.056  49.755  1.00  0.00     0.040 C 
HETATM   14  C16 UNL     1      21.858   3.451  49.903  1.00  0.00     0.040 C 
HETATM   15  H8  UNL     1      20.867   0.807  53.467  1.00  0.00     0.316 HD
HETATM   16  H11 UNL     1      23.636   0.461  53.480  1.00  0.00     0.189 HD
ENDROOT
BRANCH  12  17
HETATM   17  N6  UNL     1      25.307   3.058  49.982  1.00  0.00    -0.339 N 
HETATM   18  H13 UNL     1      24.789   2.506  49.271  1.00  0.00     0.167 HD
BRANCH  17  19
HETATM   19  C9  UNL     1      25.879   4.236  49.555  1.00  0.00     0.033 A 
HETATM   20  C10 UNL     1      27.171   4.184  49.000  1.00  0.00     0.029 A 
HETATM   21  C11 UNL     1      27.881   5.255  48.520  1.00  0.00     0.002 A 
HETATM   22  C12 UNL     1      27.367   6.514  48.546  1.00  0.00     0.000 A 
HETATM   23  C13 UNL     1      26.098   6.644  49.078  1.00  0.00     0.002 A 
HETATM   24  C14 UNL     1      25.408   5.527  49.555  1.00  0.00     0.029 A 
ENDBRANCH  17  19
ENDBRANCH  12  17
BRANCH   1  25
HETATM   25  N1  UNL     1      19.455   3.129  49.656  1.00  0.00     0.083 N 
HETATM   26  H1  UNL     1      19.549   2.096  49.779  1.00  0.00     0.313 HD
HETATM   27  H2  UNL     1      18.518   3.394  50.013  1.00  0.00     0.313 HD
ENDBRANCH   1  25
TORSDOF 3
ENDMDL
