MODEL 1
REMARK VINA RESULT:      -6.9      0.000      0.000
REMARK  7 active torsions:
REMARK  status: ('A' for Active; 'I' for Inactive)
REMARK    1  A    between atoms: O1_2  and  C2_3 
REMARK    2  A    between atoms: C6_7  and  N1_8 
REMARK    3  A    between atoms: C6_7  and  N3_11 
REMARK    4  A    between atoms: N1_8  and  C7_9 
REMARK    5  A    between atoms: C7_9  and  N2_10 
REMARK    6  A    between atoms: N3_11  and  C8_12 
REMARK    7  A    between atoms: C15_20  and  O2_21 
ROOT
HETATM    1  C2  UNL     1      27.490   1.155  53.416  1.00  0.00     0.098 A 
HETATM    2  C3  UNL     1      26.532   1.996  53.069  1.00  0.00     0.017 A 
HETATM    3  C4  UNL     1      25.080   1.734  52.940  1.00  0.00     0.072 A 
HETATM    4  C5  UNL     1      24.785   0.322  53.265  1.00  0.00    -0.006 A 
HETATM    5  C6  UNL     1      23.537  -0.085  53.203  1.00  0.00     0.137 C 
HETATM    6  C14 UNL     1      25.857  -0.584  53.646  1.00  0.00     0.050 A 
HETATM    7  C15 UNL     1      27.124  -0.218  53.723  1.00  0.00     0.101 A 
ENDROOT
BRANCH   5   8
HETATM    8  N1  UNL     1      22.817  -1.283  53.415  1.00  0.00    -0.208 NA
BRANCH   8   9
HETATM    9  C7  UNL     1      21.970  -1.421  54.368  1.00  0.00     0.192 C 
BRANCH   9  10
HETATM   10  N2  UNL     1      20.795  -1.281  54.860  1.00  0.00    -0.279 NA
HETATM   11  H7  UNL     1      20.402  -0.351  55.099  1.00  0.00     0.189 HD
ENDBRANCH   9  10
ENDBRANCH   8   9
ENDBRANCH   5   8
BRANCH   5  12
HETATM   12  N3  UNL     1      22.486   0.796  52.831  1.00  0.00    -0.340 N 
HETATM   13  H8  UNL     1      22.208   1.499  53.533  1.00  0.00     0.167 HD
BRANCH  12  14
HETATM   14  C8  UNL     1      21.691   0.946  51.666  1.00  0.00     0.035 A 
HETATM   15  C9  UNL     1      20.344   0.649  51.711  1.00  0.00     0.029 A 
HETATM   16  C10 UNL     1      19.607   0.808  50.571  1.00  0.00     0.004 A 
HETATM   17  C11 UNL     1      20.236   1.257  49.421  1.00  0.00     0.019 A 
HETATM   18  C12 UNL     1      21.588   1.552  49.388  1.00  0.00     0.013 A 
HETATM   19 BR1  UNL     1      22.417   2.172  47.777  1.00  0.00    -0.051 Br
HETATM   20  C13 UNL     1      22.351   1.399  50.529  1.00  0.00     0.048 A 
ENDBRANCH  12  14
ENDBRANCH   5  12
BRANCH   7  21
HETATM   21  O2  UNL     1      28.183  -1.040  54.079  1.00  0.00    -0.353 OA
HETATM   22  C16 UNL     1      28.997  -1.706  53.119  1.00  0.00     0.210 C 
ENDBRANCH   7  21
BRANCH   1  23
HETATM   23  O1  UNL     1      28.745   1.744  53.434  1.00  0.00    -0.353 OA
HETATM   24  C1  UNL     1      29.480   2.002  54.602  1.00  0.00     0.210 C 
ENDBRANCH   1  23
TORSDOF 7
ENDMDL
MODEL 2
REMARK VINA RESULT:      -6.8      2.067      3.566
REMARK  7 active torsions:
REMARK  status: ('A' for Active; 'I' for Inactive)
REMARK    1  A    between atoms: O1_2  and  C2_3 
REMARK    2  A    between atoms: C6_7  and  N1_8 
REMARK    3  A    between atoms: C6_7  and  N3_11 
REMARK    4  A    between atoms: N1_8  and  C7_9 
REMARK    5  A    between atoms: C7_9  and  N2_10 
REMARK    6  A    between atoms: N3_11  and  C8_12 
REMARK    7  A    between atoms: C15_20  and  O2_21 
ROOT
HETATM    1  C2  UNL     1      27.404  -0.169  53.878  1.00  0.00     0.098 A 
HETATM    2  C3  UNL     1      26.455  -0.928  53.357  1.00  0.00     0.017 A 
HETATM    3  C4  UNL     1      25.141  -0.515  52.814  1.00  0.00     0.072 A 
HETATM    4  C5  UNL     1      24.981   0.951  52.923  1.00  0.00    -0.006 A 
HETATM    5  C6  UNL     1      23.867   1.491  52.485  1.00  0.00     0.137 C 
HETATM    6  C14 UNL     1      26.039   1.765  53.499  1.00  0.00     0.050 A 
HETATM    7  C15 UNL     1      27.176   1.265  53.951  1.00  0.00     0.101 A 
ENDROOT
BRANCH   5   8
HETATM    8  N1  UNL     1      23.299   2.783  52.388  1.00  0.00    -0.208 NA
BRANCH   8   9
HETATM    9  C7  UNL     1      23.022   3.333  51.263  1.00  0.00     0.192 C 
BRANCH   9  10
HETATM   10  N2  UNL     1      22.939   3.303  49.984  1.00  0.00    -0.279 NA
HETATM   11  H7  UNL     1      22.088   2.973  49.493  1.00  0.00     0.189 HD
ENDBRANCH   9  10
ENDBRANCH   8   9
ENDBRANCH   5   8
BRANCH   5  12
HETATM   12  N3  UNL     1      22.830   0.700  51.920  1.00  0.00    -0.340 N 
HETATM   13  H8  UNL     1      22.941   0.440  50.929  1.00  0.00     0.167 HD
BRANCH  12  14
HETATM   14  C8  UNL     1      21.619   0.157  52.424  1.00  0.00     0.035 A 
HETATM   15  C9  UNL     1      21.625  -0.545  53.612  1.00  0.00     0.029 A 
HETATM   16  C10 UNL     1      20.440  -1.052  54.070  1.00  0.00     0.004 A 
HETATM   17  C11 UNL     1      19.288  -0.841  53.329  1.00  0.00     0.019 A 
HETATM   18  C12 UNL     1      19.296  -0.134  52.139  1.00  0.00     0.013 A 
HETATM   19 BR1  UNL     1      17.680   0.134  51.147  1.00  0.00    -0.051 Br
HETATM   20  C13 UNL     1      20.481   0.386  51.658  1.00  0.00     0.048 A 
ENDBRANCH  12  14
ENDBRANCH   5  12
BRANCH   7  21
HETATM   21  O2  UNL     1      28.216   1.994  54.509  1.00  0.00    -0.353 OA
HETATM   22  C16 UNL     1      29.313   2.480  53.743  1.00  0.00     0.210 C 
ENDBRANCH   7  21
BRANCH   1  23
HETATM   23  O1  UNL     1      28.511  -0.895  54.289  1.00  0.00    -0.353 OA
HETATM   24  C1  UNL     1      29.604  -1.203  53.463  1.00  0.00     0.210 C 
ENDBRANCH   1  23
TORSDOF 7
ENDMDL
MODEL 3
REMARK VINA RESULT:      -6.8      4.844      6.628
REMARK  7 active torsions:
REMARK  status: ('A' for Active; 'I' for Inactive)
REMARK    1  A    between atoms: O1_2  and  C2_3 
REMARK    2  A    between atoms: C6_7  and  N1_8 
REMARK    3  A    between atoms: C6_7  and  N3_11 
REMARK    4  A    between atoms: N1_8  and  C7_9 
REMARK    5  A    between atoms: C7_9  and  N2_10 
REMARK    6  A    between atoms: N3_11  and  C8_12 
REMARK    7  A    between atoms: C15_20  and  O2_21 
ROOT
HETATM    1  C2  UNL     1      27.322   5.795  48.680  1.00  0.00     0.098 A 
HETATM    2  C3  UNL     1      27.378   4.479  48.786  1.00  0.00     0.017 A 
HETATM    3  C4  UNL     1      26.449   3.573  49.500  1.00  0.00     0.072 A 
HETATM    4  C5  UNL     1      25.363   4.352  50.134  1.00  0.00    -0.006 A 
HETATM    5  C6  UNL     1      24.444   3.702  50.812  1.00  0.00     0.137 C 
HETATM    6  C14 UNL     1      25.322   5.799  50.002  1.00  0.00     0.050 A 
HETATM    7  C15 UNL     1      26.224   6.492  49.329  1.00  0.00     0.101 A 
ENDROOT
BRANCH   5   8
HETATM    8  N1  UNL     1      23.278   4.009  51.550  1.00  0.00    -0.208 NA
BRANCH   8   9
HETATM    9  C7  UNL     1      23.307   4.688  52.638  1.00  0.00     0.192 C 
BRANCH   9  10
HETATM   10  N2  UNL     1      23.930   5.387  53.513  1.00  0.00    -0.279 NA
HETATM   11  H7  UNL     1      24.769   5.950  53.277  1.00  0.00     0.189 HD
ENDBRANCH   9  10
ENDBRANCH   8   9
ENDBRANCH   5   8
BRANCH   5  12
HETATM   12  N3  UNL     1      24.479   2.287  50.944  1.00  0.00    -0.340 N 
HETATM   13  H8  UNL     1      24.289   1.743  50.089  1.00  0.00     0.167 HD
BRANCH  12  14
HETATM   14  C8  UNL     1      24.726   1.405  52.027  1.00  0.00     0.035 A 
HETATM   15  C9  UNL     1      23.687   0.675  52.568  1.00  0.00     0.029 A 
HETATM   16  C10 UNL     1      23.961  -0.169  53.608  1.00  0.00     0.004 A 
HETATM   17  C11 UNL     1      25.262  -0.258  54.076  1.00  0.00     0.019 A 
HETATM   18  C12 UNL     1      26.296   0.479  53.524  1.00  0.00     0.013 A 
HETATM   19 BR1  UNL     1      28.081   0.324  54.201  1.00  0.00    -0.051 Br
HETATM   20  C13 UNL     1      26.041   1.337  52.472  1.00  0.00     0.048 A 
ENDBRANCH  12  14
ENDBRANCH   5  12
BRANCH   7  21
HETATM   21  O2  UNL     1      26.233   7.870  49.173  1.00  0.00    -0.353 OA
HETATM   22  C16 UNL     1      26.864   8.747  50.102  1.00  0.00     0.210 C 
ENDBRANCH   7  21
BRANCH   1  23
HETATM   23  O1  UNL     1      28.365   6.321  47.933  1.00  0.00    -0.353 OA
HETATM   24  C1  UNL     1      29.721   6.044  48.166  1.00  0.00     0.210 C 
ENDBRANCH   1  23
TORSDOF 7
ENDMDL
MODEL 4
REMARK VINA RESULT:      -6.7      3.189      4.545
REMARK  7 active torsions:
REMARK  status: ('A' for Active; 'I' for Inactive)
REMARK    1  A    between atoms: O1_2  and  C2_3 
REMARK    2  A    between atoms: C6_7  and  N1_8 
REMARK    3  A    between atoms: C6_7  and  N3_11 
REMARK    4  A    between atoms: N1_8  and  C7_9 
REMARK    5  A    between atoms: C7_9  and  N2_10 
REMARK    6  A    between atoms: N3_11  and  C8_12 
REMARK    7  A    between atoms: C15_20  and  O2_21 
ROOT
HETATM    1  C2  UNL     1      27.164  -0.214  53.747  1.00  0.00     0.098 A 
HETATM    2  C3  UNL     1      27.474   0.401  52.618  1.00  0.00     0.017 A 
HETATM    3  C4  UNL     1      26.584   1.161  51.711  1.00  0.00     0.072 A 
HETATM    4  C5  UNL     1      25.201   1.166  52.236  1.00  0.00    -0.006 A 
HETATM    5  C6  UNL     1      24.276   1.800  51.552  1.00  0.00     0.137 C 
HETATM    6  C14 UNL     1      24.886   0.483  53.481  1.00  0.00     0.050 A 
HETATM    7  C15 UNL     1      25.784  -0.166  54.201  1.00  0.00     0.101 A 
ENDROOT
BRANCH   5   8
HETATM    8  N1  UNL     1      22.890   2.059  51.660  1.00  0.00    -0.208 NA
BRANCH   8   9
HETATM    9  C7  UNL     1      22.046   1.683  50.770  1.00  0.00     0.192 C 
BRANCH   9  10
HETATM   10  N2  UNL     1      21.758   1.107  49.662  1.00  0.00    -0.279 NA
HETATM   11  H7  UNL     1      22.485   0.845  48.969  1.00  0.00     0.189 HD
ENDBRANCH   9  10
ENDBRANCH   8   9
ENDBRANCH   5   8
BRANCH   5  12
HETATM   12  N3  UNL     1      24.579   2.468  50.335  1.00  0.00    -0.340 N 
HETATM   13  H8  UNL     1      24.375   1.952  49.466  1.00  0.00     0.167 HD
BRANCH  12  14
HETATM   14  C8  UNL     1      25.122   3.741  50.019  1.00  0.00     0.035 A 
HETATM   15  C9  UNL     1      26.305   3.826  49.314  1.00  0.00     0.029 A 
HETATM   16  C10 UNL     1      26.797   5.068  49.023  1.00  0.00     0.004 A 
HETATM   17  C11 UNL     1      26.094   6.186  49.443  1.00  0.00     0.019 A 
HETATM   18  C12 UNL     1      24.907   6.086  50.150  1.00  0.00     0.013 A 
HETATM   19 BR1  UNL     1      23.966   7.657  50.711  1.00  0.00    -0.051 Br
HETATM   20  C13 UNL     1      24.392   4.842  50.454  1.00  0.00     0.048 A 
ENDBRANCH  12  14
ENDBRANCH   5  12
BRANCH   7  21
HETATM   21  O2  UNL     1      25.537  -0.833  55.392  1.00  0.00    -0.353 OA
HETATM   22  C16 UNL     1      24.254  -1.344  55.736  1.00  0.00     0.210 C 
ENDBRANCH   7  21
BRANCH   1  23
HETATM   23  O1  UNL     1      28.254  -0.831  54.341  1.00  0.00    -0.353 OA
HETATM   24  C1  UNL     1      29.571  -0.736  53.866  1.00  0.00     0.210 C 
ENDBRANCH   1  23
TORSDOF 7
ENDMDL
MODEL 5
REMARK VINA RESULT:      -6.7      4.907      6.712
REMARK  7 active torsions:
REMARK  status: ('A' for Active; 'I' for Inactive)
REMARK    1  A    between atoms: O1_2  and  C2_3 
REMARK    2  A    between atoms: C6_7  and  N1_8 
REMARK    3  A    between atoms: C6_7  and  N3_11 
REMARK    4  A    between atoms: N1_8  and  C7_9 
REMARK    5  A    between atoms: C7_9  and  N2_10 
REMARK    6  A    between atoms: N3_11  and  C8_12 
REMARK    7  A    between atoms: C15_20  and  O2_21 
ROOT
HETATM    1  C2  UNL     1      27.672   5.987  48.578  1.00  0.00     0.098 A 
HETATM    2  C3  UNL     1      27.608   4.669  48.653  1.00  0.00     0.017 A 
HETATM    3  C4  UNL     1      26.562   3.833  49.285  1.00  0.00     0.072 A 
HETATM    4  C5  UNL     1      25.509   4.690  49.873  1.00  0.00    -0.006 A 
HETATM    5  C6  UNL     1      24.497   4.109  50.476  1.00  0.00     0.137 C 
HETATM    6  C14 UNL     1      25.601   6.138  49.776  1.00  0.00     0.050 A 
HETATM    7  C15 UNL     1      26.599   6.764  49.178  1.00  0.00     0.101 A 
ENDROOT
BRANCH   5   8
HETATM    8  N1  UNL     1      23.318   4.501  51.151  1.00  0.00    -0.208 NA
BRANCH   8   9
HETATM    9  C7  UNL     1      23.336   5.081  52.294  1.00  0.00     0.192 C 
BRANCH   9  10
HETATM   10  N2  UNL     1      23.868   5.297  53.440  1.00  0.00    -0.279 NA
HETATM   11  H7  UNL     1      24.819   5.701  53.541  1.00  0.00     0.189 HD
ENDBRANCH   9  10
ENDBRANCH   8   9
ENDBRANCH   5   8
BRANCH   5  12
HETATM   12  N3  UNL     1      24.402   2.694  50.573  1.00  0.00    -0.340 N 
HETATM   13  H8  UNL     1      24.087   2.198  49.726  1.00  0.00     0.167 HD
BRANCH  12  14
HETATM   14  C8  UNL     1      24.652   1.758  51.610  1.00  0.00     0.035 A 
HETATM   15  C9  UNL     1      25.952   1.467  51.972  1.00  0.00     0.029 A 
HETATM   16  C10 UNL     1      26.156   0.564  52.978  1.00  0.00     0.004 A 
HETATM   17  C11 UNL     1      25.059  -0.020  53.590  1.00  0.00     0.019 A 
HETATM   18  C12 UNL     1      23.760   0.281  53.217  1.00  0.00     0.013 A 
HETATM   19 BR1  UNL     1      22.272  -0.550  54.091  1.00  0.00    -0.051 Br
HETATM   20  C13 UNL     1      23.531   1.191  52.204  1.00  0.00     0.048 A 
ENDBRANCH  12  14
ENDBRANCH   5  12
BRANCH   7  21
HETATM   21  O2  UNL     1      26.736   8.139  49.059  1.00  0.00    -0.353 OA
HETATM   22  C16 UNL     1      26.957   8.991  50.178  1.00  0.00     0.210 C 
ENDBRANCH   7  21
BRANCH   1  23
HETATM   23  O1  UNL     1      28.801   6.435  47.910  1.00  0.00    -0.353 OA
HETATM   24  C1  UNL     1      30.061   5.821  47.988  1.00  0.00     0.210 C 
ENDBRANCH   1  23
TORSDOF 7
ENDMDL
MODEL 6
REMARK VINA RESULT:      -6.4      3.955      7.470
REMARK  7 active torsions:
REMARK  status: ('A' for Active; 'I' for Inactive)
REMARK    1  A    between atoms: O1_2  and  C2_3 
REMARK    2  A    between atoms: C6_7  and  N1_8 
REMARK    3  A    between atoms: C6_7  and  N3_11 
REMARK    4  A    between atoms: N1_8  and  C7_9 
REMARK    5  A    between atoms: C7_9  and  N2_10 
REMARK    6  A    between atoms: N3_11  and  C8_12 
REMARK    7  A    between atoms: C15_20  and  O2_21 
ROOT
HETATM    1  C2  UNL     1      21.361   0.517  51.578  1.00  0.00     0.098 A 
HETATM    2  C3  UNL     1      22.100   0.513  52.674  1.00  0.00     0.017 A 
HETATM    3  C4  UNL     1      23.448   1.092  52.876  1.00  0.00     0.072 A 
HETATM    4  C5  UNL     1      23.924   1.727  51.628  1.00  0.00    -0.006 A 
HETATM    5  C6  UNL     1      25.109   2.294  51.630  1.00  0.00     0.137 C 
HETATM    6  C14 UNL     1      23.092   1.718  50.436  1.00  0.00     0.050 A 
HETATM    7  C15 UNL     1      21.895   1.161  50.389  1.00  0.00     0.101 A 
ENDROOT
BRANCH   5   8
HETATM    8  N1  UNL     1      25.937   2.987  50.717  1.00  0.00    -0.208 NA
BRANCH   8   9
HETATM    9  C7  UNL     1      25.694   4.187  50.337  1.00  0.00     0.192 C 
BRANCH   9  10
HETATM   10  N2  UNL     1      26.076   5.373  50.036  1.00  0.00    -0.279 NA
HETATM   11  H7  UNL     1      26.116   6.136  50.739  1.00  0.00     0.189 HD
ENDBRANCH   9  10
ENDBRANCH   8   9
ENDBRANCH   5   8
BRANCH   5  12
HETATM   12  N3  UNL     1      25.926   2.304  52.793  1.00  0.00    -0.340 N 
HETATM   13  H8  UNL     1      25.599   2.889  53.576  1.00  0.00     0.167 HD
BRANCH  12  14
HETATM   14  C8  UNL     1      27.144   1.668  53.147  1.00  0.00     0.035 A 
HETATM   15  C9  UNL     1      28.183   2.415  53.665  1.00  0.00     0.029 A 
HETATM   16  C10 UNL     1      29.340   1.769  53.999  1.00  0.00     0.004 A 
HETATM   17  C11 UNL     1      29.426   0.400  53.807  1.00  0.00     0.019 A 
HETATM   18  C12 UNL     1      28.376  -0.338  53.287  1.00  0.00     0.013 A 
HETATM   19 BR1  UNL     1      28.537  -2.231  53.039  1.00  0.00    -0.051 Br
HETATM   20  C13 UNL     1      27.198   0.294  52.943  1.00  0.00     0.048 A 
ENDBRANCH  12  14
ENDBRANCH   5  12
BRANCH   7  21
HETATM   21  O2  UNL     1      21.062   1.124  49.281  1.00  0.00    -0.353 OA
HETATM   22  C16 UNL     1      20.911   2.229  48.395  1.00  0.00     0.210 C 
ENDBRANCH   7  21
BRANCH   1  23
HETATM   23  O1  UNL     1      20.142  -0.121  51.747  1.00  0.00    -0.353 OA
HETATM   24  C1  UNL     1      18.923   0.546  51.950  1.00  0.00     0.210 C 
ENDBRANCH   1  23
TORSDOF 7
ENDMDL
MODEL 7
REMARK VINA RESULT:      -6.4      4.866      6.137
REMARK  7 active torsions:
REMARK  status: ('A' for Active; 'I' for Inactive)
REMARK    1  A    between atoms: O1_2  and  C2_3 
REMARK    2  A    between atoms: C6_7  and  N1_8 
REMARK    3  A    between atoms: C6_7  and  N3_11 
REMARK    4  A    between atoms: N1_8  and  C7_9 
REMARK    5  A    between atoms: C7_9  and  N2_10 
REMARK    6  A    between atoms: N3_11  and  C8_12 
REMARK    7  A    between atoms: C15_20  and  O2_21 
ROOT
HETATM    1  C2  UNL     1      26.229   6.348  48.383  1.00  0.00     0.098 A 
HETATM    2  C3  UNL     1      25.103   6.169  49.053  1.00  0.00     0.017 A 
HETATM    3  C4  UNL     1      24.766   5.093  50.013  1.00  0.00     0.072 A 
HETATM    4  C5  UNL     1      25.906   4.163  50.161  1.00  0.00    -0.006 A 
HETATM    5  C6  UNL     1      25.778   3.145  50.980  1.00  0.00     0.137 C 
HETATM    6  C14 UNL     1      27.135   4.383  49.414  1.00  0.00     0.050 A 
HETATM    7  C15 UNL     1      27.307   5.394  48.580  1.00  0.00     0.101 A 
ENDROOT
BRANCH   5   8
HETATM    8  N1  UNL     1      26.561   2.052  51.419  1.00  0.00    -0.208 NA
BRANCH   8   9
HETATM    9  C7  UNL     1      27.043   1.980  52.605  1.00  0.00     0.192 C 
BRANCH   9  10
HETATM   10  N2  UNL     1      27.181   2.436  53.795  1.00  0.00    -0.279 NA
HETATM   11  H7  UNL     1      26.944   1.874  54.634  1.00  0.00     0.189 HD
ENDBRANCH   9  10
ENDBRANCH   8   9
ENDBRANCH   5   8
BRANCH   5  12
HETATM   12  N3  UNL     1      24.580   2.926  51.712  1.00  0.00    -0.340 N 
HETATM   13  H8  UNL     1      24.409   3.558  52.509  1.00  0.00     0.167 HD
BRANCH  12  14
HETATM   14  C8  UNL     1      23.511   1.999  51.599  1.00  0.00     0.035 A 
HETATM   15  C9  UNL     1      22.808   1.905  50.416  1.00  0.00     0.029 A 
HETATM   16  C10 UNL     1      21.787   0.999  50.341  1.00  0.00     0.004 A 
HETATM   17  C11 UNL     1      21.499   0.216  51.447  1.00  0.00     0.019 A 
HETATM   18  C12 UNL     1      22.213   0.321  52.629  1.00  0.00     0.013 A 
HETATM   19 BR1  UNL     1      21.783  -0.782  54.135  1.00  0.00    -0.051 Br
HETATM   20  C13 UNL     1      23.249   1.229  52.727  1.00  0.00     0.048 A 
ENDBRANCH  12  14
ENDBRANCH   5  12
BRANCH   7  21
HETATM   21  O2  UNL     1      28.455   5.649  47.845  1.00  0.00    -0.353 OA
HETATM   22  C16 UNL     1      29.576   6.341  48.383  1.00  0.00     0.210 C 
ENDBRANCH   7  21
BRANCH   1  23
HETATM   23  O1  UNL     1      26.197   7.468  47.566  1.00  0.00    -0.353 OA
HETATM   24  C1  UNL     1      26.668   8.735  47.945  1.00  0.00     0.210 C 
ENDBRANCH   1  23
TORSDOF 7
ENDMDL
MODEL 8
REMARK VINA RESULT:      -6.3      3.383      4.725
REMARK  7 active torsions:
REMARK  status: ('A' for Active; 'I' for Inactive)
REMARK    1  A    between atoms: O1_2  and  C2_3 
REMARK    2  A    between atoms: C6_7  and  N1_8 
REMARK    3  A    between atoms: C6_7  and  N3_11 
REMARK    4  A    between atoms: N1_8  and  C7_9 
REMARK    5  A    between atoms: C7_9  and  N2_10 
REMARK    6  A    between atoms: N3_11  and  C8_12 
REMARK    7  A    between atoms: C15_20  and  O2_21 
ROOT
HETATM    1  C2  UNL     1      25.365   0.023  53.611  1.00  0.00     0.098 A 
HETATM    2  C3  UNL     1      25.901   0.880  52.760  1.00  0.00     0.017 A 
HETATM    3  C4  UNL     1      25.220   1.717  51.745  1.00  0.00     0.072 A 
HETATM    4  C5  UNL     1      23.761   1.478  51.781  1.00  0.00    -0.006 A 
HETATM    5  C6  UNL     1      23.000   2.143  50.943  1.00  0.00     0.137 C 
HETATM    6  C14 UNL     1      23.195   0.530  52.727  1.00  0.00     0.050 A 
HETATM    7  C15 UNL     1      23.922  -0.159  53.588  1.00  0.00     0.101 A 
ENDROOT
BRANCH   5   8
HETATM    8  N1  UNL     1      21.624   2.237  50.629  1.00  0.00    -0.208 NA
BRANCH   8   9
HETATM    9  C7  UNL     1      20.773   2.792  51.412  1.00  0.00     0.192 C 
BRANCH   9  10
HETATM   10  N2  UNL     1      20.471   3.396  52.502  1.00  0.00    -0.279 NA
HETATM   11  H7  UNL     1      21.173   3.923  53.055  1.00  0.00     0.189 HD
ENDBRANCH   9  10
ENDBRANCH   8   9
ENDBRANCH   5   8
BRANCH   5  12
HETATM   12  N3  UNL     1      23.548   3.071  50.016  1.00  0.00    -0.340 N 
HETATM   13  H8  UNL     1      23.530   2.792  49.024  1.00  0.00     0.167 HD
BRANCH  12  14
HETATM   14  C8  UNL     1      24.143   4.354  50.141  1.00  0.00     0.035 A 
HETATM   15  C9  UNL     1      23.594   5.283  51.001  1.00  0.00     0.029 A 
HETATM   16  C10 UNL     1      24.194   6.507  51.099  1.00  0.00     0.004 A 
HETATM   17  C11 UNL     1      25.323   6.766  50.337  1.00  0.00     0.019 A 
HETATM   18  C12 UNL     1      25.863   5.825  49.478  1.00  0.00     0.013 A 
HETATM   19 BR1  UNL     1      27.425   6.224  48.444  1.00  0.00    -0.051 Br
HETATM   20  C13 UNL     1      25.273   4.581  49.364  1.00  0.00     0.048 A 
ENDBRANCH  12  14
ENDBRANCH   5  12
BRANCH   7  21
HETATM   21  O2  UNL     1      23.435  -1.074  54.510  1.00  0.00    -0.353 OA
HETATM   22  C16 UNL     1      22.077  -1.083  54.940  1.00  0.00     0.210 C 
ENDBRANCH   7  21
BRANCH   1  23
HETATM   23  O1  UNL     1      26.305  -0.592  54.422  1.00  0.00    -0.353 OA
HETATM   24  C1  UNL     1      27.542  -0.023  54.768  1.00  0.00     0.210 C 
ENDBRANCH   1  23
TORSDOF 7
ENDMDL
MODEL 9
REMARK VINA RESULT:      -6.2      7.999      9.540
REMARK  7 active torsions:
REMARK  status: ('A' for Active; 'I' for Inactive)
REMARK    1  A    between atoms: O1_2  and  C2_3 
REMARK    2  A    between atoms: C6_7  and  N1_8 
REMARK    3  A    between atoms: C6_7  and  N3_11 
REMARK    4  A    between atoms: N1_8  and  C7_9 
REMARK    5  A    between atoms: C7_9  and  N2_10 
REMARK    6  A    between atoms: N3_11  and  C8_12 
REMARK    7  A    between atoms: C15_20  and  O2_21 
ROOT
HETATM    1  C2  UNL     1      31.828   5.597  46.892  1.00  0.00     0.098 A 
HETATM    2  C3  UNL     1      30.878   4.923  47.518  1.00  0.00     0.017 A 
HETATM    3  C4  UNL     1      29.660   5.449  48.178  1.00  0.00     0.072 A 
HETATM    4  C5  UNL     1      29.610   6.922  48.059  1.00  0.00    -0.006 A 
HETATM    5  C6  UNL     1      28.590   7.556  48.592  1.00  0.00     0.137 C 
HETATM    6  C14 UNL     1      30.667   7.640  47.365  1.00  0.00     0.050 A 
HETATM    7  C15 UNL     1      31.710   7.044  46.814  1.00  0.00     0.101 A 
ENDROOT
BRANCH   5   8
HETATM    8  N1  UNL     1      28.140   8.890  48.721  1.00  0.00    -0.208 NA
BRANCH   8   9
HETATM    9  C7  UNL     1      28.041   9.479  49.855  1.00  0.00     0.192 C 
BRANCH   9  10
HETATM   10  N2  UNL     1      27.607   9.538  51.060  1.00  0.00    -0.279 NA
HETATM   11  H7  UNL     1      26.712   9.098  51.348  1.00  0.00     0.189 HD
ENDBRANCH   9  10
ENDBRANCH   8   9
ENDBRANCH   5   8
BRANCH   5  12
HETATM   12  N3  UNL     1      27.554   6.858  49.270  1.00  0.00    -0.340 N 
HETATM   13  H8  UNL     1      27.762   6.553  50.233  1.00  0.00     0.167 HD
BRANCH  12  14
HETATM   14  C8  UNL     1      26.237   6.465  48.919  1.00  0.00     0.035 A 
HETATM   15  C9  UNL     1      25.472   7.277  48.106  1.00  0.00     0.029 A 
HETATM   16  C10 UNL     1      24.209   6.866  47.784  1.00  0.00     0.004 A 
HETATM   17  C11 UNL     1      23.747   5.659  48.284  1.00  0.00     0.019 A 
HETATM   18  C12 UNL     1      24.524   4.853  49.099  1.00  0.00     0.013 A 
HETATM   19 BR1  UNL     1      23.847   3.191  49.767  1.00  0.00    -0.051 Br
HETATM   20  C13 UNL     1      25.804   5.249  49.436  1.00  0.00     0.048 A 
ENDBRANCH  12  14
ENDBRANCH   5  12
BRANCH   7  21
HETATM   21  O2  UNL     1      32.744   7.679  46.143  1.00  0.00    -0.353 OA
HETATM   22  C16 UNL     1      33.939   8.099  46.793  1.00  0.00     0.210 C 
ENDBRANCH   7  21
BRANCH   1  23
HETATM   23  O1  UNL     1      32.827   4.778  46.389  1.00  0.00    -0.353 OA
HETATM   24  C1  UNL     1      32.764   3.376  46.369  1.00  0.00     0.210 C 
ENDBRANCH   1  23
TORSDOF 7
ENDMDL
