MODEL 1
REMARK VINA RESULT:      -6.6      0.000      0.000
REMARK  9 active torsions:
REMARK  status: ('A' for Active; 'I' for Inactive)
REMARK    1  A    between atoms: C2_2  and  C5_5 
REMARK    2  A    between atoms: C5_5  and  O1_6 
REMARK    3  A    between atoms: O1_6  and  C6_7 
REMARK    4  A    between atoms: C6_7  and  C7_8 
REMARK    5  A    between atoms: C6_7  and  N2_16 
REMARK    6  A    between atoms: C7_8  and  C8_9 
REMARK    7  A    between atoms: C8_9  and  S1_10 
REMARK    8  A    between atoms: S1_10  and  C9_11 
REMARK       I    between atoms: N2_16  and  C12_17 
REMARK    9  A    between atoms: C12_17  and  C13_19 
ROOT
HETATM    1  C6  UNL     1      25.853   2.461  51.363  1.00  0.00     0.223 C 
ENDROOT
BRANCH   1   2
HETATM    2  O1  UNL     1      26.933   1.697  51.543  1.00  0.00    -0.366 OA
BRANCH   2   3
HETATM    3  C5  UNL     1      27.495   1.408  52.716  1.00  0.00     0.178 C 
BRANCH   3   4
HETATM    4  C2  UNL     1      27.358   0.032  53.283  1.00  0.00    -0.030 C 
HETATM    5  C1  UNL     1      28.719  -0.521  53.734  1.00  0.00     0.016 C 
HETATM    6  C3  UNL     1      26.706  -0.994  52.437  1.00  0.00     0.016 C 
HETATM    7  C4  UNL     1      26.569   0.112  54.615  1.00  0.00     0.016 C 
ENDBRANCH   3   4
ENDBRANCH   2   3
ENDBRANCH   1   2
BRANCH   1   8
HETATM    8  C7  UNL     1      25.657   2.970  49.943  1.00  0.00     0.064 C 
BRANCH   8   9
HETATM    9  C8  UNL     1      26.378   4.289  49.799  1.00  0.00     0.084 C 
BRANCH   9  10
HETATM   10  S1  UNL     1      25.227   5.691  49.801  1.00  0.00    -0.121 SA
BRANCH  10  11
HETATM   11  C9  UNL     1      23.706   5.261  50.642  1.00  0.00     0.060 A 
HETATM   12  C10 UNL     1      23.392   5.237  51.954  1.00  0.00     0.142 A 
HETATM   13  N1  UNL     1      22.172   4.870  52.263  1.00  0.00    -0.264 NA
HETATM   14  C11 UNL     1      21.326   4.565  51.557  1.00  0.00     0.167 A 
HETATM   15  S2  UNL     1      22.156   4.727  49.848  1.00  0.00    -0.074 SA
ENDBRANCH  10  11
ENDBRANCH   9  10
ENDBRANCH   8   9
ENDBRANCH   1   8
BRANCH   1  16
HETATM   16  N2  UNL     1      24.615   1.902  51.864  1.00  0.00    -0.334 N 
HETATM   17  C12 UNL     1      23.330   1.378  51.894  1.00  0.00     0.223 C 
HETATM   18  O2  UNL     1      22.775   1.285  50.764  1.00  0.00    -0.273 OA
HETATM   19  H19 UNL     1      24.977   1.925  52.877  1.00  0.00     0.165 HD
BRANCH  17  20
HETATM   20  C13 UNL     1      22.638   0.951  53.141  1.00  0.00     0.081 C 
HETATM   21  C14 UNL     1      21.146   1.106  53.074  1.00  0.00     0.044 C 
HETATM   22  C15 UNL     1      20.471  -0.148  53.592  1.00  0.00     0.270 C 
HETATM   23  N3  UNL     1      21.042  -0.588  54.842  1.00  0.00     0.083 N 
HETATM   24  C16 UNL     1      22.426  -0.995  54.698  1.00  0.00     0.270 C 
HETATM   25  H25 UNL     1      20.928   0.114  55.588  1.00  0.00     0.315 HD
HETATM   26  C17 UNL     1      23.019  -0.493  53.396  1.00  0.00     0.044 C 
ENDBRANCH  17  20
ENDBRANCH   1  16
TORSDOF 9
ENDMDL
MODEL 2
REMARK VINA RESULT:      -6.5      2.217      5.354
REMARK  9 active torsions:
REMARK  status: ('A' for Active; 'I' for Inactive)
REMARK    1  A    between atoms: C2_2  and  C5_5 
REMARK    2  A    between atoms: C5_5  and  O1_6 
REMARK    3  A    between atoms: O1_6  and  C6_7 
REMARK    4  A    between atoms: C6_7  and  C7_8 
REMARK    5  A    between atoms: C6_7  and  N2_16 
REMARK    6  A    between atoms: C7_8  and  C8_9 
REMARK    7  A    between atoms: C8_9  and  S1_10 
REMARK    8  A    between atoms: S1_10  and  C9_11 
REMARK       I    between atoms: N2_16  and  C12_17 
REMARK    9  A    between atoms: C12_17  and  C13_19 
ROOT
HETATM    1  C6  UNL     1      23.913   2.153  50.757  1.00  0.00     0.223 C 
ENDROOT
BRANCH   1   2
HETATM    2  O1  UNL     1      22.818   2.365  51.491  1.00  0.00    -0.366 OA
BRANCH   2   3
HETATM    3  C5  UNL     1      22.603   1.900  52.721  1.00  0.00     0.178 C 
BRANCH   3   4
HETATM    4  C2  UNL     1      22.037   0.529  52.905  1.00  0.00    -0.030 C 
HETATM    5  C1  UNL     1      20.975   0.510  54.015  1.00  0.00     0.016 C 
HETATM    6  C3  UNL     1      22.990  -0.575  53.165  1.00  0.00     0.016 C 
HETATM    7  C4  UNL     1      21.214   0.151  51.646  1.00  0.00     0.016 C 
ENDBRANCH   3   4
ENDBRANCH   2   3
ENDBRANCH   1   2
BRANCH   1   8
HETATM    8  C7  UNL     1      24.205   3.222  49.716  1.00  0.00     0.064 C 
BRANCH   8   9
HETATM    9  C8  UNL     1      24.390   4.545  50.421  1.00  0.00     0.084 C 
BRANCH   9  10
HETATM   10  S1  UNL     1      24.822   5.872  49.263  1.00  0.00    -0.121 SA
BRANCH  10  11
HETATM   11  C9  UNL     1      26.559   5.802  48.838  1.00  0.00     0.060 A 
HETATM   12  C10 UNL     1      27.410   4.759  48.743  1.00  0.00     0.142 A 
HETATM   13  N1  UNL     1      28.647   5.034  48.405  1.00  0.00    -0.264 NA
HETATM   14  C11 UNL     1      29.106   6.055  48.176  1.00  0.00     0.167 A 
HETATM   15  S2  UNL     1      27.617   7.224  48.416  1.00  0.00    -0.074 SA
ENDBRANCH  10  11
ENDBRANCH   9  10
ENDBRANCH   8   9
ENDBRANCH   1   8
BRANCH   1  16
HETATM   16  N2  UNL     1      25.112   1.859  51.515  1.00  0.00    -0.334 N 
HETATM   17  C12 UNL     1      26.432   1.884  51.941  1.00  0.00     0.223 C 
HETATM   18  O2  UNL     1      27.182   2.658  51.284  1.00  0.00    -0.273 OA
HETATM   19  H19 UNL     1      24.581   1.173  52.152  1.00  0.00     0.165 HD
BRANCH  17  20
HETATM   20  C13 UNL     1      26.952   1.074  53.078  1.00  0.00     0.081 C 
HETATM   21  C14 UNL     1      26.971  -0.400  52.796  1.00  0.00     0.044 C 
HETATM   22  C15 UNL     1      28.301  -0.991  53.217  1.00  0.00     0.270 C 
HETATM   23  N3  UNL     1      28.687  -0.558  54.538  1.00  0.00     0.083 N 
HETATM   24  C16 UNL     1      28.928   0.870  54.598  1.00  0.00     0.270 C 
HETATM   25  H25 UNL     1      28.012  -0.860  55.257  1.00  0.00     0.315 HD
HETATM   26  C17 UNL     1      28.344   1.581  53.391  1.00  0.00     0.044 C 
ENDBRANCH  17  20
ENDBRANCH   1  16
TORSDOF 9
ENDMDL
MODEL 3
REMARK VINA RESULT:      -6.4      2.021      5.527
REMARK  9 active torsions:
REMARK  status: ('A' for Active; 'I' for Inactive)
REMARK    1  A    between atoms: C2_2  and  C5_5 
REMARK    2  A    between atoms: C5_5  and  O1_6 
REMARK    3  A    between atoms: O1_6  and  C6_7 
REMARK    4  A    between atoms: C6_7  and  C7_8 
REMARK    5  A    between atoms: C6_7  and  N2_16 
REMARK    6  A    between atoms: C7_8  and  C8_9 
REMARK    7  A    between atoms: C8_9  and  S1_10 
REMARK    8  A    between atoms: S1_10  and  C9_11 
REMARK       I    between atoms: N2_16  and  C12_17 
REMARK    9  A    between atoms: C12_17  and  C13_19 
ROOT
HETATM    1  C6  UNL     1      23.708   1.502  51.861  1.00  0.00     0.223 C 
ENDROOT
BRANCH   1   2
HETATM    2  O1  UNL     1      22.733   0.601  51.715  1.00  0.00    -0.366 OA
BRANCH   2   3
HETATM    3  C5  UNL     1      21.508   0.689  52.232  1.00  0.00     0.178 C 
BRANCH   3   4
HETATM    4  C2  UNL     1      21.102  -0.236  53.335  1.00  0.00    -0.030 C 
HETATM    5  C1  UNL     1      20.947   0.518  54.664  1.00  0.00     0.016 C 
HETATM    6  C3  UNL     1      21.954  -1.424  53.579  1.00  0.00     0.016 C 
HETATM    7  C4  UNL     1      19.662  -0.740  53.063  1.00  0.00     0.016 C 
ENDBRANCH   3   4
ENDBRANCH   2   3
ENDBRANCH   1   2
BRANCH   1   8
HETATM    8  C7  UNL     1      23.354   2.693  52.739  1.00  0.00     0.064 C 
BRANCH   8   9
HETATM    9  C8  UNL     1      23.359   3.939  51.885  1.00  0.00     0.084 C 
BRANCH   9  10
HETATM   10  S1  UNL     1      23.597   3.554  50.129  1.00  0.00    -0.121 SA
BRANCH  10  11
HETATM   11  C9  UNL     1      25.221   4.071  49.581  1.00  0.00     0.060 A 
HETATM   12  C10 UNL     1      26.395   3.409  49.529  1.00  0.00     0.142 A 
HETATM   13  N1  UNL     1      27.428   4.072  49.071  1.00  0.00    -0.264 NA
HETATM   14  C11 UNL     1      27.467   5.153  48.703  1.00  0.00     0.167 A 
HETATM   15  S2  UNL     1      25.660   5.717  48.936  1.00  0.00    -0.074 SA
ENDBRANCH  10  11
ENDBRANCH   9  10
ENDBRANCH   8   9
ENDBRANCH   1   8
BRANCH   1  16
HETATM   16  N2  UNL     1      24.991   0.959  52.257  1.00  0.00    -0.334 N 
HETATM   17  C12 UNL     1      25.941   0.134  52.842  1.00  0.00     0.223 C 
HETATM   18  O2  UNL     1      25.464  -0.830  53.503  1.00  0.00    -0.273 OA
HETATM   19  H19 UNL     1      25.518   1.731  51.724  1.00  0.00     0.165 HD
BRANCH  17  20
HETATM   20  C13 UNL     1      27.411   0.344  52.717  1.00  0.00     0.081 C 
HETATM   21  C14 UNL     1      27.852   1.713  53.145  1.00  0.00     0.044 C 
HETATM   22  C15 UNL     1      29.066   1.608  54.046  1.00  0.00     0.270 C 
HETATM   23  N3  UNL     1      30.066   0.723  53.500  1.00  0.00     0.083 N 
HETATM   24  C16 UNL     1      29.598  -0.647  53.416  1.00  0.00     0.270 C 
HETATM   25  H25 UNL     1      30.425   1.058  52.593  1.00  0.00     0.315 HD
HETATM   26  C17 UNL     1      28.089  -0.726  53.547  1.00  0.00     0.044 C 
ENDBRANCH  17  20
ENDBRANCH   1  16
TORSDOF 9
ENDMDL
MODEL 4
REMARK VINA RESULT:      -6.2      2.393      5.853
REMARK  9 active torsions:
REMARK  status: ('A' for Active; 'I' for Inactive)
REMARK    1  A    between atoms: C2_2  and  C5_5 
REMARK    2  A    between atoms: C5_5  and  O1_6 
REMARK    3  A    between atoms: O1_6  and  C6_7 
REMARK    4  A    between atoms: C6_7  and  C7_8 
REMARK    5  A    between atoms: C6_7  and  N2_16 
REMARK    6  A    between atoms: C7_8  and  C8_9 
REMARK    7  A    between atoms: C8_9  and  S1_10 
REMARK    8  A    between atoms: S1_10  and  C9_11 
REMARK       I    between atoms: N2_16  and  C12_17 
REMARK    9  A    between atoms: C12_17  and  C13_19 
ROOT
HETATM    1  C6  UNL     1      24.186   4.145  51.612  1.00  0.00     0.223 C 
ENDROOT
BRANCH   1   2
HETATM    2  O1  UNL     1      24.477   5.285  50.982  1.00  0.00    -0.366 OA
BRANCH   2   3
HETATM    3  C5  UNL     1      24.531   5.452  49.661  1.00  0.00     0.178 C 
BRANCH   3   4
HETATM    4  C2  UNL     1      25.492   6.438  49.078  1.00  0.00    -0.030 C 
HETATM    5  C1  UNL     1      25.926   7.476  50.124  1.00  0.00     0.016 C 
HETATM    6  C3  UNL     1      25.069   7.166  47.859  1.00  0.00     0.016 C 
HETATM    7  C4  UNL     1      26.822   5.711  48.753  1.00  0.00     0.016 C 
ENDBRANCH   3   4
ENDBRANCH   2   3
ENDBRANCH   1   2
BRANCH   1   8
HETATM    8  C7  UNL     1      22.957   3.418  51.087  1.00  0.00     0.064 C 
BRANCH   8   9
HETATM    9  C8  UNL     1      21.832   3.595  52.079  1.00  0.00     0.084 C 
BRANCH   9  10
HETATM   10  S1  UNL     1      20.716   2.165  52.096  1.00  0.00    -0.121 SA
BRANCH  10  11
HETATM   11  C9  UNL     1      21.330   0.895  53.199  1.00  0.00     0.060 A 
HETATM   12  C10 UNL     1      20.757   0.284  54.257  1.00  0.00     0.142 A 
HETATM   13  N1  UNL     1      21.475  -0.621  54.876  1.00  0.00    -0.264 NA
HETATM   14  C11 UNL     1      22.537  -0.967  54.634  1.00  0.00     0.167 A 
HETATM   15  S2  UNL     1      22.971   0.109  53.121  1.00  0.00    -0.074 SA
ENDBRANCH  10  11
ENDBRANCH   9  10
ENDBRANCH   8   9
ENDBRANCH   1   8
BRANCH   1  16
HETATM   16  N2  UNL     1      25.290   3.218  51.746  1.00  0.00    -0.334 N 
HETATM   17  C12 UNL     1      26.399   2.445  51.431  1.00  0.00     0.223 C 
HETATM   18  O2  UNL     1      26.788   2.550  50.234  1.00  0.00    -0.273 OA
HETATM   19  H19 UNL     1      25.062   3.045  52.784  1.00  0.00     0.165 HD
BRANCH  17  20
HETATM   20  C13 UNL     1      27.093   1.555  52.402  1.00  0.00     0.081 C 
HETATM   21  C14 UNL     1      26.738   1.847  53.831  1.00  0.00     0.044 C 
HETATM   22  C15 UNL     1      26.434   0.555  54.563  1.00  0.00     0.270 C 
HETATM   23  N3  UNL     1      27.436  -0.453  54.315  1.00  0.00     0.083 N 
HETATM   24  C16 UNL     1      27.468  -0.862  52.924  1.00  0.00     0.270 C 
HETATM   25  H25 UNL     1      28.367  -0.162  54.647  1.00  0.00     0.315 HD
HETATM   26  C17 UNL     1      26.737   0.129  52.038  1.00  0.00     0.044 C 
ENDBRANCH  17  20
ENDBRANCH   1  16
TORSDOF 9
ENDMDL
MODEL 5
REMARK VINA RESULT:      -6.2      2.007      2.186
REMARK  9 active torsions:
REMARK  status: ('A' for Active; 'I' for Inactive)
REMARK    1  A    between atoms: C2_2  and  C5_5 
REMARK    2  A    between atoms: C5_5  and  O1_6 
REMARK    3  A    between atoms: O1_6  and  C6_7 
REMARK    4  A    between atoms: C6_7  and  C7_8 
REMARK    5  A    between atoms: C6_7  and  N2_16 
REMARK    6  A    between atoms: C7_8  and  C8_9 
REMARK    7  A    between atoms: C8_9  and  S1_10 
REMARK    8  A    between atoms: S1_10  and  C9_11 
REMARK       I    between atoms: N2_16  and  C12_17 
REMARK    9  A    between atoms: C12_17  and  C13_19 
ROOT
HETATM    1  C6  UNL     1      25.721   2.593  51.397  1.00  0.00     0.223 C 
ENDROOT
BRANCH   1   2
HETATM    2  O1  UNL     1      26.840   1.875  51.517  1.00  0.00    -0.366 OA
BRANCH   2   3
HETATM    3  C5  UNL     1      27.447   1.566  52.662  1.00  0.00     0.178 C 
BRANCH   3   4
HETATM    4  C2  UNL     1      27.360   0.171  53.193  1.00  0.00    -0.030 C 
HETATM    5  C1  UNL     1      28.743  -0.353  53.610  1.00  0.00     0.016 C 
HETATM    6  C3  UNL     1      26.725  -0.851  52.328  1.00  0.00     0.016 C 
HETATM    7  C4  UNL     1      26.588   0.192  54.537  1.00  0.00     0.016 C 
ENDBRANCH   3   4
ENDBRANCH   2   3
ENDBRANCH   1   2
BRANCH   1   8
HETATM    8  C7  UNL     1      25.462   3.149  50.005  1.00  0.00     0.064 C 
BRANCH   8   9
HETATM    9  C8  UNL     1      25.037   4.593  50.134  1.00  0.00     0.084 C 
BRANCH   9  10
HETATM   10  S1  UNL     1      23.238   4.782  50.008  1.00  0.00    -0.121 SA
BRANCH  10  11
HETATM   11  C9  UNL     1      22.686   4.489  48.330  1.00  0.00     0.060 A 
HETATM   12  C10 UNL     1      22.527   5.330  47.287  1.00  0.00     0.142 A 
HETATM   13  N1  UNL     1      22.098   4.806  46.165  1.00  0.00    -0.264 NA
HETATM   14  C11 UNL     1      21.837   3.714  45.950  1.00  0.00     0.167 A 
HETATM   15  S2  UNL     1      22.187   2.883  47.631  1.00  0.00    -0.074 SA
ENDBRANCH  10  11
ENDBRANCH   9  10
ENDBRANCH   8   9
ENDBRANCH   1   8
BRANCH   1  16
HETATM   16  N2  UNL     1      24.525   1.954  51.906  1.00  0.00    -0.334 N 
HETATM   17  C12 UNL     1      23.279   1.344  51.942  1.00  0.00     0.223 C 
HETATM   18  O2  UNL     1      22.730   1.205  50.814  1.00  0.00    -0.273 OA
HETATM   19  H19 UNL     1      24.886   2.010  52.918  1.00  0.00     0.165 HD
BRANCH  17  20
HETATM   20  C13 UNL     1      22.619   0.880  53.195  1.00  0.00     0.081 C 
HETATM   21  C14 UNL     1      21.123   0.987  53.151  1.00  0.00     0.044 C 
HETATM   22  C15 UNL     1      20.497  -0.295  53.664  1.00  0.00     0.270 C 
HETATM   23  N3  UNL     1      21.101  -0.730  54.899  1.00  0.00     0.083 N 
HETATM   24  C16 UNL     1      22.495  -1.089  54.731  1.00  0.00     0.270 C 
HETATM   25  H25 UNL     1      20.975  -0.041  55.655  1.00  0.00     0.315 HD
HETATM   26  C17 UNL     1      23.052  -0.553  53.426  1.00  0.00     0.044 C 
ENDBRANCH  17  20
ENDBRANCH   1  16
TORSDOF 9
ENDMDL
MODEL 6
REMARK VINA RESULT:      -6.1      2.523      5.921
REMARK  9 active torsions:
REMARK  status: ('A' for Active; 'I' for Inactive)
REMARK    1  A    between atoms: C2_2  and  C5_5 
REMARK    2  A    between atoms: C5_5  and  O1_6 
REMARK    3  A    between atoms: O1_6  and  C6_7 
REMARK    4  A    between atoms: C6_7  and  C7_8 
REMARK    5  A    between atoms: C6_7  and  N2_16 
REMARK    6  A    between atoms: C7_8  and  C8_9 
REMARK    7  A    between atoms: C8_9  and  S1_10 
REMARK    8  A    between atoms: S1_10  and  C9_11 
REMARK       I    between atoms: N2_16  and  C12_17 
REMARK    9  A    between atoms: C12_17  and  C13_19 
ROOT
HETATM    1  C6  UNL     1      25.899   2.356  51.504  1.00  0.00     0.223 C 
ENDROOT
BRANCH   1   2
HETATM    2  O1  UNL     1      27.058   1.751  51.774  1.00  0.00    -0.366 OA
BRANCH   2   3
HETATM    3  C5  UNL     1      27.578   1.573  52.988  1.00  0.00     0.178 C 
BRANCH   3   4
HETATM    4  C2  UNL     1      27.654   0.196  53.566  1.00  0.00    -0.030 C 
HETATM    5  C1  UNL     1      29.092  -0.153  53.982  1.00  0.00     0.016 C 
HETATM    6  C3  UNL     1      27.132  -0.920  52.743  1.00  0.00     0.016 C 
HETATM    7  C4  UNL     1      26.898   0.176  54.918  1.00  0.00     0.016 C 
ENDBRANCH   3   4
ENDBRANCH   2   3
ENDBRANCH   1   2
BRANCH   1   8
HETATM    8  C7  UNL     1      25.079   2.745  52.724  1.00  0.00     0.064 C 
BRANCH   8   9
HETATM    9  C8  UNL     1      23.740   3.266  52.259  1.00  0.00     0.084 C 
BRANCH   9  10
HETATM   10  S1  UNL     1      22.668   1.933  51.657  1.00  0.00    -0.121 SA
BRANCH  10  11
HETATM   11  C9  UNL     1      22.281   0.786  52.975  1.00  0.00     0.060 A 
HETATM   12  C10 UNL     1      21.184   0.658  53.750  1.00  0.00     0.142 A 
HETATM   13  N1  UNL     1      21.201  -0.297  54.647  1.00  0.00    -0.264 NA
HETATM   14  C11 UNL     1      22.035  -1.049  54.862  1.00  0.00     0.167 A 
HETATM   15  S2  UNL     1      23.364  -0.543  53.591  1.00  0.00    -0.074 SA
ENDBRANCH  10  11
ENDBRANCH   9  10
ENDBRANCH   8   9
ENDBRANCH   1   8
BRANCH   1  16
HETATM   16  N2  UNL     1      25.990   3.476  50.591  1.00  0.00    -0.334 N 
HETATM   17  C12 UNL     1      26.447   4.310  49.579  1.00  0.00     0.223 C 
HETATM   18  O2  UNL     1      27.491   3.904  48.997  1.00  0.00    -0.273 OA
HETATM   19  H19 UNL     1      25.102   3.925  51.001  1.00  0.00     0.165 HD
BRANCH  17  20
HETATM   20  C13 UNL     1      25.781   5.585  49.191  1.00  0.00     0.081 C 
HETATM   21  C14 UNL     1      25.252   6.358  50.364  1.00  0.00     0.044 C 
HETATM   22  C15 UNL     1      25.641   7.818  50.240  1.00  0.00     0.270 C 
HETATM   23  N3  UNL     1      25.372   8.335  48.921  1.00  0.00     0.083 N 
HETATM   24  C16 UNL     1      26.180   7.691  47.904  1.00  0.00     0.270 C 
HETATM   25  H25 UNL     1      24.368   8.298  48.688  1.00  0.00     0.315 HD
HETATM   26  C17 UNL     1      26.794   6.403  48.418  1.00  0.00     0.044 C 
ENDBRANCH  17  20
ENDBRANCH   1  16
TORSDOF 9
ENDMDL
MODEL 7
REMARK VINA RESULT:      -6.1      2.093      5.186
REMARK  9 active torsions:
REMARK  status: ('A' for Active; 'I' for Inactive)
REMARK    1  A    between atoms: C2_2  and  C5_5 
REMARK    2  A    between atoms: C5_5  and  O1_6 
REMARK    3  A    between atoms: O1_6  and  C6_7 
REMARK    4  A    between atoms: C6_7  and  C7_8 
REMARK    5  A    between atoms: C6_7  and  N2_16 
REMARK    6  A    between atoms: C7_8  and  C8_9 
REMARK    7  A    between atoms: C8_9  and  S1_10 
REMARK    8  A    between atoms: S1_10  and  C9_11 
REMARK       I    between atoms: N2_16  and  C12_17 
REMARK    9  A    between atoms: C12_17  and  C13_19 
ROOT
HETATM    1  C6  UNL     1      23.311   1.272  51.699  1.00  0.00     0.223 C 
ENDROOT
BRANCH   1   2
HETATM    2  O1  UNL     1      22.184   0.781  52.219  1.00  0.00    -0.366 OA
BRANCH   2   3
HETATM    3  C5  UNL     1      22.009  -0.463  52.664  1.00  0.00     0.178 C 
BRANCH   3   4
HETATM    4  C2  UNL     1      21.574  -0.690  54.076  1.00  0.00    -0.030 C 
HETATM    5  C1  UNL     1      20.834   0.536  54.633  1.00  0.00     0.016 C 
HETATM    6  C3  UNL     1      22.613  -1.082  55.057  1.00  0.00     0.016 C 
HETATM    7  C4  UNL     1      20.476  -1.784  54.095  1.00  0.00     0.016 C 
ENDBRANCH   3   4
ENDBRANCH   2   3
ENDBRANCH   1   2
BRANCH   1   8
HETATM    8  C7  UNL     1      23.241   2.733  51.283  1.00  0.00     0.064 C 
BRANCH   8   9
HETATM    9  C8  UNL     1      21.974   3.334  51.842  1.00  0.00     0.084 C 
BRANCH   9  10
HETATM   10  S1  UNL     1      21.924   5.133  51.618  1.00  0.00    -0.121 SA
BRANCH  10  11
HETATM   11  C9  UNL     1      22.980   5.633  50.263  1.00  0.00     0.060 A 
HETATM   12  C10 UNL     1      22.764   5.663  48.931  1.00  0.00     0.142 A 
HETATM   13  N1  UNL     1      23.753   6.087  48.182  1.00  0.00    -0.264 NA
HETATM   14  C11 UNL     1      24.789   6.440  48.512  1.00  0.00     0.167 A 
HETATM   15  S2  UNL     1      24.690   6.247  50.407  1.00  0.00    -0.074 SA
ENDBRANCH  10  11
ENDBRANCH   9  10
ENDBRANCH   8   9
ENDBRANCH   1   8
BRANCH   1  16
HETATM   16  N2  UNL     1      24.503   1.038  52.487  1.00  0.00    -0.334 N 
HETATM   17  C12 UNL     1      25.537   0.377  53.135  1.00  0.00     0.223 C 
HETATM   18  O2  UNL     1      25.508  -0.880  53.024  1.00  0.00    -0.273 OA
HETATM   19  H19 UNL     1      24.641   2.092  52.652  1.00  0.00     0.165 HD
BRANCH  17  20
HETATM   20  C13 UNL     1      26.607   1.068  53.907  1.00  0.00     0.081 C 
HETATM   21  C14 UNL     1      27.322   0.165  54.869  1.00  0.00     0.044 C 
HETATM   22  C15 UNL     1      28.820   0.364  54.752  1.00  0.00     0.270 C 
HETATM   23  N3  UNL     1      29.178   1.761  54.755  1.00  0.00     0.083 N 
HETATM   24  C16 UNL     1      28.660   2.462  53.595  1.00  0.00     0.270 C 
HETATM   25  H25 UNL     1      28.907   2.228  55.632  1.00  0.00     0.315 HD
HETATM   26  C17 UNL     1      27.574   1.660  52.904  1.00  0.00     0.044 C 
ENDBRANCH  17  20
ENDBRANCH   1  16
TORSDOF 9
ENDMDL
MODEL 8
REMARK VINA RESULT:      -6.0      2.102      3.196
REMARK  9 active torsions:
REMARK  status: ('A' for Active; 'I' for Inactive)
REMARK    1  A    between atoms: C2_2  and  C5_5 
REMARK    2  A    between atoms: C5_5  and  O1_6 
REMARK    3  A    between atoms: O1_6  and  C6_7 
REMARK    4  A    between atoms: C6_7  and  C7_8 
REMARK    5  A    between atoms: C6_7  and  N2_16 
REMARK    6  A    between atoms: C7_8  and  C8_9 
REMARK    7  A    between atoms: C8_9  and  S1_10 
REMARK    8  A    between atoms: S1_10  and  C9_11 
REMARK       I    between atoms: N2_16  and  C12_17 
REMARK    9  A    between atoms: C12_17  and  C13_19 
ROOT
HETATM    1  C6  UNL     1      24.555   2.800  52.076  1.00  0.00     0.223 C 
ENDROOT
BRANCH   1   2
HETATM    2  O1  UNL     1      25.359   2.744  53.139  1.00  0.00    -0.366 OA
BRANCH   2   3
HETATM    3  C5  UNL     1      25.710   1.637  53.793  1.00  0.00     0.178 C 
BRANCH   3   4
HETATM    4  C2  UNL     1      27.047   1.019  53.537  1.00  0.00    -0.030 C 
HETATM    5  C1  UNL     1      27.516   0.191  54.743  1.00  0.00     0.016 C 
HETATM    6  C3  UNL     1      28.154   1.923  53.144  1.00  0.00     0.016 C 
HETATM    7  C4  UNL     1      26.902  -0.054  52.428  1.00  0.00     0.016 C 
ENDBRANCH   3   4
ENDBRANCH   2   3
ENDBRANCH   1   2
BRANCH   1   8
HETATM    8  C7  UNL     1      25.269   2.884  50.735  1.00  0.00     0.064 C 
BRANCH   8   9
HETATM    9  C8  UNL     1      24.479   3.791  49.823  1.00  0.00     0.084 C 
BRANCH   9  10
HETATM   10  S1  UNL     1      24.601   5.529  50.327  1.00  0.00    -0.121 SA
BRANCH  10  11
HETATM   11  C9  UNL     1      25.995   6.323  49.533  1.00  0.00     0.060 A 
HETATM   12  C10 UNL     1      26.924   5.843  48.680  1.00  0.00     0.142 A 
HETATM   13  N1  UNL     1      27.838   6.687  48.266  1.00  0.00    -0.264 NA
HETATM   14  C11 UNL     1      27.953   7.792  48.535  1.00  0.00     0.167 A 
HETATM   15  S2  UNL     1      26.489   8.065  49.726  1.00  0.00    -0.074 SA
ENDBRANCH  10  11
ENDBRANCH   9  10
ENDBRANCH   8   9
ENDBRANCH   1   8
BRANCH   1  16
HETATM   16  N2  UNL     1      23.529   1.779  52.027  1.00  0.00    -0.334 N 
HETATM   17  C12 UNL     1      22.490   0.986  51.562  1.00  0.00     0.223 C 
HETATM   18  O2  UNL     1      22.097   1.267  50.396  1.00  0.00    -0.273 OA
HETATM   19  H19 UNL     1      23.773   1.441  53.019  1.00  0.00     0.165 HD
BRANCH  17  20
HETATM   20  C13 UNL     1      21.868  -0.114  52.352  1.00  0.00     0.081 C 
HETATM   21  C14 UNL     1      22.695  -0.537  53.531  1.00  0.00     0.044 C 
HETATM   22  C15 UNL     1      21.818  -0.658  54.761  1.00  0.00     0.270 C 
HETATM   23  N3  UNL     1      20.611  -1.400  54.490  1.00  0.00     0.083 N 
HETATM   24  C16 UNL     1      19.753  -0.720  53.540  1.00  0.00     0.270 C 
HETATM   25  H25 UNL     1      20.809  -2.368  54.197  1.00  0.00     0.315 HD
HETATM   26  C17 UNL     1      20.503   0.368  52.796  1.00  0.00     0.044 C 
ENDBRANCH  17  20
ENDBRANCH   1  16
TORSDOF 9
ENDMDL
MODEL 9
REMARK VINA RESULT:      -6.0      2.030      5.037
REMARK  9 active torsions:
REMARK  status: ('A' for Active; 'I' for Inactive)
REMARK    1  A    between atoms: C2_2  and  C5_5 
REMARK    2  A    between atoms: C5_5  and  O1_6 
REMARK    3  A    between atoms: O1_6  and  C6_7 
REMARK    4  A    between atoms: C6_7  and  C7_8 
REMARK    5  A    between atoms: C6_7  and  N2_16 
REMARK    6  A    between atoms: C7_8  and  C8_9 
REMARK    7  A    between atoms: C8_9  and  S1_10 
REMARK    8  A    between atoms: S1_10  and  C9_11 
REMARK       I    between atoms: N2_16  and  C12_17 
REMARK    9  A    between atoms: C12_17  and  C13_19 
ROOT
HETATM    1  C6  UNL     1      23.923   1.563  51.579  1.00  0.00     0.223 C 
ENDROOT
BRANCH   1   2
HETATM    2  O1  UNL     1      22.812   0.907  51.918  1.00  0.00    -0.366 OA
BRANCH   2   3
HETATM    3  C5  UNL     1      22.234   0.923  53.119  1.00  0.00     0.178 C 
BRANCH   3   4
HETATM    4  C2  UNL     1      21.598  -0.321  53.651  1.00  0.00    -0.030 C 
HETATM    5  C1  UNL     1      22.097  -1.565  52.899  1.00  0.00     0.016 C 
HETATM    6  C3  UNL     1      20.118  -0.371  53.686  1.00  0.00     0.016 C 
HETATM    7  C4  UNL     1      22.110  -0.571  55.092  1.00  0.00     0.016 C 
ENDBRANCH   3   4
ENDBRANCH   2   3
ENDBRANCH   1   2
BRANCH   1   8
HETATM    8  C7  UNL     1      23.906   3.053  51.884  1.00  0.00     0.064 C 
BRANCH   8   9
HETATM    9  C8  UNL     1      24.090   3.812  50.591  1.00  0.00     0.084 C 
BRANCH   9  10
HETATM   10  S1  UNL     1      22.559   4.629  50.063  1.00  0.00    -0.121 SA
BRANCH  10  11
HETATM   11  C9  UNL     1      21.131   3.820  50.775  1.00  0.00     0.060 A 
HETATM   12  C10 UNL     1      20.501   4.002  51.954  1.00  0.00     0.142 A 
HETATM   13  N1  UNL     1      19.462   3.239  52.194  1.00  0.00    -0.264 NA
HETATM   14  C11 UNL     1      19.013   2.427  51.526  1.00  0.00     0.167 A 
HETATM   15  S2  UNL     1      20.161   2.484  50.004  1.00  0.00    -0.074 SA
ENDBRANCH  10  11
ENDBRANCH   9  10
ENDBRANCH   8   9
ENDBRANCH   1   8
BRANCH   1  16
HETATM   16  N2  UNL     1      25.155   0.974  52.061  1.00  0.00    -0.334 N 
HETATM   17  C12 UNL     1      26.031   0.128  52.727  1.00  0.00     0.223 C 
HETATM   18  O2  UNL     1      25.472  -0.779  53.404  1.00  0.00    -0.273 OA
HETATM   19  H19 UNL     1      25.748   1.692  51.522  1.00  0.00     0.165 HD
BRANCH  17  20
HETATM   20  C13 UNL     1      27.514   0.256  52.666  1.00  0.00     0.081 C 
HETATM   21  C14 UNL     1      28.017   1.570  53.186  1.00  0.00     0.044 C 
HETATM   22  C15 UNL     1      29.188   1.344  54.122  1.00  0.00     0.270 C 
HETATM   23  N3  UNL     1      30.155   0.432  53.562  1.00  0.00     0.083 N 
HETATM   24  C16 UNL     1      29.612  -0.901  53.384  1.00  0.00     0.270 C 
HETATM   25  H25 UNL     1      30.567   0.793  52.689  1.00  0.00     0.315 HD
HETATM   26  C17 UNL     1      28.097  -0.896  53.458  1.00  0.00     0.044 C 
ENDBRANCH  17  20
ENDBRANCH   1  16
TORSDOF 9
ENDMDL
