MODEL 1
REMARK VINA RESULT:      -7.7      0.000      0.000
REMARK  5 active torsions:
REMARK  status: ('A' for Active; 'I' for Inactive)
REMARK    1  A    between atoms: C2_2  and  C3_3 
REMARK    2  A    between atoms: C4_5  and  C5_6 
REMARK    3  A    between atoms: C4_5  and  N1_9 
REMARK    4  A    between atoms: N1_9  and  C7_10 
REMARK    5  A    between atoms: C9_12  and  C10_13 
ROOT
HETATM    1  C7  UNL     1      25.405  -0.540  53.626  1.00  0.00     0.131 A 
HETATM    2  C8  UNL     1      24.158  -0.353  53.029  1.00  0.00     0.083 A 
HETATM    3  C9  UNL     1      22.999  -0.633  53.722  1.00  0.00     0.072 A 
HETATM    4  N2  UNL     1      23.138  -1.089  54.980  1.00  0.00    -0.241 NA
HETATM    5  C16 UNL     1      24.347  -1.268  55.553  1.00  0.00     0.235 A 
HETATM    6  N3  UNL     1      25.482  -0.997  54.883  1.00  0.00    -0.224 NA
ENDROOT
BRANCH   1   7
HETATM    7  N1  UNL     1      26.595  -0.244  52.891  1.00  0.00    -0.341 N 
HETATM    8  H8  UNL     1      27.044  -0.988  52.319  1.00  0.00     0.167 HD
BRANCH   7   9
HETATM    9  C4  UNL     1      27.156   1.055  52.945  1.00  0.00     0.038 C 
HETATM   10  C2  UNL     1      28.292   1.176  53.613  1.00  0.00    -0.029 C 
HETATM   11  C1  UNL     1      28.977   0.055  54.283  1.00  0.00     0.048 C 
BRANCH  10  12
HETATM   12  C3  UNL     1      29.064   2.429  53.806  1.00  0.00     0.258 C 
HETATM   13  F1  UNL     1      29.833   2.334  54.948  1.00  0.00    -0.251 F 
ENDBRANCH  10  12
BRANCH   9  14
HETATM   14  C5  UNL     1      26.418   2.107  52.257  1.00  0.00     0.042 C 
HETATM   15  C6  UNL     1      26.554   2.384  50.970  1.00  0.00     0.087 C 
HETATM   16 CL1  UNL     1      25.601   3.676  50.283  1.00  0.00    -0.097 Cl
ENDBRANCH   9  14
ENDBRANCH   7   9
ENDBRANCH   1   7
BRANCH   3  17
HETATM   17  C10 UNL     1      21.651  -0.469  53.185  1.00  0.00    -0.007 A 
HETATM   18  C11 UNL     1      21.529   0.161  51.965  1.00  0.00     0.014 A 
HETATM   19  C12 UNL     1      20.243   0.310  51.469  1.00  0.00     0.001 A 
HETATM   20  C13 UNL     1      19.103  -0.128  52.113  1.00  0.00     0.000 A 
HETATM   21  C14 UNL     1      19.243  -0.767  53.351  1.00  0.00     0.001 A 
HETATM   22  C15 UNL     1      20.525  -0.914  53.845  1.00  0.00     0.014 A 
ENDBRANCH   3  17
TORSDOF 5
ENDMDL
MODEL 2
REMARK VINA RESULT:      -7.5      3.683      6.957
REMARK  5 active torsions:
REMARK  status: ('A' for Active; 'I' for Inactive)
REMARK    1  A    between atoms: C2_2  and  C3_3 
REMARK    2  A    between atoms: C4_5  and  C5_6 
REMARK    3  A    between atoms: C4_5  and  N1_9 
REMARK    4  A    between atoms: N1_9  and  C7_10 
REMARK    5  A    between atoms: C9_12  and  C10_13 
ROOT
HETATM    1  C7  UNL     1      23.149   1.956  51.708  1.00  0.00     0.131 A 
HETATM    2  C8  UNL     1      24.149   2.841  51.306  1.00  0.00     0.083 A 
HETATM    3  C9  UNL     1      24.242   3.246  49.991  1.00  0.00     0.072 A 
HETATM    4  N2  UNL     1      23.331   2.746  49.135  1.00  0.00    -0.241 NA
HETATM    5  C16 UNL     1      22.365   1.889  49.529  1.00  0.00     0.235 A 
HETATM    6  N3  UNL     1      22.270   1.491  50.811  1.00  0.00    -0.224 NA
ENDROOT
BRANCH   1   7
HETATM    7  N1  UNL     1      23.070   1.548  53.076  1.00  0.00    -0.341 N 
HETATM    8  H8  UNL     1      22.974   2.267  53.821  1.00  0.00     0.167 HD
BRANCH   7   9
HETATM    9  C4  UNL     1      23.120   0.174  53.409  1.00  0.00     0.038 C 
HETATM   10  C2  UNL     1      22.035  -0.332  53.976  1.00  0.00    -0.029 C 
HETATM   11  C1  UNL     1      20.817   0.448  54.265  1.00  0.00     0.048 C 
BRANCH  10  12
HETATM   12  C3  UNL     1      21.851  -1.739  54.411  1.00  0.00     0.258 C 
HETATM   13  F1  UNL     1      22.678  -2.008  55.483  1.00  0.00    -0.251 F 
ENDBRANCH  10  12
BRANCH   9  14
HETATM   14  C5  UNL     1      24.357  -0.526  53.090  1.00  0.00     0.042 C 
HETATM   15  C6  UNL     1      25.544  -0.179  53.561  1.00  0.00     0.087 C 
HETATM   16 CL1  UNL     1      26.942  -1.115  53.091  1.00  0.00    -0.097 Cl
ENDBRANCH   9  14
ENDBRANCH   7   9
ENDBRANCH   1   7
BRANCH   3  17
HETATM   17  C10 UNL     1      25.250   4.168  49.474  1.00  0.00    -0.007 A 
HETATM   18  C11 UNL     1      26.542   3.697  49.369  1.00  0.00     0.014 A 
HETATM   19  C12 UNL     1      27.487   4.583  48.878  1.00  0.00     0.001 A 
HETATM   20  C13 UNL     1      27.215   5.882  48.497  1.00  0.00     0.000 A 
HETATM   21  C14 UNL     1      25.899   6.346  48.609  1.00  0.00     0.001 A 
HETATM   22  C15 UNL     1      24.957   5.461  49.100  1.00  0.00     0.014 A 
ENDBRANCH   3  17
TORSDOF 5
ENDMDL
MODEL 3
REMARK VINA RESULT:      -7.5      3.352      6.464
REMARK  5 active torsions:
REMARK  status: ('A' for Active; 'I' for Inactive)
REMARK    1  A    between atoms: C2_2  and  C3_3 
REMARK    2  A    between atoms: C4_5  and  C5_6 
REMARK    3  A    between atoms: C4_5  and  N1_9 
REMARK    4  A    between atoms: N1_9  and  C7_10 
REMARK    5  A    between atoms: C9_12  and  C10_13 
ROOT
HETATM    1  C7  UNL     1      24.158   1.659  52.110  1.00  0.00     0.131 A 
HETATM    2  C8  UNL     1      25.513   1.377  52.277  1.00  0.00     0.083 A 
HETATM    3  C9  UNL     1      25.917   0.220  52.910  1.00  0.00     0.072 A 
HETATM    4  N2  UNL     1      24.947  -0.603  53.349  1.00  0.00    -0.241 NA
HETATM    5  C16 UNL     1      23.636  -0.324  53.185  1.00  0.00     0.235 A 
HETATM    6  N3  UNL     1      23.236   0.803  52.569  1.00  0.00    -0.224 NA
ENDROOT
BRANCH   1   7
HETATM    7  N1  UNL     1      23.759   2.864  51.451  1.00  0.00    -0.341 N 
HETATM    8  H8  UNL     1      23.419   3.670  52.015  1.00  0.00     0.167 HD
BRANCH   7   9
HETATM    9  C4  UNL     1      23.830   2.956  50.041  1.00  0.00     0.038 C 
HETATM   10  C2  UNL     1      22.693   2.782  49.385  1.00  0.00    -0.029 C 
HETATM   11  C1  UNL     1      21.400   2.506  50.036  1.00  0.00     0.048 C 
BRANCH  10  12
HETATM   12  C3  UNL     1      22.518   2.833  47.911  1.00  0.00     0.258 C 
HETATM   13  F1  UNL     1      22.791   1.594  47.365  1.00  0.00    -0.251 F 
ENDBRANCH  10  12
BRANCH   9  14
HETATM   14  C5  UNL     1      25.144   3.232  49.474  1.00  0.00     0.042 C 
HETATM   15  C6  UNL     1      25.762   4.398  49.575  1.00  0.00     0.087 C 
HETATM   16 CL1  UNL     1      27.338   4.581  48.844  1.00  0.00    -0.097 Cl
ENDBRANCH   9  14
ENDBRANCH   7   9
ENDBRANCH   1   7
BRANCH   3  17
HETATM   17  C10 UNL     1      27.309  -0.164  53.131  1.00  0.00    -0.007 A 
HETATM   18  C11 UNL     1      28.187   0.832  53.502  1.00  0.00     0.014 A 
HETATM   19  C12 UNL     1      29.505   0.452  53.707  1.00  0.00     0.001 A 
HETATM   20  C13 UNL     1      29.976  -0.838  53.565  1.00  0.00     0.000 A 
HETATM   21  C14 UNL     1      29.071  -1.838  53.189  1.00  0.00     0.001 A 
HETATM   22  C15 UNL     1      27.759  -1.458  52.983  1.00  0.00     0.014 A 
ENDBRANCH   3  17
TORSDOF 5
ENDMDL
MODEL 4
REMARK VINA RESULT:      -7.4      3.482      6.652
REMARK  5 active torsions:
REMARK  status: ('A' for Active; 'I' for Inactive)
REMARK    1  A    between atoms: C2_2  and  C3_3 
REMARK    2  A    between atoms: C4_5  and  C5_6 
REMARK    3  A    between atoms: C4_5  and  N1_9 
REMARK    4  A    between atoms: N1_9  and  C7_10 
REMARK    5  A    between atoms: C9_12  and  C10_13 
ROOT
HETATM    1  C7  UNL     1      22.918   0.776  53.041  1.00  0.00     0.131 A 
HETATM    2  C8  UNL     1      24.309   0.678  52.995  1.00  0.00     0.083 A 
HETATM    3  C9  UNL     1      24.977  -0.213  53.809  1.00  0.00     0.072 A 
HETATM    4  N2  UNL     1      24.225  -0.965  54.633  1.00  0.00    -0.241 NA
HETATM    5  C16 UNL     1      22.879  -0.866  54.674  1.00  0.00     0.235 A 
HETATM    6  N3  UNL     1      22.222   0.002  53.883  1.00  0.00    -0.224 NA
ENDROOT
BRANCH   1   7
HETATM    7  N1  UNL     1      22.244   1.706  52.189  1.00  0.00    -0.341 N 
HETATM    8  H8  UNL     1      22.179   2.706  52.469  1.00  0.00     0.167 HD
BRANCH   7   9
HETATM    9  C4  UNL     1      21.670   1.264  50.973  1.00  0.00     0.038 C 
HETATM   10  C2  UNL     1      22.247   1.696  49.863  1.00  0.00    -0.029 C 
HETATM   11  C1  UNL     1      23.421   2.588  49.837  1.00  0.00     0.048 C 
BRANCH  10  12
HETATM   12  C3  UNL     1      21.828   1.370  48.476  1.00  0.00     0.258 C 
HETATM   13  F1  UNL     1      22.718   1.925  47.577  1.00  0.00    -0.251 F 
ENDBRANCH  10  12
BRANCH   9  14
HETATM   14  C5  UNL     1      20.513   0.385  51.083  1.00  0.00     0.042 C 
HETATM   15  C6  UNL     1      19.384   0.723  51.684  1.00  0.00     0.087 C 
HETATM   16 CL1  UNL     1      18.079  -0.437  51.738  1.00  0.00    -0.097 Cl
ENDBRANCH   9  14
ENDBRANCH   7   9
ENDBRANCH   1   7
BRANCH   3  17
HETATM   17  C10 UNL     1      26.426  -0.390  53.833  1.00  0.00    -0.007 A 
HETATM   18  C11 UNL     1      27.133   0.316  54.784  1.00  0.00     0.014 A 
HETATM   19  C12 UNL     1      28.508   0.138  54.794  1.00  0.00     0.001 A 
HETATM   20  C13 UNL     1      29.194  -0.687  53.925  1.00  0.00     0.000 A 
HETATM   21  C14 UNL     1      28.463  -1.397  52.966  1.00  0.00     0.001 A 
HETATM   22  C15 UNL     1      27.093  -1.218  52.956  1.00  0.00     0.014 A 
ENDBRANCH   3  17
TORSDOF 5
ENDMDL
MODEL 5
REMARK VINA RESULT:      -7.4      4.001      7.165
REMARK  5 active torsions:
REMARK  status: ('A' for Active; 'I' for Inactive)
REMARK    1  A    between atoms: C2_2  and  C3_3 
REMARK    2  A    between atoms: C4_5  and  C5_6 
REMARK    3  A    between atoms: C4_5  and  N1_9 
REMARK    4  A    between atoms: N1_9  and  C7_10 
REMARK    5  A    between atoms: C9_12  and  C10_13 
ROOT
HETATM    1  C7  UNL     1      23.408   2.459  51.621  1.00  0.00     0.131 A 
HETATM    2  C8  UNL     1      24.422   2.958  50.803  1.00  0.00     0.083 A 
HETATM    3  C9  UNL     1      24.656   4.314  50.721  1.00  0.00     0.072 A 
HETATM    4  N2  UNL     1      23.865   5.113  51.461  1.00  0.00    -0.241 NA
HETATM    5  C16 UNL     1      22.885   4.625  52.251  1.00  0.00     0.235 A 
HETATM    6  N3  UNL     1      22.652   3.303  52.334  1.00  0.00    -0.224 NA
ENDROOT
BRANCH   1   7
HETATM    7  N1  UNL     1      23.182   1.049  51.692  1.00  0.00    -0.341 N 
HETATM    8  H8  UNL     1      22.872   0.535  50.842  1.00  0.00     0.167 HD
BRANCH   7   9
HETATM    9  C4  UNL     1      23.380   0.361  52.912  1.00  0.00     0.038 C 
HETATM   10  C2  UNL     1      22.303  -0.174  53.465  1.00  0.00    -0.029 C 
HETATM   11  C1  UNL     1      20.950  -0.088  52.885  1.00  0.00     0.048 C 
BRANCH  10  12
HETATM   12  C3  UNL     1      22.261  -0.940  54.737  1.00  0.00     0.258 C 
HETATM   13  F1  UNL     1      21.347  -1.969  54.633  1.00  0.00    -0.251 F 
ENDBRANCH  10  12
BRANCH   9  14
HETATM   14  C5  UNL     1      24.746   0.320  53.418  1.00  0.00     0.042 C 
HETATM   15  C6  UNL     1      25.715  -0.397  52.872  1.00  0.00     0.087 C 
HETATM   16 CL1  UNL     1      27.307  -0.346  53.590  1.00  0.00    -0.097 Cl
ENDBRANCH   9  14
ENDBRANCH   7   9
ENDBRANCH   1   7
BRANCH   3  17
HETATM   17  C10 UNL     1      25.692   4.931  49.896  1.00  0.00    -0.007 A 
HETATM   18  C11 UNL     1      26.699   4.112  49.431  1.00  0.00     0.014 A 
HETATM   19  C12 UNL     1      27.675   4.712  48.650  1.00  0.00     0.001 A 
HETATM   20  C13 UNL     1      27.695   6.052  48.319  1.00  0.00     0.000 A 
HETATM   21  C14 UNL     1      26.665   6.870  48.799  1.00  0.00     0.001 A 
HETATM   22  C15 UNL     1      25.693   6.271  49.578  1.00  0.00     0.014 A 
ENDBRANCH   3  17
TORSDOF 5
ENDMDL
MODEL 6
REMARK VINA RESULT:      -7.3      3.831      6.903
REMARK  5 active torsions:
REMARK  status: ('A' for Active; 'I' for Inactive)
REMARK    1  A    between atoms: C2_2  and  C3_3 
REMARK    2  A    between atoms: C4_5  and  C5_6 
REMARK    3  A    between atoms: C4_5  and  N1_9 
REMARK    4  A    between atoms: N1_9  and  C7_10 
REMARK    5  A    between atoms: C9_12  and  C10_13 
ROOT
HETATM    1  C7  UNL     1      24.250   2.349  51.556  1.00  0.00     0.131 A 
HETATM    2  C8  UNL     1      25.196   3.245  51.057  1.00  0.00     0.083 A 
HETATM    3  C9  UNL     1      25.039   3.808  49.809  1.00  0.00     0.072 A 
HETATM    4  N2  UNL     1      23.944   3.450  49.113  1.00  0.00    -0.241 NA
HETATM    5  C16 UNL     1      23.032   2.582  49.600  1.00  0.00     0.235 A 
HETATM    6  N3  UNL     1      23.180   2.029  50.818  1.00  0.00    -0.224 NA
ENDROOT
BRANCH   1   7
HETATM    7  N1  UNL     1      24.430   1.775  52.853  1.00  0.00    -0.341 N 
HETATM    8  H8  UNL     1      24.379   2.384  53.696  1.00  0.00     0.167 HD
BRANCH   7   9
HETATM    9  C4  UNL     1      24.676   0.388  52.986  1.00  0.00     0.038 C 
HETATM   10  C2  UNL     1      25.944   0.010  52.942  1.00  0.00    -0.029 C 
HETATM   11  C1  UNL     1      27.075   0.939  52.766  1.00  0.00     0.048 C 
BRANCH  10  12
HETATM   12  C3  UNL     1      26.446  -1.383  53.058  1.00  0.00     0.258 C 
HETATM   13  F1  UNL     1      26.632  -1.919  51.800  1.00  0.00    -0.251 F 
ENDBRANCH  10  12
BRANCH   9  14
HETATM   14  C5  UNL     1      23.505  -0.464  53.157  1.00  0.00     0.042 C 
HETATM   15  C6  UNL     1      22.998  -0.795  54.334  1.00  0.00     0.087 C 
HETATM   16 CL1  UNL     1      21.589  -1.825  54.383  1.00  0.00    -0.097 Cl
ENDBRANCH   9  14
ENDBRANCH   7   9
ENDBRANCH   1   7
BRANCH   3  17
HETATM   17  C10 UNL     1      25.971   4.755  49.201  1.00  0.00    -0.007 A 
HETATM   18  C11 UNL     1      25.474   5.991  48.845  1.00  0.00     0.014 A 
HETATM   19  C12 UNL     1      26.369   6.878  48.269  1.00  0.00     0.001 A 
HETATM   20  C13 UNL     1      27.702   6.601  48.038  1.00  0.00     0.000 A 
HETATM   21  C14 UNL     1      28.193   5.342  48.406  1.00  0.00     0.001 A 
HETATM   22  C15 UNL     1      27.298   4.458  48.979  1.00  0.00     0.014 A 
ENDBRANCH   3  17
TORSDOF 5
ENDMDL
MODEL 7
REMARK VINA RESULT:      -7.2      3.279      6.239
REMARK  5 active torsions:
REMARK  status: ('A' for Active; 'I' for Inactive)
REMARK    1  A    between atoms: C2_2  and  C3_3 
REMARK    2  A    between atoms: C4_5  and  C5_6 
REMARK    3  A    between atoms: C4_5  and  N1_9 
REMARK    4  A    between atoms: N1_9  and  C7_10 
REMARK    5  A    between atoms: C9_12  and  C10_13 
ROOT
HETATM    1  C7  UNL     1      24.014   1.157  51.914  1.00  0.00     0.131 A 
HETATM    2  C8  UNL     1      25.383   0.916  52.022  1.00  0.00     0.083 A 
HETATM    3  C9  UNL     1      25.872   0.056  52.983  1.00  0.00     0.072 A 
HETATM    4  N2  UNL     1      24.969  -0.524  53.795  1.00  0.00    -0.241 NA
HETATM    5  C16 UNL     1      23.644  -0.287  53.687  1.00  0.00     0.235 A 
HETATM    6  N3  UNL     1      23.162   0.551  52.751  1.00  0.00    -0.224 NA
ENDROOT
BRANCH   1   7
HETATM    7  N1  UNL     1      23.527   2.052  50.911  1.00  0.00    -0.341 N 
HETATM    8  H8  UNL     1      22.994   1.675  50.101  1.00  0.00     0.167 HD
BRANCH   7   9
HETATM    9  C4  UNL     1      23.771   3.442  51.023  1.00  0.00     0.038 C 
HETATM   10  C2  UNL     1      22.776   4.174  51.498  1.00  0.00    -0.029 C 
HETATM   11  C1  UNL     1      21.468   3.626  51.902  1.00  0.00     0.048 C 
BRANCH  10  12
HETATM   12  C3  UNL     1      22.795   5.645  51.706  1.00  0.00     0.258 C 
HETATM   13  F1  UNL     1      21.553   6.173  51.416  1.00  0.00    -0.251 F 
ENDBRANCH  10  12
BRANCH   9  14
HETATM   14  C5  UNL     1      25.087   3.904  50.604  1.00  0.00     0.042 C 
HETATM   15  C6  UNL     1      25.590   3.707  49.396  1.00  0.00     0.087 C 
HETATM   16 CL1  UNL     1      27.185   4.321  49.037  1.00  0.00    -0.097 Cl
ENDBRANCH   9  14
ENDBRANCH   7   9
ENDBRANCH   1   7
BRANCH   3  17
HETATM   17  C10 UNL     1      27.285  -0.260  53.174  1.00  0.00    -0.007 A 
HETATM   18  C11 UNL     1      27.667  -1.573  52.994  1.00  0.00     0.014 A 
HETATM   19  C12 UNL     1      29.011  -1.859  53.180  1.00  0.00     0.001 A 
HETATM   20  C13 UNL     1      29.967  -0.924  53.526  1.00  0.00     0.000 A 
HETATM   21  C14 UNL     1      29.563   0.405  53.704  1.00  0.00     0.001 A 
HETATM   22  C15 UNL     1      28.223   0.688  53.520  1.00  0.00     0.014 A 
ENDBRANCH   3  17
TORSDOF 5
ENDMDL
MODEL 8
REMARK VINA RESULT:      -7.0      3.384      4.903
REMARK  5 active torsions:
REMARK  status: ('A' for Active; 'I' for Inactive)
REMARK    1  A    between atoms: C2_2  and  C3_3 
REMARK    2  A    between atoms: C4_5  and  C5_6 
REMARK    3  A    between atoms: C4_5  and  N1_9 
REMARK    4  A    between atoms: N1_9  and  C7_10 
REMARK    5  A    between atoms: C9_12  and  C10_13 
ROOT
HETATM    1  C7  UNL     1      25.949   2.491  51.025  1.00  0.00     0.131 A 
HETATM    2  C8  UNL     1      24.913   1.751  51.594  1.00  0.00     0.083 A 
HETATM    3  C9  UNL     1      25.115   1.038  52.757  1.00  0.00     0.072 A 
HETATM    4  N2  UNL     1      26.345   1.097  53.299  1.00  0.00    -0.241 NA
HETATM    5  C16 UNL     1      27.345   1.815  52.745  1.00  0.00     0.235 A 
HETATM    6  N3  UNL     1      27.153   2.512  51.610  1.00  0.00    -0.224 NA
ENDROOT
BRANCH   1   7
HETATM    7  N1  UNL     1      25.719   3.224  49.819  1.00  0.00    -0.341 N 
HETATM    8  H8  UNL     1      25.706   2.722  48.908  1.00  0.00     0.167 HD
BRANCH   7   9
HETATM    9  C4  UNL     1      25.510   4.623  49.869  1.00  0.00     0.038 C 
HETATM   10  C2  UNL     1      26.430   5.373  49.282  1.00  0.00    -0.029 C 
HETATM   11  C1  UNL     1      27.622   4.836  48.602  1.00  0.00     0.048 C 
BRANCH  10  12
HETATM   12  C3  UNL     1      26.427   6.856  49.204  1.00  0.00     0.258 C 
HETATM   13  F1  UNL     1      25.630   7.267  48.154  1.00  0.00    -0.251 F 
ENDBRANCH  10  12
BRANCH   9  14
HETATM   14  C5  UNL     1      24.309   5.074  50.558  1.00  0.00     0.042 C 
HETATM   15  C6  UNL     1      23.078   4.801  50.154  1.00  0.00     0.087 C 
HETATM   16 CL1  UNL     1      21.732   5.411  51.085  1.00  0.00    -0.097 Cl
ENDBRANCH   9  14
ENDBRANCH   7   9
ENDBRANCH   1   7
BRANCH   3  17
HETATM   17  C10 UNL     1      24.095   0.236  53.428  1.00  0.00    -0.007 A 
HETATM   18  C11 UNL     1      22.805   0.325  52.948  1.00  0.00     0.014 A 
HETATM   19  C12 UNL     1      21.849  -0.442  53.596  1.00  0.00     0.001 A 
HETATM   20  C13 UNL     1      22.108  -1.270  54.670  1.00  0.00     0.000 A 
HETATM   21  C14 UNL     1      23.423  -1.349  55.145  1.00  0.00     0.001 A 
HETATM   22  C15 UNL     1      24.376  -0.584  54.499  1.00  0.00     0.014 A 
ENDBRANCH   3  17
TORSDOF 5
ENDMDL
MODEL 9
REMARK VINA RESULT:      -7.0      3.176      5.829
REMARK  5 active torsions:
REMARK  status: ('A' for Active; 'I' for Inactive)
REMARK    1  A    between atoms: C2_2  and  C3_3 
REMARK    2  A    between atoms: C4_5  and  C5_6 
REMARK    3  A    between atoms: C4_5  and  N1_9 
REMARK    4  A    between atoms: N1_9  and  C7_10 
REMARK    5  A    between atoms: C9_12  and  C10_13 
ROOT
HETATM    1  C7  UNL     1      23.171   1.362  52.747  1.00  0.00     0.131 A 
HETATM    2  C8  UNL     1      24.547   1.251  52.943  1.00  0.00     0.083 A 
HETATM    3  C9  UNL     1      25.100   0.069  53.388  1.00  0.00     0.072 A 
HETATM    4  N2  UNL     1      24.252  -0.950  53.619  1.00  0.00    -0.241 NA
HETATM    5  C16 UNL     1      22.921  -0.837  53.427  1.00  0.00     0.235 A 
HETATM    6  N3  UNL     1      22.375   0.314  52.993  1.00  0.00    -0.224 NA
ENDROOT
BRANCH   1   7
HETATM    7  N1  UNL     1      22.616   2.597  52.285  1.00  0.00    -0.341 N 
HETATM    8  H8  UNL     1      21.749   2.967  52.725  1.00  0.00     0.167 HD
BRANCH   7   9
HETATM    9  C4  UNL     1      23.247   3.307  51.236  1.00  0.00     0.038 C 
HETATM   10  C2  UNL     1      23.727   4.503  51.544  1.00  0.00    -0.029 C 
HETATM   11  C1  UNL     1      23.636   5.106  52.886  1.00  0.00     0.048 C 
BRANCH  10  12
HETATM   12  C3  UNL     1      24.426   5.429  50.618  1.00  0.00     0.258 C 
HETATM   13  F1  UNL     1      24.748   6.597  51.281  1.00  0.00    -0.251 F 
ENDBRANCH  10  12
BRANCH   9  14
HETATM   14  C5  UNL     1      23.297   2.642  49.941  1.00  0.00     0.042 C 
HETATM   15  C6  UNL     1      22.383   2.796  48.996  1.00  0.00     0.087 C 
HETATM   16 CL1  UNL     1      22.576   1.932  47.490  1.00  0.00    -0.097 Cl
ENDBRANCH   9  14
ENDBRANCH   7   9
ENDBRANCH   1   7
BRANCH   3  17
HETATM   17  C10 UNL     1      26.526  -0.145  53.622  1.00  0.00    -0.007 A 
HETATM   18  C11 UNL     1      27.158  -1.093  52.846  1.00  0.00     0.014 A 
HETATM   19  C12 UNL     1      28.510  -1.286  53.080  1.00  0.00     0.001 A 
HETATM   20  C13 UNL     1      29.245  -0.597  54.024  1.00  0.00     0.000 A 
HETATM   21  C14 UNL     1      28.589   0.364  54.804  1.00  0.00     0.001 A 
HETATM   22  C15 UNL     1      27.241   0.554  54.571  1.00  0.00     0.014 A 
ENDBRANCH   3  17
TORSDOF 5
ENDMDL
