MODEL 1
REMARK VINA RESULT:      -8.6      0.000      0.000
REMARK  2 active torsions:
REMARK  status: ('A' for Active; 'I' for Inactive)
REMARK    1  A    between atoms: N1_1  and  C1_2 
REMARK    2  A    between atoms: C11_15  and  N5_16 
ROOT
HETATM    1  C1  UNL     1      26.264  -0.816  52.812  1.00  0.00     0.026 A 
HETATM    2  C2  UNL     1      25.008  -0.700  53.369  1.00  0.00     0.032 A 
HETATM    3  C3  UNL     1      24.243   0.440  53.255  1.00  0.00     0.040 A 
HETATM    4  C4  UNL     1      24.803   1.493  52.539  1.00  0.00     0.085 A 
HETATM    5  C5  UNL     1      26.061   1.439  51.955  1.00  0.00    -0.005 A 
HETATM    6  C6  UNL     1      26.768   0.264  52.112  1.00  0.00     0.040 A 
HETATM    7  C7  UNL     1      26.841   2.409  51.169  1.00  0.00     0.157 C 
HETATM    8  N2  UNL     1      26.249   3.675  50.993  1.00  0.00    -0.403 N 
HETATM    9  C8  UNL     1      24.985   3.750  50.385  1.00  0.00     0.189 C 
HETATM   10  C9  UNL     1      23.931   3.616  51.423  1.00  0.00     0.174 C 
HETATM   11  N3  UNL     1      22.794   4.075  51.872  1.00  0.00    -0.220 NA
HETATM   12  C10 UNL     1      21.934   5.136  51.419  1.00  0.00     0.232 C 
HETATM   13  N4  UNL     1      21.761   5.647  50.246  1.00  0.00    -0.253 NA
HETATM   14  C11 UNL     1      22.335   5.384  48.931  1.00  0.00     0.235 C 
HETATM   15  C12 UNL     1      23.786   5.574  48.907  1.00  0.00    -0.006 A 
HETATM   16  C13 UNL     1      24.114   6.673  48.105  1.00  0.00     0.012 A 
HETATM   17  C14 UNL     1      25.395   7.096  47.894  1.00  0.00     0.001 A 
HETATM   18  C15 UNL     1      26.424   6.418  48.490  1.00  0.00     0.001 A 
HETATM   19  C16 UNL     1      26.148   5.334  49.285  1.00  0.00     0.010 A 
HETATM   20  C17 UNL     1      24.838   4.896  49.507  1.00  0.00    -0.018 A 
HETATM   21  O1  UNL     1      24.007   2.650  52.433  1.00  0.00    -0.293 OA
HETATM   22  H8  UNL     1      26.489   4.405  51.676  1.00  0.00     0.154 HD
ENDROOT
BRANCH   1  23
HETATM   23  N1  UNL     1      26.986  -2.035  52.980  1.00  0.00    -0.399 N 
HETATM   24  H1  UNL     1      27.674  -1.897  52.180  1.00  0.00     0.156 HD
HETATM   25  H2  UNL     1      26.476  -2.445  53.800  1.00  0.00     0.156 HD
ENDBRANCH   1  23
BRANCH  14  26
HETATM   26  N5  UNL     1      21.689   6.219  48.002  1.00  0.00    -0.406 N 
HETATM   27  H12 UNL     1      21.891   7.221  48.028  1.00  0.00     0.152 HD
HETATM   28  H13 UNL     1      21.329   5.808  47.137  1.00  0.00     0.152 HD
ENDBRANCH  14  26
TORSDOF 2
ENDMDL
MODEL 2
REMARK VINA RESULT:      -8.5      3.534      5.868
REMARK  2 active torsions:
REMARK  status: ('A' for Active; 'I' for Inactive)
REMARK    1  A    between atoms: N1_1  and  C1_2 
REMARK    2  A    between atoms: C11_15  and  N5_16 
ROOT
HETATM    1  C1  UNL     1      28.503   1.689  54.062  1.00  0.00     0.026 A 
HETATM    2  C2  UNL     1      28.377   2.448  52.918  1.00  0.00     0.032 A 
HETATM    3  C3  UNL     1      27.276   2.380  52.094  1.00  0.00     0.040 A 
HETATM    4  C4  UNL     1      26.272   1.493  52.472  1.00  0.00     0.085 A 
HETATM    5  C5  UNL     1      26.339   0.702  53.610  1.00  0.00    -0.005 A 
HETATM    6  C6  UNL     1      27.474   0.825  54.386  1.00  0.00     0.040 A 
HETATM    7  C7  UNL     1      25.419  -0.287  54.196  1.00  0.00     0.157 C 
HETATM    8  N2  UNL     1      24.248  -0.548  53.458  1.00  0.00    -0.403 N 
HETATM    9  C8  UNL     1      23.384   0.520  53.163  1.00  0.00     0.189 C 
HETATM   10  C9  UNL     1      23.809   1.159  51.892  1.00  0.00     0.174 C 
HETATM   11  N3  UNL     1      23.419   1.649  50.746  1.00  0.00    -0.220 NA
HETATM   12  C10 UNL     1      22.118   1.782  50.146  1.00  0.00     0.232 C 
HETATM   13  N4  UNL     1      20.945   1.889  50.676  1.00  0.00    -0.253 NA
HETATM   14  C11 UNL     1      20.451   1.920  52.048  1.00  0.00     0.235 C 
HETATM   15  C12 UNL     1      20.782   0.701  52.788  1.00  0.00    -0.006 A 
HETATM   16  C13 UNL     1      19.615  -0.015  53.080  1.00  0.00     0.012 A 
HETATM   17  C14 UNL     1      19.608  -1.197  53.762  1.00  0.00     0.001 A 
HETATM   18  C15 UNL     1      20.797  -1.723  54.191  1.00  0.00     0.001 A 
HETATM   19  C16 UNL     1      21.966  -1.054  53.926  1.00  0.00     0.010 A 
HETATM   20  C17 UNL     1      21.981   0.158  53.226  1.00  0.00    -0.018 A 
HETATM   21  O1  UNL     1      25.154   1.437  51.618  1.00  0.00    -0.293 OA
HETATM   22  H8  UNL     1      24.276  -1.331  52.792  1.00  0.00     0.154 HD
ENDROOT
BRANCH   1  23
HETATM   23  N1  UNL     1      29.680   1.824  54.857  1.00  0.00    -0.399 N 
HETATM   24  H1  UNL     1      29.548   2.844  55.126  1.00  0.00     0.156 HD
HETATM   25  H2  UNL     1      30.075   0.855  54.774  1.00  0.00     0.156 HD
ENDBRANCH   1  23
BRANCH  14  26
HETATM   26  N5  UNL     1      19.063   2.138  52.004  1.00  0.00    -0.406 N 
HETATM   27  H12 UNL     1      18.555   1.860  51.161  1.00  0.00     0.152 HD
HETATM   28  H13 UNL     1      18.551   2.230  52.884  1.00  0.00     0.152 HD
ENDBRANCH  14  26
TORSDOF 2
ENDMDL
MODEL 3
REMARK VINA RESULT:      -8.3      2.148      6.406
REMARK  2 active torsions:
REMARK  status: ('A' for Active; 'I' for Inactive)
REMARK    1  A    between atoms: N1_1  and  C1_2 
REMARK    2  A    between atoms: C11_15  and  N5_16 
ROOT
HETATM    1  C1  UNL     1      25.674   7.081  48.410  1.00  0.00     0.026 A 
HETATM    2  C2  UNL     1      24.323   6.950  48.167  1.00  0.00     0.032 A 
HETATM    3  C3  UNL     1      23.623   5.797  48.445  1.00  0.00     0.040 A 
HETATM    4  C4  UNL     1      24.352   4.746  48.993  1.00  0.00     0.085 A 
HETATM    5  C5  UNL     1      25.711   4.815  49.260  1.00  0.00    -0.005 A 
HETATM    6  C6  UNL     1      26.345   6.003  48.955  1.00  0.00     0.040 A 
HETATM    7  C7  UNL     1      26.670   3.850  49.826  1.00  0.00     0.157 C 
HETATM    8  N2  UNL     1      26.154   2.573  50.120  1.00  0.00    -0.403 N 
HETATM    9  C8  UNL     1      25.073   2.472  51.012  1.00  0.00     0.189 C 
HETATM   10  C9  UNL     1      23.800   2.598  50.257  1.00  0.00     0.174 C 
HETATM   11  N3  UNL     1      22.595   2.125  50.086  1.00  0.00    -0.220 NA
HETATM   12  C10 UNL     1      21.882   1.047  50.717  1.00  0.00     0.232 C 
HETATM   13  N4  UNL     1      22.001   0.522  51.891  1.00  0.00    -0.253 NA
HETATM   14  C11 UNL     1      22.869   0.781  53.034  1.00  0.00     0.235 C 
HETATM   15  C12 UNL     1      24.287   0.614  52.708  1.00  0.00    -0.006 A 
HETATM   16  C13 UNL     1      24.811  -0.487  53.395  1.00  0.00     0.012 A 
HETATM   17  C14 UNL     1      26.111  -0.890  53.289  1.00  0.00     0.001 A 
HETATM   18  C15 UNL     1      26.959  -0.190  52.473  1.00  0.00     0.001 A 
HETATM   19  C16 UNL     1      26.486   0.896  51.781  1.00  0.00     0.010 A 
HETATM   20  C17 UNL     1      25.155   1.316  51.884  1.00  0.00    -0.018 A 
HETATM   21  O1  UNL     1      23.620   3.575  49.270  1.00  0.00    -0.293 OA
HETATM   22  H8  UNL     1      26.234   1.854  49.390  1.00  0.00     0.154 HD
ENDROOT
BRANCH   1  23
HETATM   23  N1  UNL     1      26.319   8.313  48.091  1.00  0.00    -0.399 N 
HETATM   24  H1  UNL     1      25.571   8.964  48.475  1.00  0.00     0.156 HD
HETATM   25  H2  UNL     1      27.198   7.954  47.643  1.00  0.00     0.156 HD
ENDBRANCH   1  23
BRANCH  14  26
HETATM   26  N5  UNL     1      22.475  -0.073  54.079  1.00  0.00    -0.406 N 
HETATM   27  H12 UNL     1      21.885   0.310  54.822  1.00  0.00     0.152 HD
HETATM   28  H13 UNL     1      22.475  -1.082  53.917  1.00  0.00     0.152 HD
ENDBRANCH  14  26
TORSDOF 2
ENDMDL
MODEL 4
REMARK VINA RESULT:      -8.2      1.967      3.268
REMARK  2 active torsions:
REMARK  status: ('A' for Active; 'I' for Inactive)
REMARK    1  A    between atoms: N1_1  and  C1_2 
REMARK    2  A    between atoms: C11_15  and  N5_16 
ROOT
HETATM    1  C1  UNL     1      25.824  -0.014  54.173  1.00  0.00     0.026 A 
HETATM    2  C2  UNL     1      27.137   0.283  53.876  1.00  0.00     0.032 A 
HETATM    3  C3  UNL     1      27.504   1.038  52.784  1.00  0.00     0.040 A 
HETATM    4  C4  UNL     1      26.470   1.500  51.974  1.00  0.00     0.085 A 
HETATM    5  C5  UNL     1      25.130   1.236  52.219  1.00  0.00    -0.005 A 
HETATM    6  C6  UNL     1      24.841   0.472  53.332  1.00  0.00     0.040 A 
HETATM    7  C7  UNL     1      23.892   1.612  51.516  1.00  0.00     0.157 C 
HETATM    8  N2  UNL     1      24.061   2.343  50.324  1.00  0.00    -0.403 N 
HETATM    9  C8  UNL     1      24.754   3.564  50.374  1.00  0.00     0.189 C 
HETATM   10  C9  UNL     1      26.207   3.312  50.196  1.00  0.00     0.174 C 
HETATM   11  N3  UNL     1      27.304   3.695  49.600  1.00  0.00    -0.220 NA
HETATM   12  C10 UNL     1      27.578   4.759  48.672  1.00  0.00     0.232 C 
HETATM   13  N4  UNL     1      26.992   5.894  48.484  1.00  0.00    -0.253 NA
HETATM   14  C11 UNL     1      25.852   6.561  49.102  1.00  0.00     0.235 C 
HETATM   15  C12 UNL     1      24.614   5.789  48.969  1.00  0.00    -0.006 A 
HETATM   16  C13 UNL     1      23.716   6.462  48.132  1.00  0.00     0.012 A 
HETATM   17  C14 UNL     1      22.477   5.984  47.819  1.00  0.00     0.001 A 
HETATM   18  C15 UNL     1      22.075   4.786  48.346  1.00  0.00     0.001 A 
HETATM   19  C16 UNL     1      22.924   4.093  49.172  1.00  0.00     0.010 A 
HETATM   20  C17 UNL     1      24.197   4.576  49.497  1.00  0.00    -0.018 A 
HETATM   21  O1  UNL     1      26.863   2.270  50.863  1.00  0.00    -0.293 OA
HETATM   22  H8  UNL     1      24.107   1.808  49.447  1.00  0.00     0.154 HD
ENDROOT
BRANCH   1  23
HETATM   23  N1  UNL     1      25.536  -0.804  55.326  1.00  0.00    -0.399 N 
HETATM   24  H1  UNL     1      26.520  -1.169  55.492  1.00  0.00     0.156 HD
HETATM   25  H2  UNL     1      24.506  -0.624  55.423  1.00  0.00     0.156 HD
ENDBRANCH   1  23
BRANCH  14  26
HETATM   26  N5  UNL     1      25.730   7.837  48.523  1.00  0.00    -0.406 N 
HETATM   27  H12 UNL     1      25.300   8.582  49.077  1.00  0.00     0.152 HD
HETATM   28  H13 UNL     1      26.351   8.088  47.751  1.00  0.00     0.152 HD
ENDBRANCH  14  26
TORSDOF 2
ENDMDL
MODEL 5
REMARK VINA RESULT:      -8.1      3.805      6.461
REMARK  2 active torsions:
REMARK  status: ('A' for Active; 'I' for Inactive)
REMARK    1  A    between atoms: N1_1  and  C1_2 
REMARK    2  A    between atoms: C11_15  and  N5_16 
ROOT
HETATM    1  C1  UNL     1      18.246  -1.906  53.365  1.00  0.00     0.026 A 
HETATM    2  C2  UNL     1      17.910  -0.757  52.682  1.00  0.00     0.032 A 
HETATM    3  C3  UNL     1      18.778   0.302  52.529  1.00  0.00     0.040 A 
HETATM    4  C4  UNL     1      20.036   0.160  53.106  1.00  0.00     0.085 A 
HETATM    5  C5  UNL     1      20.435  -0.970  53.805  1.00  0.00    -0.005 A 
HETATM    6  C6  UNL     1      19.510  -1.989  53.917  1.00  0.00     0.040 A 
HETATM    7  C7  UNL     1      21.688  -1.334  54.487  1.00  0.00     0.157 C 
HETATM    8  N2  UNL     1      22.691  -0.345  54.497  1.00  0.00    -0.403 N 
HETATM    9  C8  UNL     1      23.157   0.155  53.269  1.00  0.00     0.189 C 
HETATM   10  C9  UNL     1      22.307   1.298  52.850  1.00  0.00     0.174 C 
HETATM   11  N3  UNL     1      22.290   2.509  52.360  1.00  0.00    -0.220 NA
HETATM   12  C10 UNL     1      23.343   3.398  51.947  1.00  0.00     0.232 C 
HETATM   13  N4  UNL     1      24.535   3.159  51.511  1.00  0.00    -0.253 NA
HETATM   14  C11 UNL     1      25.297   1.941  51.259  1.00  0.00     0.235 C 
HETATM   15  C12 UNL     1      25.470   1.132  52.467  1.00  0.00    -0.006 A 
HETATM   16  C13 UNL     1      26.818   1.114  52.844  1.00  0.00     0.012 A 
HETATM   17  C14 UNL     1      27.286   0.441  53.935  1.00  0.00     0.001 A 
HETATM   18  C15 UNL     1      26.402  -0.261  54.711  1.00  0.00     0.001 A 
HETATM   19  C16 UNL     1      25.071  -0.270  54.378  1.00  0.00     0.010 A 
HETATM   20  C17 UNL     1      24.584   0.419  53.261  1.00  0.00    -0.018 A 
HETATM   21  O1  UNL     1      20.910   1.252  52.939  1.00  0.00    -0.293 OA
HETATM   22  H8  UNL     1      22.721   0.287  55.307  1.00  0.00     0.154 HD
ENDROOT
BRANCH   1  23
HETATM   23  N1  UNL     1      17.284  -2.954  53.475  1.00  0.00    -0.399 N 
HETATM   24  H1  UNL     1      17.833  -3.575  54.140  1.00  0.00     0.156 HD
HETATM   25  H2  UNL     1      16.529  -2.582  52.847  1.00  0.00     0.156 HD
ENDBRANCH   1  23
BRANCH  14  26
HETATM   26  N5  UNL     1      26.534   2.312  50.703  1.00  0.00    -0.406 N 
HETATM   27  H12 UNL     1      27.226   1.579  50.529  1.00  0.00     0.152 HD
HETATM   28  H13 UNL     1      26.595   3.187  50.178  1.00  0.00     0.152 HD
ENDBRANCH  14  26
TORSDOF 2
ENDMDL
MODEL 6
REMARK VINA RESULT:      -8.0      2.761      7.421
REMARK  2 active torsions:
REMARK  status: ('A' for Active; 'I' for Inactive)
REMARK    1  A    between atoms: N1_1  and  C1_2 
REMARK    2  A    between atoms: C11_15  and  N5_16 
ROOT
HETATM    1  C1  UNL     1      20.396   2.881  47.511  1.00  0.00     0.026 A 
HETATM    2  C2  UNL     1      21.625   3.469  47.298  1.00  0.00     0.032 A 
HETATM    3  C3  UNL     1      22.624   3.474  48.246  1.00  0.00     0.040 A 
HETATM    4  C4  UNL     1      22.336   2.846  49.454  1.00  0.00     0.085 A 
HETATM    5  C5  UNL     1      21.120   2.237  49.729  1.00  0.00    -0.005 A 
HETATM    6  C6  UNL     1      20.167   2.273  48.731  1.00  0.00     0.040 A 
HETATM    7  C7  UNL     1      20.601   1.527  50.911  1.00  0.00     0.157 C 
HETATM    8  N2  UNL     1      21.462   1.478  52.024  1.00  0.00    -0.403 N 
HETATM    9  C8  UNL     1      22.734   0.902  51.869  1.00  0.00     0.189 C 
HETATM   10  C9  UNL     1      23.693   1.943  51.418  1.00  0.00     0.174 C 
HETATM   11  N3  UNL     1      24.885   2.453  51.574  1.00  0.00    -0.220 NA
HETATM   12  C10 UNL     1      25.973   2.114  52.453  1.00  0.00     0.232 C 
HETATM   13  N4  UNL     1      26.298   0.996  53.010  1.00  0.00    -0.253 NA
HETATM   14  C11 UNL     1      25.731  -0.348  52.993  1.00  0.00     0.235 C 
HETATM   15  C12 UNL     1      24.358  -0.381  53.501  1.00  0.00    -0.006 A 
HETATM   16  C13 UNL     1      24.309  -1.086  54.709  1.00  0.00     0.012 A 
HETATM   17  C14 UNL     1      23.161  -1.281  55.421  1.00  0.00     0.001 A 
HETATM   18  C15 UNL     1      21.987  -0.768  54.940  1.00  0.00     0.001 A 
HETATM   19  C16 UNL     1      21.989  -0.070  53.759  1.00  0.00     0.010 A 
HETATM   20  C17 UNL     1      23.162   0.136  53.024  1.00  0.00    -0.018 A 
HETATM   21  O1  UNL     1      23.369   2.860  50.411  1.00  0.00    -0.293 OA
HETATM   22  H8  UNL     1      21.362   2.220  52.729  1.00  0.00     0.154 HD
ENDROOT
BRANCH   1  23
HETATM   23  N1  UNL     1      19.418   2.924  46.472  1.00  0.00    -0.399 N 
HETATM   24  H1  UNL     1      19.839   3.730  45.921  1.00  0.00     0.156 HD
HETATM   25  H2  UNL     1      18.786   2.144  46.778  1.00  0.00     0.156 HD
ENDBRANCH   1  23
BRANCH  14  26
HETATM   26  N5  UNL     1      26.579  -1.185  53.740  1.00  0.00    -0.406 N 
HETATM   27  H12 UNL     1      26.228  -1.571  54.620  1.00  0.00     0.152 HD
HETATM   28  H13 UNL     1      27.346  -1.662  53.261  1.00  0.00     0.152 HD
ENDBRANCH  14  26
TORSDOF 2
ENDMDL
MODEL 7
REMARK VINA RESULT:      -7.9      4.623      7.899
REMARK  2 active torsions:
REMARK  status: ('A' for Active; 'I' for Inactive)
REMARK    1  A    between atoms: N1_1  and  C1_2 
REMARK    2  A    between atoms: C11_15  and  N5_16 
ROOT
HETATM    1  C1  UNL     1      16.382  -0.393  50.836  1.00  0.00     0.026 A 
HETATM    2  C2  UNL     1      16.745   0.782  50.213  1.00  0.00     0.032 A 
HETATM    3  C3  UNL     1      17.875   1.491  50.555  1.00  0.00     0.040 A 
HETATM    4  C4  UNL     1      18.654   0.960  51.579  1.00  0.00     0.085 A 
HETATM    5  C5  UNL     1      18.344  -0.217  52.244  1.00  0.00    -0.005 A 
HETATM    6  C6  UNL     1      17.195  -0.871  51.847  1.00  0.00     0.040 A 
HETATM    7  C7  UNL     1      19.005  -0.954  53.335  1.00  0.00     0.157 C 
HETATM    8  N2  UNL     1      20.159  -0.350  53.872  1.00  0.00    -0.403 N 
HETATM    9  C8  UNL     1      21.234  -0.068  53.012  1.00  0.00     0.189 C 
HETATM   10  C9  UNL     1      21.044   1.279  52.414  1.00  0.00     0.174 C 
HETATM   11  N3  UNL     1      21.614   2.413  52.105  1.00  0.00    -0.220 NA
HETATM   12  C10 UNL     1      22.960   2.893  52.268  1.00  0.00     0.232 C 
HETATM   13  N4  UNL     1      24.085   2.263  52.338  1.00  0.00    -0.253 NA
HETATM   14  C11 UNL     1      24.463   0.855  52.284  1.00  0.00     0.235 C 
HETATM   15  C12 UNL     1      23.844   0.069  53.353  1.00  0.00    -0.006 A 
HETATM   16  C13 UNL     1      24.823  -0.380  54.247  1.00  0.00     0.012 A 
HETATM   17  C14 UNL     1      24.545  -1.138  55.348  1.00  0.00     0.001 A 
HETATM   18  C15 UNL     1      23.246  -1.486  55.605  1.00  0.00     0.001 A 
HETATM   19  C16 UNL     1      22.255  -1.066  54.754  1.00  0.00     0.010 A 
HETATM   20  C17 UNL     1      22.531  -0.288  53.623  1.00  0.00    -0.018 A 
HETATM   21  O1  UNL     1      19.805   1.698  51.915  1.00  0.00    -0.293 OA
HETATM   22  H8  UNL     1      20.034   0.261  54.689  1.00  0.00     0.154 HD
ENDROOT
BRANCH   1  23
HETATM   23  N1  UNL     1      15.194  -1.062  50.417  1.00  0.00    -0.399 N 
HETATM   24  H1  UNL     1      15.650  -1.739  49.737  1.00  0.00     0.156 HD
HETATM   25  H2  UNL     1      14.478  -0.550  50.990  1.00  0.00     0.156 HD
ENDBRANCH   1  23
BRANCH  14  26
HETATM   26  N5  UNL     1      25.866   0.781  52.334  1.00  0.00    -0.406 N 
HETATM   27  H12 UNL     1      26.293  -0.037  52.775  1.00  0.00     0.152 HD
HETATM   28  H13 UNL     1      26.412   1.323  51.660  1.00  0.00     0.152 HD
ENDBRANCH  14  26
TORSDOF 2
ENDMDL
MODEL 8
REMARK VINA RESULT:      -7.8      1.924      7.271
REMARK  2 active torsions:
REMARK  status: ('A' for Active; 'I' for Inactive)
REMARK    1  A    between atoms: N1_1  and  C1_2 
REMARK    2  A    between atoms: C11_15  and  N5_16 
ROOT
HETATM    1  C1  UNL     1      22.408   5.123  47.992  1.00  0.00     0.026 A 
HETATM    2  C2  UNL     1      23.706   5.482  48.284  1.00  0.00     0.032 A 
HETATM    3  C3  UNL     1      24.355   5.075  49.428  1.00  0.00     0.040 A 
HETATM    4  C4  UNL     1      23.629   4.267  50.299  1.00  0.00     0.085 A 
HETATM    5  C5  UNL     1      22.320   3.871  50.063  1.00  0.00    -0.005 A 
HETATM    6  C6  UNL     1      21.736   4.320  48.895  1.00  0.00     0.040 A 
HETATM    7  C7  UNL     1      21.374   3.038  50.825  1.00  0.00     0.157 C 
HETATM    8  N2  UNL     1      21.834   2.572  52.072  1.00  0.00    -0.403 N 
HETATM    9  C8  UNL     1      23.007   1.799  52.112  1.00  0.00     0.189 C 
HETATM   10  C9  UNL     1      24.183   2.697  52.233  1.00  0.00     0.174 C 
HETATM   11  N3  UNL     1      25.323   2.908  52.834  1.00  0.00    -0.220 NA
HETATM   12  C10 UNL     1      26.033   2.170  53.845  1.00  0.00     0.232 C 
HETATM   13  N4  UNL     1      26.023   0.914  54.145  1.00  0.00    -0.253 NA
HETATM   14  C11 UNL     1      25.322  -0.249  53.613  1.00  0.00     0.235 C 
HETATM   15  C12 UNL     1      23.867  -0.115  53.708  1.00  0.00    -0.006 A 
HETATM   16  C13 UNL     1      23.356  -1.045  54.621  1.00  0.00     0.012 A 
HETATM   17  C14 UNL     1      22.029  -1.156  54.919  1.00  0.00     0.001 A 
HETATM   18  C15 UNL     1      21.137  -0.322  54.299  1.00  0.00     0.001 A 
HETATM   19  C16 UNL     1      21.594   0.605  53.397  1.00  0.00     0.010 A 
HETATM   20  C17 UNL     1      22.954   0.726  53.086  1.00  0.00    -0.018 A 
HETATM   21  O1  UNL     1      24.308   3.860  51.463  1.00  0.00    -0.293 OA
HETATM   22  H8  UNL     1      21.616   3.144  52.897  1.00  0.00     0.154 HD
ENDROOT
BRANCH   1  23
HETATM   23  N1  UNL     1      21.814   5.591  46.782  1.00  0.00    -0.399 N 
HETATM   24  H1  UNL     1      22.615   6.216  46.469  1.00  0.00     0.156 HD
HETATM   25  H2  UNL     1      20.895   5.085  46.816  1.00  0.00     0.156 HD
ENDBRANCH   1  23
BRANCH  14  26
HETATM   26  N5  UNL     1      25.781  -1.385  54.303  1.00  0.00    -0.406 N 
HETATM   27  H12 UNL     1      25.264  -1.693  55.130  1.00  0.00     0.152 HD
HETATM   28  H13 UNL     1      26.369  -2.058  53.807  1.00  0.00     0.152 HD
ENDBRANCH  14  26
TORSDOF 2
ENDMDL
MODEL 9
REMARK VINA RESULT:      -7.8      4.020      6.367
REMARK  2 active torsions:
REMARK  status: ('A' for Active; 'I' for Inactive)
REMARK    1  A    between atoms: N1_1  and  C1_2 
REMARK    2  A    between atoms: C11_15  and  N5_16 
ROOT
HETATM    1  C1  UNL     1      26.580   2.103  53.220  1.00  0.00     0.026 A 
HETATM    2  C2  UNL     1      26.409   2.711  51.995  1.00  0.00     0.032 A 
HETATM    3  C3  UNL     1      25.321   2.467  51.185  1.00  0.00     0.040 A 
HETATM    4  C4  UNL     1      24.381   1.561  51.666  1.00  0.00     0.085 A 
HETATM    5  C5  UNL     1      24.495   0.917  52.890  1.00  0.00    -0.005 A 
HETATM    6  C6  UNL     1      25.612   1.212  53.645  1.00  0.00     0.040 A 
HETATM    7  C7  UNL     1      23.642  -0.059  53.590  1.00  0.00     0.157 C 
HETATM    8  N2  UNL     1      22.499  -0.488  52.889  1.00  0.00    -0.403 N 
HETATM    9  C8  UNL     1      21.563   0.473  52.471  1.00  0.00     0.189 C 
HETATM   10  C9  UNL     1      21.952   0.986  51.132  1.00  0.00     0.174 C 
HETATM   11  N3  UNL     1      21.536   1.307  49.936  1.00  0.00    -0.220 NA
HETATM   12  C10 UNL     1      20.234   1.275  49.326  1.00  0.00     0.232 C 
HETATM   13  N4  UNL     1      19.052   1.360  49.840  1.00  0.00    -0.253 NA
HETATM   14  C11 UNL     1      18.547   1.518  51.200  1.00  0.00     0.235 C 
HETATM   15  C12 UNL     1      18.958   0.422  52.079  1.00  0.00    -0.006 A 
HETATM   16  C13 UNL     1      17.842  -0.336  52.455  1.00  0.00     0.012 A 
HETATM   17  C14 UNL     1      17.915  -1.427  53.271  1.00  0.00     0.001 A 
HETATM   18  C15 UNL     1      19.135  -1.812  53.759  1.00  0.00     0.001 A 
HETATM   19  C16 UNL     1      20.255  -1.098  53.415  1.00  0.00     0.010 A 
HETATM   20  C17 UNL     1      20.189   0.022  52.577  1.00  0.00    -0.018 A 
HETATM   21  O1  UNL     1      23.276   1.325  50.826  1.00  0.00    -0.293 OA
HETATM   22  H8  UNL     1      22.587  -1.340  52.321  1.00  0.00     0.154 HD
ENDROOT
BRANCH   1  23
HETATM   23  N1  UNL     1      27.738   2.414  53.993  1.00  0.00    -0.399 N 
HETATM   24  H1  UNL     1      28.211   3.047  53.282  1.00  0.00     0.156 HD
HETATM   25  H2  UNL     1      27.535   1.865  54.864  1.00  0.00     0.156 HD
ENDBRANCH   1  23
BRANCH  14  26
HETATM   26  N5  UNL     1      17.147   1.629  51.131  1.00  0.00    -0.406 N 
HETATM   27  H12 UNL     1      16.732   2.009  50.277  1.00  0.00     0.152 HD
HETATM   28  H13 UNL     1      16.576   1.040  51.741  1.00  0.00     0.152 HD
ENDBRANCH  14  26
TORSDOF 2
ENDMDL
