MODEL 1
REMARK VINA RESULT:      -7.5      0.000      0.000
REMARK  1 active torsions:
REMARK  status: ('A' for Active; 'I' for Inactive)
REMARK    1  A    between atoms: C8_8  and  O1_9 
ROOT
HETATM    1  C1  UNL     1      25.456   8.238  50.462  1.00  0.00     0.048 C 
HETATM    2  C2  UNL     1      26.567   7.838  49.562  1.00  0.00    -0.062 C 
HETATM    3  C3  UNL     1      26.510   6.639  48.950  1.00  0.00     0.007 C 
HETATM    4  C4  UNL     1      27.655   6.011  48.242  1.00  0.00     0.010 C 
HETATM    5  C5  UNL     1      28.821   6.522  47.787  1.00  0.00    -0.030 C 
HETATM    6  C6  UNL     1      29.857   5.468  47.915  1.00  0.00     0.012 C 
HETATM    7  C7  UNL     1      31.083   5.529  48.460  1.00  0.00     0.037 C 
HETATM    8  C8  UNL     1      32.023   6.411  49.128  1.00  0.00     0.062 C 
HETATM    9  C9  UNL     1      32.162   7.687  49.551  1.00  0.00     0.015 C 
HETATM   10  C10 UNL     1      30.979   8.547  49.265  1.00  0.00     0.026 C 
HETATM   11  C11 UNL     1      30.549   9.825  49.433  1.00  0.00     0.028 C 
HETATM   12  C12 UNL     1      29.223  10.140  48.926  1.00  0.00     0.120 C 
HETATM   13  N1  UNL     1      29.364  10.922  47.628  1.00  0.00    -0.366 N 
HETATM   14  C13 UNL     1      28.537  10.661  46.426  1.00  0.00     0.123 C 
HETATM   15  C14 UNL     1      27.209  10.386  46.190  1.00  0.00     0.044 C 
HETATM   16  C15 UNL     1      26.988   8.896  46.062  1.00  0.00     0.174 C 
HETATM   17  N2  UNL     1      28.145   8.098  46.118  1.00  0.00    -0.310 N 
HETATM   18  N3  UNL     1      28.926   8.162  44.901  1.00  0.00    -0.295 N 
HETATM   19  C16 UNL     1      29.568   9.466  44.551  1.00  0.00     0.225 C 
HETATM   20  N4  UNL     1      29.412  10.655  45.230  1.00  0.00    -0.226 NA
HETATM   21  C17 UNL     1      28.869   7.949  47.301  1.00  0.00     0.166 C 
HETATM   22  C18 UNL     1      28.531   8.838  48.491  1.00  0.00    -0.028 C 
HETATM   23  C19 UNL     1      27.649   8.841  49.437  1.00  0.00     0.014 C 
HETATM   24  H13 UNL     1      29.895  11.672  47.148  1.00  0.00     0.161 HD
HETATM   25  H17 UNL     1      29.165   7.465  44.159  1.00  0.00     0.187 HD
ENDROOT
BRANCH   8  26
HETATM   26  O1  UNL     1      33.187   5.644  49.424  1.00  0.00    -0.361 OA
HETATM   27  H8  UNL     1      34.018   5.769  48.874  1.00  0.00     0.217 HD
ENDBRANCH   8  26
TORSDOF 1
ENDMDL
MODEL 2
REMARK VINA RESULT:      -7.4      5.463      7.803
REMARK  1 active torsions:
REMARK  status: ('A' for Active; 'I' for Inactive)
REMARK    1  A    between atoms: C8_8  and  O1_9 
ROOT
HETATM    1  C1  UNL     1      25.633   1.769  53.925  1.00  0.00     0.048 C 
HETATM    2  C2  UNL     1      25.500   2.405  52.590  1.00  0.00    -0.062 C 
HETATM    3  C3  UNL     1      26.237   1.932  51.566  1.00  0.00     0.007 C 
HETATM    4  C4  UNL     1      26.397   2.628  50.264  1.00  0.00     0.010 C 
HETATM    5  C5  UNL     1      25.694   3.628  49.686  1.00  0.00    -0.030 C 
HETATM    6  C6  UNL     1      26.641   4.446  48.890  1.00  0.00     0.012 C 
HETATM    7  C7  UNL     1      26.824   5.776  48.872  1.00  0.00     0.037 C 
HETATM    8  C8  UNL     1      26.364   7.028  49.446  1.00  0.00     0.062 C 
HETATM    9  C9  UNL     1      25.464   7.523  50.325  1.00  0.00     0.015 C 
HETATM   10  C10 UNL     1      24.610   6.482  50.962  1.00  0.00     0.026 C 
HETATM   11  C11 UNL     1      23.598   6.364  51.860  1.00  0.00     0.028 C 
HETATM   12  C12 UNL     1      23.111   5.019  52.124  1.00  0.00     0.120 C 
HETATM   13  N1  UNL     1      21.783   4.825  51.406  1.00  0.00    -0.366 N 
HETATM   14  C13 UNL     1      21.436   3.597  50.654  1.00  0.00     0.123 C 
HETATM   15  C14 UNL     1      21.595   2.245  50.857  1.00  0.00     0.044 C 
HETATM   16  C15 UNL     1      22.831   1.741  50.145  1.00  0.00     0.174 C 
HETATM   17  N2  UNL     1      23.517   2.688  49.364  1.00  0.00    -0.310 N 
HETATM   18  N3  UNL     1      22.833   2.989  48.124  1.00  0.00    -0.295 N 
HETATM   19  C16 UNL     1      21.510   3.680  48.205  1.00  0.00     0.225 C 
HETATM   20  N4  UNL     1      20.821   3.979  49.361  1.00  0.00    -0.226 NA
HETATM   21  C17 UNL     1      24.213   3.745  49.950  1.00  0.00     0.166 C 
HETATM   22  C18 UNL     1      24.043   4.007  51.441  1.00  0.00    -0.028 C 
HETATM   23  C19 UNL     1      24.537   3.529  52.537  1.00  0.00     0.014 C 
HETATM   24  H13 UNL     1      20.879   5.273  51.168  1.00  0.00     0.161 HD
HETATM   25  H17 UNL     1      23.062   2.828  47.116  1.00  0.00     0.187 HD
ENDROOT
BRANCH   8  26
HETATM   26  O1  UNL     1      27.143   8.071  48.868  1.00  0.00    -0.361 OA
HETATM   27  H8  UNL     1      26.708   8.946  48.636  1.00  0.00     0.217 HD
ENDBRANCH   8  26
TORSDOF 1
ENDMDL
MODEL 3
REMARK VINA RESULT:      -7.3      6.771      9.420
REMARK  1 active torsions:
REMARK  status: ('A' for Active; 'I' for Inactive)
REMARK    1  A    between atoms: C8_8  and  O1_9 
ROOT
HETATM    1  C1  UNL     1      26.772   2.010  51.502  1.00  0.00     0.048 C 
HETATM    2  C2  UNL     1      25.354   2.440  51.592  1.00  0.00    -0.062 C 
HETATM    3  C3  UNL     1      24.768   2.502  52.804  1.00  0.00     0.007 C 
HETATM    4  C4  UNL     1      23.306   2.660  53.014  1.00  0.00     0.010 C 
HETATM    5  C5  UNL     1      22.316   3.059  52.184  1.00  0.00    -0.030 C 
HETATM    6  C6  UNL     1      21.087   2.317  52.556  1.00  0.00     0.012 C 
HETATM    7  C7  UNL     1      20.232   1.627  51.785  1.00  0.00     0.037 C 
HETATM    8  C8  UNL     1      19.957   1.220  50.419  1.00  0.00     0.062 C 
HETATM    9  C9  UNL     1      20.435   1.342  49.160  1.00  0.00     0.015 C 
HETATM   10  C10 UNL     1      21.668   2.173  49.063  1.00  0.00     0.026 C 
HETATM   11  C11 UNL     1      22.551   2.631  48.138  1.00  0.00     0.028 C 
HETATM   12  C12 UNL     1      23.640   3.460  48.629  1.00  0.00     0.120 C 
HETATM   13  N1  UNL     1      23.346   4.914  48.288  1.00  0.00    -0.366 N 
HETATM   14  C13 UNL     1      23.556   6.032  49.237  1.00  0.00     0.123 C 
HETATM   15  C14 UNL     1      24.532   6.378  50.144  1.00  0.00     0.044 C 
HETATM   16  C15 UNL     1      24.153   5.918  51.535  1.00  0.00     0.174 C 
HETATM   17  N2  UNL     1      22.884   5.323  51.658  1.00  0.00    -0.310 N 
HETATM   18  N3  UNL     1      21.807   6.289  51.602  1.00  0.00    -0.295 N 
HETATM   19  C16 UNL     1      21.589   7.019  50.316  1.00  0.00     0.225 C 
HETATM   20  N4  UNL     1      22.381   6.933  49.191  1.00  0.00    -0.226 NA
HETATM   21  C17 UNL     1      22.612   4.072  51.105  1.00  0.00     0.166 C 
HETATM   22  C18 UNL     1      23.630   3.441  50.166  1.00  0.00    -0.028 C 
HETATM   23  C19 UNL     1      24.726   2.763  50.291  1.00  0.00     0.014 C 
HETATM   24  H13 UNL     1      22.983   5.552  47.556  1.00  0.00     0.161 HD
HETATM   25  H17 UNL     1      21.096   6.618  52.295  1.00  0.00     0.187 HD
ENDROOT
BRANCH   8  26
HETATM   26  O1  UNL     1      18.777   0.422  50.443  1.00  0.00    -0.361 OA
HETATM   27  H8  UNL     1      18.476  -0.046  49.607  1.00  0.00     0.217 HD
ENDBRANCH   8  26
TORSDOF 1
ENDMDL
MODEL 4
REMARK VINA RESULT:      -7.2      3.312      4.635
REMARK  1 active torsions:
REMARK  status: ('A' for Active; 'I' for Inactive)
REMARK    1  A    between atoms: C8_8  and  O1_9 
ROOT
HETATM    1  C1  UNL     1      30.619   9.747  49.494  1.00  0.00     0.048 C 
HETATM    2  C2  UNL     1      31.083   8.647  48.611  1.00  0.00    -0.062 C 
HETATM    3  C3  UNL     1      30.173   7.791  48.104  1.00  0.00     0.007 C 
HETATM    4  C4  UNL     1      30.519   6.513  47.432  1.00  0.00     0.010 C 
HETATM    5  C5  UNL     1      31.680   6.055  46.912  1.00  0.00    -0.030 C 
HETATM    6  C6  UNL     1      31.715   4.585  47.110  1.00  0.00     0.012 C 
HETATM    7  C7  UNL     1      32.682   3.809  47.626  1.00  0.00     0.037 C 
HETATM    8  C8  UNL     1      34.016   3.829  48.198  1.00  0.00     0.062 C 
HETATM    9  C9  UNL     1      35.024   4.675  48.509  1.00  0.00     0.015 C 
HETATM   10  C10 UNL     1      34.738   6.098  48.173  1.00  0.00     0.026 C 
HETATM   11  C11 UNL     1      35.317   7.326  48.239  1.00  0.00     0.028 C 
HETATM   12  C12 UNL     1      34.538   8.444  47.732  1.00  0.00     0.120 C 
HETATM   13  N1  UNL     1      35.083   8.848  46.370  1.00  0.00    -0.366 N 
HETATM   14  C13 UNL     1      34.220   9.171  45.210  1.00  0.00     0.123 C 
HETATM   15  C14 UNL     1      33.054   9.879  45.023  1.00  0.00     0.044 C 
HETATM   16  C15 UNL     1      31.860   8.949  45.027  1.00  0.00     0.174 C 
HETATM   17  N2  UNL     1      32.153   7.577  45.129  1.00  0.00    -0.310 N 
HETATM   18  N3  UNL     1      32.674   7.025  43.896  1.00  0.00    -0.295 N 
HETATM   19  C16 UNL     1      34.009   7.506  43.425  1.00  0.00     0.225 C 
HETATM   20  N4  UNL     1      34.762   8.505  44.003  1.00  0.00    -0.226 NA
HETATM   21  C17 UNL     1      32.660   7.028  46.306  1.00  0.00     0.166 C 
HETATM   22  C18 UNL     1      33.113   7.961  47.422  1.00  0.00    -0.028 C 
HETATM   23  C19 UNL     1      32.545   8.618  48.381  1.00  0.00     0.014 C 
HETATM   24  H13 UNL     1      35.948   8.999  45.818  1.00  0.00     0.161 HD
HETATM   25  H17 UNL     1      32.314   6.321  43.212  1.00  0.00     0.187 HD
ENDROOT
BRANCH   8  26
HETATM   26  O1  UNL     1      34.353   2.487  48.537  1.00  0.00    -0.361 OA
HETATM   27  H8  UNL     1      35.156   2.054  48.117  1.00  0.00     0.217 HD
ENDBRANCH   8  26
TORSDOF 1
ENDMDL
MODEL 5
REMARK VINA RESULT:      -7.0      3.695      6.052
REMARK  1 active torsions:
REMARK  status: ('A' for Active; 'I' for Inactive)
REMARK    1  A    between atoms: C8_8  and  O1_9 
ROOT
HETATM    1  C1  UNL     1      36.496   6.245  49.424  1.00  0.00     0.048 C 
HETATM    2  C2  UNL     1      35.340   5.954  48.537  1.00  0.00    -0.062 C 
HETATM    3  C3  UNL     1      34.961   4.672  48.361  1.00  0.00     0.007 C 
HETATM    4  C4  UNL     1      34.006   4.224  47.316  1.00  0.00     0.010 C 
HETATM    5  C5  UNL     1      33.116   4.904  46.559  1.00  0.00    -0.030 C 
HETATM    6  C6  UNL     1      33.036   4.230  45.241  1.00  0.00     0.012 C 
HETATM    7  C7  UNL     1      33.121   4.746  44.004  1.00  0.00     0.037 C 
HETATM    8  C8  UNL     1      33.299   5.981  43.262  1.00  0.00     0.062 C 
HETATM    9  C9  UNL     1      33.465   7.311  43.442  1.00  0.00     0.015 C 
HETATM   10  C10 UNL     1      33.475   7.727  44.873  1.00  0.00     0.026 C 
HETATM   11  C11 UNL     1      33.594   8.844  45.637  1.00  0.00     0.028 C 
HETATM   12  C12 UNL     1      33.525   8.661  47.078  1.00  0.00     0.120 C 
HETATM   13  N1  UNL     1      32.158   9.116  47.568  1.00  0.00    -0.366 N 
HETATM   14  C13 UNL     1      31.356   8.362  48.560  1.00  0.00     0.123 C 
HETATM   15  C14 UNL     1      31.623   7.694  49.733  1.00  0.00     0.044 C 
HETATM   16  C15 UNL     1      31.792   6.213  49.475  1.00  0.00     0.174 C 
HETATM   17  N2  UNL     1      31.567   5.792  48.152  1.00  0.00    -0.310 N 
HETATM   18  N3  UNL     1      30.161   5.770  47.804  1.00  0.00    -0.295 N 
HETATM   19  C16 UNL     1      29.433   7.074  47.753  1.00  0.00     0.225 C 
HETATM   20  N4  UNL     1      29.949   8.305  48.100  1.00  0.00    -0.226 NA
HETATM   21  C17 UNL     1      32.444   6.132  47.123  1.00  0.00     0.166 C 
HETATM   22  C18 UNL     1      33.539   7.157  47.392  1.00  0.00    -0.028 C 
HETATM   23  C19 UNL     1      34.717   7.149  47.927  1.00  0.00     0.014 C 
HETATM   24  H13 UNL     1      31.425   9.843  47.470  1.00  0.00     0.161 HD
HETATM   25  H17 UNL     1      29.490   5.005  47.564  1.00  0.00     0.187 HD
ENDROOT
BRANCH   8  26
HETATM   26  O1  UNL     1      33.292   5.650  41.877  1.00  0.00    -0.361 OA
HETATM   27  H8  UNL     1      32.565   6.007  41.284  1.00  0.00     0.217 HD
ENDBRANCH   8  26
TORSDOF 1
ENDMDL
MODEL 6
REMARK VINA RESULT:      -7.0      5.950      8.289
REMARK  1 active torsions:
REMARK  status: ('A' for Active; 'I' for Inactive)
REMARK    1  A    between atoms: C8_8  and  O1_9 
ROOT
HETATM    1  C1  UNL     1      21.732   1.431  52.804  1.00  0.00     0.048 C 
HETATM    2  C2  UNL     1      22.352   2.243  51.727  1.00  0.00    -0.062 C 
HETATM    3  C3  UNL     1      23.406   1.738  51.055  1.00  0.00     0.007 C 
HETATM    4  C4  UNL     1      24.273   2.533  50.148  1.00  0.00     0.010 C 
HETATM    5  C5  UNL     1      24.094   3.736  49.559  1.00  0.00    -0.030 C 
HETATM    6  C6  UNL     1      25.419   4.396  49.466  1.00  0.00     0.012 C 
HETATM    7  C7  UNL     1      25.790   5.636  49.827  1.00  0.00     0.037 C 
HETATM    8  C8  UNL     1      25.310   6.879  50.403  1.00  0.00     0.062 C 
HETATM    9  C9  UNL     1      24.188   7.461  50.881  1.00  0.00     0.015 C 
HETATM   10  C10 UNL     1      22.985   6.584  50.827  1.00  0.00     0.026 C 
HETATM   11  C11 UNL     1      21.662   6.601  51.136  1.00  0.00     0.028 C 
HETATM   12  C12 UNL     1      20.909   5.390  50.852  1.00  0.00     0.120 C 
HETATM   13  N1  UNL     1      20.073   5.612  49.599  1.00  0.00    -0.366 N 
HETATM   14  C13 UNL     1      19.944   4.606  48.518  1.00  0.00     0.123 C 
HETATM   15  C14 UNL     1      19.776   3.241  48.464  1.00  0.00     0.044 C 
HETATM   16  C15 UNL     1      21.108   2.549  48.277  1.00  0.00     0.174 C 
HETATM   17  N2  UNL     1      22.220   3.394  48.111  1.00  0.00    -0.310 N 
HETATM   18  N3  UNL     1      22.267   4.003  46.798  1.00  0.00    -0.295 N 
HETATM   19  C16 UNL     1      21.189   4.975  46.440  1.00  0.00     0.225 C 
HETATM   20  N4  UNL     1      20.087   5.284  47.209  1.00  0.00    -0.226 NA
HETATM   21  C17 UNL     1      22.704   4.172  49.162  1.00  0.00     0.166 C 
HETATM   22  C18 UNL     1      21.886   4.277  50.442  1.00  0.00    -0.028 C 
HETATM   23  C19 UNL     1      21.717   3.561  51.507  1.00  0.00     0.014 C 
HETATM   24  H13 UNL     1      19.473   6.290  49.094  1.00  0.00     0.161 HD
HETATM   25  H17 UNL     1      22.921   3.919  45.987  1.00  0.00     0.187 HD
ENDROOT
BRANCH   8  26
HETATM   26  O1  UNL     1      26.420   7.769  50.475  1.00  0.00    -0.361 OA
HETATM   27  H8  UNL     1      26.503   8.515  49.809  1.00  0.00     0.217 HD
ENDBRANCH   8  26
TORSDOF 1
ENDMDL
MODEL 7
REMARK VINA RESULT:      -6.9      5.385      7.989
REMARK  1 active torsions:
REMARK  status: ('A' for Active; 'I' for Inactive)
REMARK    1  A    between atoms: C8_8  and  O1_9 
ROOT
HETATM    1  C1  UNL     1      21.242   3.979  45.389  1.00  0.00     0.048 C 
HETATM    2  C2  UNL     1      22.042   4.626  46.460  1.00  0.00    -0.062 C 
HETATM    3  C3  UNL     1      22.315   5.942  46.364  1.00  0.00     0.007 C 
HETATM    4  C4  UNL     1      23.308   6.650  47.212  1.00  0.00     0.010 C 
HETATM    5  C5  UNL     1      23.902   6.308  48.377  1.00  0.00    -0.030 C 
HETATM    6  C6  UNL     1      25.271   6.878  48.371  1.00  0.00     0.012 C 
HETATM    7  C7  UNL     1      26.449   6.291  48.637  1.00  0.00     0.037 C 
HETATM    8  C8  UNL     1      27.071   5.035  49.018  1.00  0.00     0.062 C 
HETATM    9  C9  UNL     1      26.768   3.755  49.328  1.00  0.00     0.015 C 
HETATM   10  C10 UNL     1      25.309   3.456  49.290  1.00  0.00     0.026 C 
HETATM   11  C11 UNL     1      24.446   2.426  49.493  1.00  0.00     0.028 C 
HETATM   12  C12 UNL     1      23.032   2.712  49.308  1.00  0.00     0.120 C 
HETATM   13  N1  UNL     1      22.371   2.834  50.673  1.00  0.00    -0.366 N 
HETATM   14  C13 UNL     1      21.393   3.895  51.013  1.00  0.00     0.123 C 
HETATM   15  C14 UNL     1      20.327   4.486  50.373  1.00  0.00     0.044 C 
HETATM   16  C15 UNL     1      20.754   5.777  49.709  1.00  0.00     0.174 C 
HETATM   17  N2  UNL     1      22.087   6.167  49.930  1.00  0.00    -0.310 N 
HETATM   18  N3  UNL     1      22.302   6.693  51.261  1.00  0.00    -0.295 N 
HETATM   19  C16 UNL     1      22.147   5.757  52.416  1.00  0.00     0.225 C 
HETATM   20  N4  UNL     1      21.723   4.447  52.347  1.00  0.00    -0.226 NA
HETATM   21  C17 UNL     1      23.153   5.459  49.374  1.00  0.00     0.166 C 
HETATM   22  C18 UNL     1      22.881   4.118  48.706  1.00  0.00    -0.028 C 
HETATM   23  C19 UNL     1      22.462   3.716  47.549  1.00  0.00     0.014 C 
HETATM   24  H13 UNL     1      22.323   2.431  51.627  1.00  0.00     0.161 HD
HETATM   25  H17 UNL     1      22.558   7.637  51.631  1.00  0.00     0.187 HD
ENDROOT
BRANCH   8  26
HETATM   26  O1  UNL     1      28.476   5.258  49.078  1.00  0.00    -0.361 OA
HETATM   27  H8  UNL     1      29.107   4.485  48.973  1.00  0.00     0.217 HD
ENDBRANCH   8  26
TORSDOF 1
ENDMDL
MODEL 8
REMARK VINA RESULT:      -6.8     14.153     17.119
REMARK  1 active torsions:
REMARK  status: ('A' for Active; 'I' for Inactive)
REMARK    1  A    between atoms: C8_8  and  O1_9 
ROOT
HETATM    1  C1  UNL     1      45.058   3.053  55.168  1.00  0.00     0.048 C 
HETATM    2  C2  UNL     1      44.298   4.329  55.159  1.00  0.00    -0.062 C 
HETATM    3  C3  UNL     1      43.067   4.358  55.708  1.00  0.00     0.007 C 
HETATM    4  C4  UNL     1      42.107   5.477  55.538  1.00  0.00     0.010 C 
HETATM    5  C5  UNL     1      42.276   6.752  55.122  1.00  0.00    -0.030 C 
HETATM    6  C6  UNL     1      41.048   7.158  54.396  1.00  0.00     0.012 C 
HETATM    7  C7  UNL     1      40.911   7.732  53.190  1.00  0.00     0.037 C 
HETATM    8  C8  UNL     1      41.647   8.235  52.044  1.00  0.00     0.062 C 
HETATM    9  C9  UNL     1      42.907   8.405  51.585  1.00  0.00     0.015 C 
HETATM   10  C10 UNL     1      43.959   7.940  52.532  1.00  0.00     0.026 C 
HETATM   11  C11 UNL     1      45.311   7.852  52.634  1.00  0.00     0.028 C 
HETATM   12  C12 UNL     1      45.838   7.278  53.862  1.00  0.00     0.120 C 
HETATM   13  N1  UNL     1      46.378   8.399  54.739  1.00  0.00    -0.366 N 
HETATM   14  C13 UNL     1      46.140   8.477  56.199  1.00  0.00     0.123 C 
HETATM   15  C14 UNL     1      46.137   7.578  57.241  1.00  0.00     0.044 C 
HETATM   16  C15 UNL     1      44.730   7.106  57.534  1.00  0.00     0.174 C 
HETATM   17  N2  UNL     1      43.711   7.713  56.778  1.00  0.00    -0.310 N 
HETATM   18  N3  UNL     1      43.428   9.066  57.208  1.00  0.00    -0.295 N 
HETATM   19  C16 UNL     1      44.493  10.097  57.018  1.00  0.00     0.225 C 
HETATM   20  N4  UNL     1      45.771   9.867  56.555  1.00  0.00    -0.226 NA
HETATM   21  C17 UNL     1      43.574   7.464  55.412  1.00  0.00     0.166 C 
HETATM   22  C18 UNL     1      44.675   6.703  54.685  1.00  0.00    -0.028 C 
HETATM   23  C19 UNL     1      45.007   5.463  54.525  1.00  0.00     0.014 C 
HETATM   24  H13 UNL     1      46.915   9.285  54.740  1.00  0.00     0.161 HD
HETATM   25  H17 UNL     1      42.597   9.524  57.648  1.00  0.00     0.187 HD
ENDROOT
BRANCH   8  26
HETATM   26  O1  UNL     1      40.691   8.704  51.098  1.00  0.00    -0.361 OA
HETATM   27  H8  UNL     1      40.501   9.688  51.028  1.00  0.00     0.217 HD
ENDBRANCH   8  26
TORSDOF 1
ENDMDL
MODEL 9
REMARK VINA RESULT:      -6.8      7.858     10.702
REMARK  1 active torsions:
REMARK  status: ('A' for Active; 'I' for Inactive)
REMARK    1  A    between atoms: C8_8  and  O1_9 
ROOT
HETATM    1  C1  UNL     1      22.299  -0.695  52.678  1.00  0.00     0.048 C 
HETATM    2  C2  UNL     1      21.731   0.618  52.280  1.00  0.00    -0.062 C 
HETATM    3  C3  UNL     1      20.900   1.253  53.129  1.00  0.00     0.007 C 
HETATM    4  C4  UNL     1      20.068   2.426  52.758  1.00  0.00     0.010 C 
HETATM    5  C5  UNL     1      20.133   3.280  51.712  1.00  0.00    -0.030 C 
HETATM    6  C6  UNL     1      18.748   3.689  51.376  1.00  0.00     0.012 C 
HETATM    7  C7  UNL     1      18.119   3.703  50.189  1.00  0.00     0.037 C 
HETATM    8  C8  UNL     1      18.282   3.415  48.776  1.00  0.00     0.062 C 
HETATM    9  C9  UNL     1      19.198   2.978  47.882  1.00  0.00     0.015 C 
HETATM   10  C10 UNL     1      20.525   2.667  48.485  1.00  0.00     0.026 C 
HETATM   11  C11 UNL     1      21.759   2.224  48.128  1.00  0.00     0.028 C 
HETATM   12  C12 UNL     1      22.742   2.101  49.192  1.00  0.00     0.120 C 
HETATM   13  N1  UNL     1      23.718   3.265  49.099  1.00  0.00    -0.366 N 
HETATM   14  C13 UNL     1      24.188   4.030  50.278  1.00  0.00     0.123 C 
HETATM   15  C14 UNL     1      24.591   3.712  51.556  1.00  0.00     0.044 C 
HETATM   16  C15 UNL     1      23.443   3.866  52.529  1.00  0.00     0.174 C 
HETATM   17  N2  UNL     1      22.246   4.369  51.990  1.00  0.00    -0.310 N 
HETATM   18  N3  UNL     1      22.308   5.790  51.722  1.00  0.00    -0.295 N 
HETATM   19  C16 UNL     1      23.248   6.260  50.660  1.00  0.00     0.225 C 
HETATM   20  N4  UNL     1      24.144   5.477  49.965  1.00  0.00    -0.226 NA
HETATM   21  C17 UNL     1      21.474   3.614  51.106  1.00  0.00     0.166 C 
HETATM   22  C18 UNL     1      22.046   2.319  50.544  1.00  0.00    -0.028 C 
HETATM   23  C19 UNL     1      22.161   1.095  50.946  1.00  0.00     0.014 C 
HETATM   24  H13 UNL     1      24.268   3.855  48.448  1.00  0.00     0.161 HD
HETATM   25  H17 UNL     1      21.816   6.622  52.122  1.00  0.00     0.187 HD
ENDROOT
BRANCH   8  26
HETATM   26  O1  UNL     1      17.041   3.700  48.138  1.00  0.00    -0.361 OA
HETATM   27  H8  UNL     1      16.393   2.955  47.955  1.00  0.00     0.217 HD
ENDBRANCH   8  26
TORSDOF 1
ENDMDL
