MODEL 1
REMARK VINA RESULT:      -9.5      0.000      0.000
REMARK  7 active torsions:
REMARK  status: ('A' for Active; 'I' for Inactive)
REMARK    1  A    between atoms: C4_4  and  N1_5 
REMARK    2  A    between atoms: N1_5  and  C5_6 
REMARK    3  A    between atoms: C9_12  and  C10_13 
REMARK    4  A    between atoms: C10_13  and  P1_14 
REMARK    5  A    between atoms: C11_17  and  C12_19 
REMARK    6  A    between atoms: C13_20  and  C14_21 
REMARK    7  A    between atoms: C14_21  and  N6_22 
ROOT
HETATM    1  C5  UNL     1      25.392   2.687  51.851  1.00  0.00     0.138 A 
HETATM    2  N2  UNL     1      24.602   2.370  52.934  1.00  0.00    -0.224 NA
HETATM    3  C6  UNL     1      23.316   2.148  52.762  1.00  0.00     0.235 A 
HETATM    4  N3  UNL     1      22.741   2.233  51.498  1.00  0.00    -0.246 NA
HETATM    5  C7  UNL     1      23.543   2.548  50.454  1.00  0.00     0.042 A 
HETATM    6  C8  UNL     1      23.109   2.698  49.022  1.00  0.00     0.071 C 
HETATM    7  C9  UNL     1      24.892   2.792  50.546  1.00  0.00     0.018 A 
ENDROOT
BRANCH   7   8
HETATM    8  C10 UNL     1      25.989   3.151  49.517  1.00  0.00     0.111 C 
BRANCH   8   9
HETATM    9  P1  UNL     1      24.960   5.583  50.491  1.00  0.00     0.082 P 
HETATM   10  N4  UNL     1      24.368   6.899  51.046  1.00  0.00    -0.159 N 
HETATM   11  N5  UNL     1      25.203   5.071  50.265  1.00  0.00    -0.230 NA
HETATM   12  C11 UNL     1      26.203   6.273  49.531  1.00  0.00     0.262 A 
HETATM   13  H12 UNL     1      25.945   5.421  49.695  1.00  0.00     0.202 HD
HETATM   14  O1  UNL     1      26.125   7.648  49.709  1.00  0.00    -0.189 OA
BRANCH  12  15
HETATM   15  C12 UNL     1      27.417   6.621  48.563  1.00  0.00    -0.040 C 
HETATM   16  C13 UNL     1      28.276   6.887  47.883  1.00  0.00    -0.082 C 
BRANCH  16  17
HETATM   17  C14 UNL     1      29.338   7.236  47.016  1.00  0.00     0.211 C 
BRANCH  17  18
HETATM   18  N6  UNL     1      30.566   6.886  47.675  1.00  0.00    -0.399 N 
HETATM   19  C15 UNL     1      31.033   7.657  48.717  1.00  0.00     0.144 C 
HETATM   20  C16 UNL     1      31.747   6.889  49.814  1.00  0.00     0.187 C 
HETATM   21  O2  UNL     1      31.582   5.509  49.679  1.00  0.00    -0.388 OA
HETATM   22  C17 UNL     1      32.099   5.136  48.442  1.00  0.00     0.187 C 
HETATM   23  C18 UNL     1      31.151   5.645  47.349  1.00  0.00     0.144 C 
ENDBRANCH  17  18
ENDBRANCH  16  17
ENDBRANCH  12  15
ENDBRANCH   8   9
ENDBRANCH   7   8
BRANCH   1  24
HETATM   24  N1  UNL     1      26.753   2.880  52.293  1.00  0.00    -0.340 N 
HETATM   25  H5  UNL     1      27.195   3.801  52.339  1.00  0.00     0.167 HD
BRANCH  24  26
HETATM   26  C4  UNL     1      27.361   1.647  52.641  1.00  0.00     0.034 A 
HETATM   27  C3  UNL     1      26.843   0.411  52.351  1.00  0.00     0.039 A 
HETATM   28  C2  UNL     1      27.446  -0.776  52.686  1.00  0.00    -0.021 A 
HETATM   29  C1  UNL     1      26.840  -2.081  52.352  1.00  0.00     0.051 C 
HETATM   30  C21 UNL     1      28.674  -0.771  53.374  1.00  0.00     0.122 A 
HETATM   31  C20 UNL     1      29.245   0.452  53.694  1.00  0.00     0.045 A 
HETATM   32  F1  UNL     1      29.301  -1.920  53.722  1.00  0.00    -0.206 F 
HETATM   33  C19 UNL     1      28.576   1.572  53.320  1.00  0.00     0.032 A 
ENDBRANCH  24  26
ENDBRANCH   1  24
TORSDOF 7
ENDMDL
MODEL 2
REMARK VINA RESULT:      -9.3      0.556      1.221
REMARK  7 active torsions:
REMARK  status: ('A' for Active; 'I' for Inactive)
REMARK    1  A    between atoms: C4_4  and  N1_5 
REMARK    2  A    between atoms: N1_5  and  C5_6 
REMARK    3  A    between atoms: C9_12  and  C10_13 
REMARK    4  A    between atoms: C10_13  and  P1_14 
REMARK    5  A    between atoms: C11_17  and  C12_19 
REMARK    6  A    between atoms: C13_20  and  C14_21 
REMARK    7  A    between atoms: C14_21  and  N6_22 
ROOT
HETATM    1  C5  UNL     1      24.869   2.742  51.834  1.00  0.00     0.138 A 
HETATM    2  N2  UNL     1      23.872   2.461  52.742  1.00  0.00    -0.224 NA
HETATM    3  C6  UNL     1      22.627   2.342  52.331  1.00  0.00     0.235 A 
HETATM    4  N3  UNL     1      22.303   2.498  50.987  1.00  0.00    -0.246 NA
HETATM    5  C7  UNL     1      23.304   2.774  50.119  1.00  0.00     0.042 A 
HETATM    6  C8  UNL     1      23.153   2.990  48.638  1.00  0.00     0.071 C 
HETATM    7  C9  UNL     1      24.626   2.914  50.464  1.00  0.00     0.018 A 
ENDROOT
BRANCH   7   8
HETATM    8  C10 UNL     1      25.917   3.210  49.665  1.00  0.00     0.111 C 
BRANCH   8   9
HETATM    9  P1  UNL     1      24.914   5.690  50.543  1.00  0.00     0.082 P 
HETATM   10  N4  UNL     1      24.336   7.033  51.046  1.00  0.00    -0.159 N 
HETATM   11  N5  UNL     1      25.151   5.166  50.338  1.00  0.00    -0.230 NA
HETATM   12  C11 UNL     1      26.163   6.329  49.558  1.00  0.00     0.262 A 
HETATM   13  H12 UNL     1      25.897   5.487  49.755  1.00  0.00     0.202 HD
HETATM   14  O1  UNL     1      26.100   7.710  49.681  1.00  0.00    -0.189 OA
BRANCH  12  15
HETATM   15  C12 UNL     1      27.381   6.625  48.576  1.00  0.00    -0.040 C 
HETATM   16  C13 UNL     1      28.239   6.856  47.883  1.00  0.00    -0.082 C 
BRANCH  16  17
HETATM   17  C14 UNL     1      29.300   7.155  46.996  1.00  0.00     0.211 C 
BRANCH  17  18
HETATM   18  N6  UNL     1      30.528   6.831  47.666  1.00  0.00    -0.399 N 
HETATM   19  C15 UNL     1      30.997   7.642  48.677  1.00  0.00     0.144 C 
HETATM   20  C16 UNL     1      31.711   6.918  49.802  1.00  0.00     0.187 C 
HETATM   21  O2  UNL     1      31.546   5.533  49.721  1.00  0.00    -0.388 OA
HETATM   22  C17 UNL     1      32.061   5.112  48.499  1.00  0.00     0.187 C 
HETATM   23  C18 UNL     1      31.113   5.578  47.388  1.00  0.00     0.144 C 
ENDBRANCH  17  18
ENDBRANCH  16  17
ENDBRANCH  12  15
ENDBRANCH   8   9
ENDBRANCH   7   8
BRANCH   1  24
HETATM   24  N1  UNL     1      26.134   2.820  52.523  1.00  0.00    -0.340 N 
HETATM   25  H5  UNL     1      26.529   3.702  52.858  1.00  0.00     0.167 HD
BRANCH  24  26
HETATM   26  C4  UNL     1      26.727   1.540  52.661  1.00  0.00     0.034 A 
HETATM   27  C3  UNL     1      28.007   1.314  53.099  1.00  0.00     0.039 A 
HETATM   28  C2  UNL     1      28.567   0.068  53.235  1.00  0.00    -0.021 A 
HETATM   29  C1  UNL     1      29.955  -0.116  53.708  1.00  0.00     0.051 C 
HETATM   30  C21 UNL     1      27.817  -1.079  52.914  1.00  0.00     0.122 A 
HETATM   31  C20 UNL     1      26.515  -0.910  52.466  1.00  0.00     0.045 A 
HETATM   32  F1  UNL     1      28.333  -2.326  53.036  1.00  0.00    -0.206 F 
HETATM   33  C19 UNL     1      26.047   0.359  52.364  1.00  0.00     0.032 A 
ENDBRANCH  24  26
ENDBRANCH   1  24
TORSDOF 7
ENDMDL
MODEL 3
REMARK VINA RESULT:      -8.9      4.416      6.826
REMARK  7 active torsions:
REMARK  status: ('A' for Active; 'I' for Inactive)
REMARK    1  A    between atoms: C4_4  and  N1_5 
REMARK    2  A    between atoms: N1_5  and  C5_6 
REMARK    3  A    between atoms: C9_12  and  C10_13 
REMARK    4  A    between atoms: C10_13  and  P1_14 
REMARK    5  A    between atoms: C11_17  and  C12_19 
REMARK    6  A    between atoms: C13_20  and  C14_21 
REMARK    7  A    between atoms: C14_21  and  N6_22 
ROOT
HETATM    1  C5  UNL     1      22.082   2.733  50.062  1.00  0.00     0.138 A 
HETATM    2  N2  UNL     1      21.564   2.735  48.786  1.00  0.00    -0.224 NA
HETATM    3  C6  UNL     1      21.115   3.857  48.264  1.00  0.00     0.235 A 
HETATM    4  N3  UNL     1      21.154   5.045  48.988  1.00  0.00    -0.246 NA
HETATM    5  C7  UNL     1      21.667   5.011  50.239  1.00  0.00     0.042 A 
HETATM    6  C8  UNL     1      21.782   6.180  51.177  1.00  0.00     0.071 C 
HETATM    7  C9  UNL     1      22.157   3.885  50.857  1.00  0.00     0.018 A 
ENDROOT
BRANCH   7   8
HETATM    8  C10 UNL     1      22.787   3.611  52.242  1.00  0.00     0.111 C 
BRANCH   8   9
HETATM    9  P1  UNL     1      24.902   4.247  50.497  1.00  0.00     0.082 P 
HETATM   10  N4  UNL     1      26.045   4.630  49.528  1.00  0.00    -0.159 N 
HETATM   11  N5  UNL     1      24.457   4.085  50.882  1.00  0.00    -0.230 NA
HETATM   12  C11 UNL     1      25.541   2.748  51.030  1.00  0.00     0.262 A 
HETATM   13  H12 UNL     1      24.788   3.208  51.229  1.00  0.00     0.202 HD
HETATM   14  O1  UNL     1      26.762   2.585  50.389  1.00  0.00    -0.189 OA
BRANCH  12  15
HETATM   15  C12 UNL     1      25.873   1.338  51.691  1.00  0.00    -0.040 C 
HETATM   16  C13 UNL     1      26.115   0.333  52.139  1.00  0.00    -0.082 C 
BRANCH  16  17
HETATM   17  C14 UNL     1      26.402  -0.939  52.687  1.00  0.00     0.211 C 
BRANCH  17  18
HETATM   18  N6  UNL     1      27.569  -0.800  53.513  1.00  0.00    -0.399 N 
HETATM   19  C15 UNL     1      28.736  -1.450  53.173  1.00  0.00     0.144 C 
HETATM   20  C16 UNL     1      30.010  -0.698  53.507  1.00  0.00     0.187 C 
HETATM   21  O2  UNL     1      29.755   0.625  53.877  1.00  0.00    -0.388 OA
HETATM   22  C17 UNL     1      28.925   0.603  54.993  1.00  0.00     0.187 C 
HETATM   23  C18 UNL     1      27.527   0.158  54.548  1.00  0.00     0.144 C 
ENDBRANCH  17  18
ENDBRANCH  16  17
ENDBRANCH  12  15
ENDBRANCH   8   9
ENDBRANCH   7   8
BRANCH   1  24
HETATM   24  N1  UNL     1      22.506   1.396  50.403  1.00  0.00    -0.340 N 
HETATM   25  H5  UNL     1      23.374   0.984  50.052  1.00  0.00     0.167 HD
BRANCH  24  26
HETATM   26  C4  UNL     1      21.576   0.765  51.266  1.00  0.00     0.034 A 
HETATM   27  C3  UNL     1      21.904   0.117  52.430  1.00  0.00     0.039 A 
HETATM   28  C2  UNL     1      20.992  -0.485  53.261  1.00  0.00    -0.021 A 
HETATM   29  C1  UNL     1      21.403  -1.173  54.502  1.00  0.00     0.051 C 
HETATM   30  C21 UNL     1      19.623  -0.462  52.937  1.00  0.00     0.122 A 
HETATM   31  C20 UNL     1      19.233   0.179  51.771  1.00  0.00     0.045 A 
HETATM   32  F1  UNL     1      18.692  -1.043  53.731  1.00  0.00    -0.206 F 
HETATM   33  C19 UNL     1      20.205   0.747  51.012  1.00  0.00     0.032 A 
ENDBRANCH  24  26
ENDBRANCH   1  24
TORSDOF 7
ENDMDL
MODEL 4
REMARK VINA RESULT:      -8.8      3.736      6.905
REMARK  7 active torsions:
REMARK  status: ('A' for Active; 'I' for Inactive)
REMARK    1  A    between atoms: C4_4  and  N1_5 
REMARK    2  A    between atoms: N1_5  and  C5_6 
REMARK    3  A    between atoms: C9_12  and  C10_13 
REMARK    4  A    between atoms: C10_13  and  P1_14 
REMARK    5  A    between atoms: C11_17  and  C12_19 
REMARK    6  A    between atoms: C13_20  and  C14_21 
REMARK    7  A    between atoms: C14_21  and  N6_22 
ROOT
HETATM    1  C5  UNL     1      22.453   4.329  50.488  1.00  0.00     0.138 A 
HETATM    2  N2  UNL     1      21.875   5.562  50.692  1.00  0.00    -0.224 NA
HETATM    3  C6  UNL     1      20.752   5.868  50.076  1.00  0.00     0.235 A 
HETATM    4  N3  UNL     1      20.140   4.960  49.218  1.00  0.00    -0.246 NA
HETATM    5  C7  UNL     1      20.733   3.757  49.038  1.00  0.00     0.042 A 
HETATM    6  C8  UNL     1      20.235   2.654  48.145  1.00  0.00     0.071 C 
HETATM    7  C9  UNL     1      21.901   3.358  49.641  1.00  0.00     0.018 A 
ENDROOT
BRANCH   7   8
HETATM    8  C10 UNL     1      22.742   2.061  49.597  1.00  0.00     0.111 C 
BRANCH   8   9
HETATM    9  P1  UNL     1      20.998   1.829  51.795  1.00  0.00     0.082 P 
HETATM   10  N4  UNL     1      20.013   1.721  52.982  1.00  0.00    -0.159 N 
HETATM   11  N5  UNL     1      21.396   1.865  51.334  1.00  0.00    -0.230 NA
HETATM   12  C11 UNL     1      22.326   1.021  52.520  1.00  0.00     0.262 A 
HETATM   13  H12 UNL     1      22.197   1.397  51.707  1.00  0.00     0.202 HD
HETATM   14  O1  UNL     1      21.911   0.631  53.786  1.00  0.00    -0.189 OA
BRANCH  12  15
HETATM   15  C12 UNL     1      23.703   0.334  52.927  1.00  0.00    -0.040 C 
HETATM   16  C13 UNL     1      24.672  -0.152  53.235  1.00  0.00    -0.082 C 
BRANCH  16  17
HETATM   17  C14 UNL     1      25.895  -0.740  53.636  1.00  0.00     0.211 C 
BRANCH  17  18
HETATM   18  N6  UNL     1      26.817   0.327  53.909  1.00  0.00    -0.399 N 
HETATM   19  C15 UNL     1      27.851   0.133  54.800  1.00  0.00     0.144 C 
HETATM   20  C16 UNL     1      29.138   0.859  54.458  1.00  0.00     0.187 C 
HETATM   21  O2  UNL     1      29.109   1.394  53.168  1.00  0.00    -0.388 OA
HETATM   22  C17 UNL     1      28.044   2.286  53.100  1.00  0.00     0.187 C 
HETATM   23  C18 UNL     1      26.739   1.482  53.103  1.00  0.00     0.144 C 
ENDBRANCH  17  18
ENDBRANCH  16  17
ENDBRANCH  12  15
ENDBRANCH   8   9
ENDBRANCH   7   8
BRANCH   1  24
HETATM   24  N1  UNL     1      23.663   4.234  51.269  1.00  0.00    -0.340 N 
HETATM   25  H5  UNL     1      23.661   4.041  52.273  1.00  0.00     0.167 HD
BRANCH  24  26
HETATM   26  C4  UNL     1      24.812   4.442  50.466  1.00  0.00     0.034 A 
HETATM   27  C3  UNL     1      25.179   5.647  49.922  1.00  0.00     0.039 A 
HETATM   28  C2  UNL     1      26.298   5.837  49.151  1.00  0.00    -0.021 A 
HETATM   29  C1  UNL     1      26.642   7.159  48.587  1.00  0.00     0.051 C 
HETATM   30  C21 UNL     1      27.153   4.754  48.874  1.00  0.00     0.122 A 
HETATM   31  C20 UNL     1      26.832   3.511  49.399  1.00  0.00     0.045 A 
HETATM   32  F1  UNL     1      28.269   4.900  48.119  1.00  0.00    -0.206 F 
HETATM   33  C19 UNL     1      25.705   3.419  50.149  1.00  0.00     0.032 A 
ENDBRANCH  24  26
ENDBRANCH   1  24
TORSDOF 7
ENDMDL
MODEL 5
REMARK VINA RESULT:      -8.6      1.449      1.928
REMARK  7 active torsions:
REMARK  status: ('A' for Active; 'I' for Inactive)
REMARK    1  A    between atoms: C4_4  and  N1_5 
REMARK    2  A    between atoms: N1_5  and  C5_6 
REMARK    3  A    between atoms: C9_12  and  C10_13 
REMARK    4  A    between atoms: C10_13  and  P1_14 
REMARK    5  A    between atoms: C11_17  and  C12_19 
REMARK    6  A    between atoms: C13_20  and  C14_21 
REMARK    7  A    between atoms: C14_21  and  N6_22 
ROOT
HETATM    1  C5  UNL     1      23.964   3.388  51.530  1.00  0.00     0.138 A 
HETATM    2  N2  UNL     1      22.856   3.266  52.339  1.00  0.00    -0.224 NA
HETATM    3  C6  UNL     1      21.651   3.327  51.813  1.00  0.00     0.235 A 
HETATM    4  N3  UNL     1      21.480   3.517  50.445  1.00  0.00    -0.246 NA
HETATM    5  C7  UNL     1      22.588   3.635  49.676  1.00  0.00     0.042 A 
HETATM    6  C8  UNL     1      22.608   3.858  48.189  1.00  0.00     0.071 C 
HETATM    7  C9  UNL     1      23.878   3.582  50.144  1.00  0.00     0.018 A 
ENDROOT
BRANCH   7   8
HETATM    8  C10 UNL     1      25.267   3.679  49.471  1.00  0.00     0.111 C 
BRANCH   8   9
HETATM    9  P1  UNL     1      24.599   6.273  50.338  1.00  0.00     0.082 P 
HETATM   10  N4  UNL     1      24.200   7.683  50.832  1.00  0.00    -0.159 N 
HETATM   11  N5  UNL     1      24.767   5.721  50.137  1.00  0.00    -0.230 NA
HETATM   12  C11 UNL     1      26.015   6.718  49.480  1.00  0.00     0.262 A 
HETATM   13  H12 UNL     1      25.602   5.927  49.629  1.00  0.00     0.202 HD
HETATM   14  O1  UNL     1      26.162   8.090  49.641  1.00  0.00    -0.189 OA
BRANCH  12  15
HETATM   15  C12 UNL     1      27.346   6.831  48.613  1.00  0.00    -0.040 C 
HETATM   16  C13 UNL     1      28.290   6.931  48.006  1.00  0.00    -0.082 C 
BRANCH  16  17
HETATM   17  C14 UNL     1      29.463   7.074  47.229  1.00  0.00     0.211 C 
BRANCH  17  18
HETATM   18  N6  UNL     1      30.535   6.440  47.945  1.00  0.00    -0.399 N 
HETATM   19  C15 UNL     1      30.782   5.096  47.769  1.00  0.00     0.144 C 
HETATM   20  C16 UNL     1      32.244   4.698  47.836  1.00  0.00     0.187 C 
HETATM   21  O2  UNL     1      33.090   5.808  47.820  1.00  0.00    -0.388 OA
HETATM   22  C17 UNL     1      32.776   6.600  48.921  1.00  0.00     0.187 C 
HETATM   23  C18 UNL     1      31.421   7.270  48.664  1.00  0.00     0.144 C 
ENDBRANCH  17  18
ENDBRANCH  16  17
ENDBRANCH  12  15
ENDBRANCH   8   9
ENDBRANCH   7   8
BRANCH   1  24
HETATM   24  N1  UNL     1      25.157   3.286  52.335  1.00  0.00    -0.340 N 
HETATM   25  H5  UNL     1      25.659   4.104  52.688  1.00  0.00     0.167 HD
BRANCH  24  26
HETATM   26  C4  UNL     1      25.517   1.933  52.554  1.00  0.00     0.034 A 
HETATM   27  C3  UNL     1      25.027   1.147  53.566  1.00  0.00     0.039 A 
HETATM   28  C2  UNL     1      25.377  -0.165  53.764  1.00  0.00    -0.021 A 
HETATM   29  C1  UNL     1      24.820  -0.963  54.875  1.00  0.00     0.051 C 
HETATM   30  C21 UNL     1      26.297  -0.784  52.897  1.00  0.00     0.122 A 
HETATM   31  C20 UNL     1      26.826  -0.038  51.854  1.00  0.00     0.045 A 
HETATM   32  F1  UNL     1      26.668  -2.078  53.057  1.00  0.00    -0.206 F 
HETATM   33  C19 UNL     1      26.419   1.251  51.738  1.00  0.00     0.032 A 
ENDBRANCH  24  26
ENDBRANCH   1  24
TORSDOF 7
ENDMDL
MODEL 6
REMARK VINA RESULT:      -8.3      3.640      7.289
REMARK  7 active torsions:
REMARK  status: ('A' for Active; 'I' for Inactive)
REMARK    1  A    between atoms: C4_4  and  N1_5 
REMARK    2  A    between atoms: N1_5  and  C5_6 
REMARK    3  A    between atoms: C9_12  and  C10_13 
REMARK    4  A    between atoms: C10_13  and  P1_14 
REMARK    5  A    between atoms: C11_17  and  C12_19 
REMARK    6  A    between atoms: C13_20  and  C14_21 
REMARK    7  A    between atoms: C14_21  and  N6_22 
ROOT
HETATM    1  C5  UNL     1      23.606   5.518  49.346  1.00  0.00     0.138 A 
HETATM    2  N2  UNL     1      22.931   6.690  49.086  1.00  0.00    -0.224 NA
HETATM    3  C6  UNL     1      21.945   6.696  48.214  1.00  0.00     0.235 A 
HETATM    4  N3  UNL     1      21.576   5.533  47.547  1.00  0.00    -0.246 NA
HETATM    5  C7  UNL     1      22.259   4.398  47.823  1.00  0.00     0.042 A 
HETATM    6  C8  UNL     1      22.019   3.050  47.199  1.00  0.00     0.071 C 
HETATM    7  C9  UNL     1      23.297   4.304  48.718  1.00  0.00     0.018 A 
ENDROOT
BRANCH   7   8
HETATM    8  C10 UNL     1      24.199   3.141  49.195  1.00  0.00     0.111 C 
BRANCH   8   9
HETATM    9  P1  UNL     1      22.023   3.268  50.976  1.00  0.00     0.082 P 
HETATM   10  N4  UNL     1      20.811   3.364  51.931  1.00  0.00    -0.159 N 
HETATM   11  N5  UNL     1      22.508   3.222  50.608  1.00  0.00    -0.230 NA
HETATM   12  C11 UNL     1      22.947   2.145  51.885  1.00  0.00     0.262 A 
HETATM   13  H12 UNL     1      23.083   2.566  51.095  1.00  0.00     0.202 HD
HETATM   14  O1  UNL     1      22.195   1.829  53.009  1.00  0.00    -0.189 OA
BRANCH  12  15
HETATM   15  C12 UNL     1      24.014   1.138  52.503  1.00  0.00    -0.040 C 
HETATM   16  C13 UNL     1      24.755   0.420  52.955  1.00  0.00    -0.082 C 
BRANCH  16  17
HETATM   17  C14 UNL     1      25.686  -0.467  53.545  1.00  0.00     0.211 C 
BRANCH  17  18
HETATM   18  N6  UNL     1      26.976   0.163  53.491  1.00  0.00    -0.399 N 
HETATM   19  C15 UNL     1      27.224   1.147  52.558  1.00  0.00     0.144 C 
HETATM   20  C16 UNL     1      28.150   2.254  53.023  1.00  0.00     0.187 C 
HETATM   21  O2  UNL     1      28.385   2.196  54.399  1.00  0.00    -0.388 OA
HETATM   22  C17 UNL     1      28.962   0.961  54.681  1.00  0.00     0.187 C 
HETATM   23  C18 UNL     1      27.887  -0.121  54.530  1.00  0.00     0.144 C 
ENDBRANCH  17  18
ENDBRANCH  16  17
ENDBRANCH  12  15
ENDBRANCH   8   9
ENDBRANCH   7   8
BRANCH   1  24
HETATM   24  N1  UNL     1      24.632   5.766  50.331  1.00  0.00    -0.340 N 
HETATM   25  H5  UNL     1      24.532   5.502  51.313  1.00  0.00     0.167 HD
BRANCH  24  26
HETATM   26  C4  UNL     1      25.757   6.407  49.753  1.00  0.00     0.034 A 
HETATM   27  C3  UNL     1      26.156   7.689  50.034  1.00  0.00     0.039 A 
HETATM   28  C2  UNL     1      27.252   8.297  49.474  1.00  0.00    -0.021 A 
HETATM   29  C1  UNL     1      27.633   9.684  49.811  1.00  0.00     0.051 C 
HETATM   30  C21 UNL     1      28.045   7.597  48.545  1.00  0.00     0.122 A 
HETATM   31  C20 UNL     1      27.688   6.296  48.223  1.00  0.00     0.045 A 
HETATM   32  F1  UNL     1      29.135   8.160  47.970  1.00  0.00    -0.206 F 
HETATM   33  C19 UNL     1      26.589   5.779  48.828  1.00  0.00     0.032 A 
ENDBRANCH  24  26
ENDBRANCH   1  24
TORSDOF 7
ENDMDL
MODEL 7
REMARK VINA RESULT:      -8.3      2.488      3.316
REMARK  7 active torsions:
REMARK  status: ('A' for Active; 'I' for Inactive)
REMARK    1  A    between atoms: C4_4  and  N1_5 
REMARK    2  A    between atoms: N1_5  and  C5_6 
REMARK    3  A    between atoms: C9_12  and  C10_13 
REMARK    4  A    between atoms: C10_13  and  P1_14 
REMARK    5  A    between atoms: C11_17  and  C12_19 
REMARK    6  A    between atoms: C13_20  and  C14_21 
REMARK    7  A    between atoms: C14_21  and  N6_22 
ROOT
HETATM    1  C5  UNL     1      24.077   1.763  51.714  1.00  0.00     0.138 A 
HETATM    2  N2  UNL     1      23.910   1.312  53.004  1.00  0.00    -0.224 NA
HETATM    3  C6  UNL     1      22.768   0.764  53.363  1.00  0.00     0.235 A 
HETATM    4  N3  UNL     1      21.723   0.636  52.454  1.00  0.00    -0.246 NA
HETATM    5  C7  UNL     1      21.916   1.091  51.194  1.00  0.00     0.042 A 
HETATM    6  C8  UNL     1      20.908   1.054  50.079  1.00  0.00     0.071 C 
HETATM    7  C9  UNL     1      23.074   1.672  50.738  1.00  0.00     0.018 A 
ENDROOT
BRANCH   7   8
HETATM    8  C10 UNL     1      23.521   2.244  49.373  1.00  0.00     0.111 C 
BRANCH   8   9
HETATM    9  P1  UNL     1      22.505   4.403  50.866  1.00  0.00     0.082 P 
HETATM   10  N4  UNL     1      21.917   5.566  51.698  1.00  0.00    -0.159 N 
HETATM   11  N5  UNL     1      22.747   3.952  50.533  1.00  0.00    -0.230 NA
HETATM   12  C11 UNL     1      23.860   5.236  50.225  1.00  0.00     0.262 A 
HETATM   13  H12 UNL     1      23.554   4.389  50.138  1.00  0.00     0.202 HD
HETATM   14  O1  UNL     1      23.822   6.521  50.751  1.00  0.00    -0.189 OA
BRANCH  12  15
HETATM   15  C12 UNL     1      25.173   5.744  49.483  1.00  0.00    -0.040 C 
HETATM   16  C13 UNL     1      26.113   6.085  48.963  1.00  0.00    -0.082 C 
BRANCH  16  17
HETATM   17  C14 UNL     1      27.305   6.517  48.334  1.00  0.00     0.211 C 
BRANCH  17  18
HETATM   18  N6  UNL     1      27.296   7.953  48.333  1.00  0.00    -0.399 N 
HETATM   19  C15 UNL     1      26.265   8.636  47.725  1.00  0.00     0.144 C 
HETATM   20  C16 UNL     1      25.868   9.934  48.401  1.00  0.00     0.187 C 
HETATM   21  O2  UNL     1      26.463  10.072  49.657  1.00  0.00    -0.388 OA
HETATM   22  C17 UNL     1      27.843  10.046  49.482  1.00  0.00     0.187 C 
HETATM   23  C18 UNL     1      28.258   8.613  49.127  1.00  0.00     0.144 C 
ENDBRANCH  17  18
ENDBRANCH  16  17
ENDBRANCH  12  15
ENDBRANCH   8   9
ENDBRANCH   7   8
BRANCH   1  24
HETATM   24  N1  UNL     1      25.403   2.315  51.568  1.00  0.00    -0.340 N 
HETATM   25  H5  UNL     1      25.585   3.196  51.082  1.00  0.00     0.167 HD
BRANCH  24  26
HETATM   26  C4  UNL     1      26.376   1.485  52.178  1.00  0.00     0.034 A 
HETATM   27  C3  UNL     1      27.377   1.930  53.004  1.00  0.00     0.039 A 
HETATM   28  C2  UNL     1      28.310   1.115  53.594  1.00  0.00    -0.021 A 
HETATM   29  C1  UNL     1      29.370   1.650  54.473  1.00  0.00     0.051 C 
HETATM   30  C21 UNL     1      28.277  -0.273  53.363  1.00  0.00     0.122 A 
HETATM   31  C20 UNL     1      27.286  -0.780  52.536  1.00  0.00     0.045 A 
HETATM   32  F1  UNL     1      29.179  -1.112  53.928  1.00  0.00    -0.206 F 
HETATM   33  C19 UNL     1      26.407   0.103  51.998  1.00  0.00     0.032 A 
ENDBRANCH  24  26
ENDBRANCH   1  24
TORSDOF 7
ENDMDL
MODEL 8
REMARK VINA RESULT:      -8.3      3.947      7.160
REMARK  7 active torsions:
REMARK  status: ('A' for Active; 'I' for Inactive)
REMARK    1  A    between atoms: C4_4  and  N1_5 
REMARK    2  A    between atoms: N1_5  and  C5_6 
REMARK    3  A    between atoms: C9_12  and  C10_13 
REMARK    4  A    between atoms: C10_13  and  P1_14 
REMARK    5  A    between atoms: C11_17  and  C12_19 
REMARK    6  A    between atoms: C13_20  and  C14_21 
REMARK    7  A    between atoms: C14_21  and  N6_22 
ROOT
HETATM    1  C5  UNL     1      22.865   3.197  49.776  1.00  0.00     0.138 A 
HETATM    2  N2  UNL     1      22.620   3.120  48.423  1.00  0.00    -0.224 NA
HETATM    3  C6  UNL     1      21.436   3.449  47.953  1.00  0.00     0.235 A 
HETATM    4  N3  UNL     1      20.423   3.873  48.808  1.00  0.00    -0.246 NA
HETATM    5  C7  UNL     1      20.694   3.937  50.132  1.00  0.00     0.042 A 
HETATM    6  C8  UNL     1      19.732   4.356  51.210  1.00  0.00     0.071 C 
HETATM    7  C9  UNL     1      21.901   3.613  50.704  1.00  0.00     0.018 A 
ENDROOT
BRANCH   7   8
HETATM    8  C10 UNL     1      22.436   3.618  52.155  1.00  0.00     0.111 C 
BRANCH   8   9
HETATM    9  P1  UNL     1      21.156   1.141  51.766  1.00  0.00     0.082 P 
HETATM   10  N4  UNL     1      20.424  -0.201  51.534  1.00  0.00    -0.159 N 
HETATM   11  N5  UNL     1      21.455   1.664  51.864  1.00  0.00    -0.230 NA
HETATM   12  C11 UNL     1      22.510   0.523  52.617  1.00  0.00     0.262 A 
HETATM   13  H12 UNL     1      22.266   1.355  52.359  1.00  0.00     0.202 HD
HETATM   14  O1  UNL     1      22.346  -0.854  52.681  1.00  0.00    -0.189 OA
BRANCH  12  15
HETATM   15  C12 UNL     1      23.853   0.247  53.427  1.00  0.00    -0.040 C 
HETATM   16  C13 UNL     1      24.792   0.046  54.016  1.00  0.00    -0.082 C 
BRANCH  16  17
HETATM   17  C14 UNL     1      25.966  -0.185  54.772  1.00  0.00     0.211 C 
BRANCH  17  18
HETATM   18  N6  UNL     1      27.063   0.406  54.058  1.00  0.00    -0.399 N 
HETATM   19  C15 UNL     1      26.964   1.699  53.591  1.00  0.00     0.144 C 
HETATM   20  C16 UNL     1      28.257   2.491  53.618  1.00  0.00     0.187 C 
HETATM   21  O2  UNL     1      29.257   1.836  54.342  1.00  0.00    -0.388 OA
HETATM   22  C17 UNL     1      29.483   0.603  53.738  1.00  0.00     0.187 C 
HETATM   23  C18 UNL     1      28.281  -0.304  54.027  1.00  0.00     0.144 C 
ENDBRANCH  17  18
ENDBRANCH  16  17
ENDBRANCH  12  15
ENDBRANCH   8   9
ENDBRANCH   7   8
BRANCH   1  24
HETATM   24  N1  UNL     1      24.225   2.789  50.039  1.00  0.00    -0.340 N 
HETATM   25  H5  UNL     1      24.459   1.913  50.512  1.00  0.00     0.167 HD
BRANCH  24  26
HETATM   26  C4  UNL     1      25.152   3.748  49.561  1.00  0.00     0.034 A 
HETATM   27  C3  UNL     1      24.835   5.036  49.211  1.00  0.00     0.039 A 
HETATM   28  C2  UNL     1      25.744   5.959  48.755  1.00  0.00    -0.021 A 
HETATM   29  C1  UNL     1      25.344   7.333  48.388  1.00  0.00     0.051 C 
HETATM   30  C21 UNL     1      27.099   5.603  48.622  1.00  0.00     0.122 A 
HETATM   31  C20 UNL     1      27.478   4.313  48.962  1.00  0.00     0.045 A 
HETATM   32  F1  UNL     1      28.027   6.484  48.177  1.00  0.00    -0.206 F 
HETATM   33  C19 UNL     1      26.510   3.471  49.403  1.00  0.00     0.032 A 
ENDBRANCH  24  26
ENDBRANCH   1  24
TORSDOF 7
ENDMDL
MODEL 9
REMARK VINA RESULT:      -8.1      3.919      6.767
REMARK  7 active torsions:
REMARK  status: ('A' for Active; 'I' for Inactive)
REMARK    1  A    between atoms: C4_4  and  N1_5 
REMARK    2  A    between atoms: N1_5  and  C5_6 
REMARK    3  A    between atoms: C9_12  and  C10_13 
REMARK    4  A    between atoms: C10_13  and  P1_14 
REMARK    5  A    between atoms: C11_17  and  C12_19 
REMARK    6  A    between atoms: C13_20  and  C14_21 
REMARK    7  A    between atoms: C14_21  and  N6_22 
ROOT
HETATM    1  C5  UNL     1      22.058   2.908  50.080  1.00  0.00     0.138 A 
HETATM    2  N2  UNL     1      21.287   2.857  48.940  1.00  0.00    -0.224 NA
HETATM    3  C6  UNL     1      20.674   3.943  48.517  1.00  0.00     0.235 A 
HETATM    4  N3  UNL     1      20.792   5.143  49.209  1.00  0.00    -0.246 NA
HETATM    5  C7  UNL     1      21.555   5.161  50.326  1.00  0.00     0.042 A 
HETATM    6  C8  UNL     1      21.793   6.352  51.213  1.00  0.00     0.071 C 
HETATM    7  C9  UNL     1      22.229   4.077  50.835  1.00  0.00     0.018 A 
ENDROOT
BRANCH   7   8
HETATM    8  C10 UNL     1      23.148   3.864  52.060  1.00  0.00     0.111 C 
BRANCH   8   9
HETATM    9  P1  UNL     1      24.815   4.561  49.901  1.00  0.00     0.082 P 
HETATM   10  N4  UNL     1      25.700   4.963  48.699  1.00  0.00    -0.159 N 
HETATM   11  N5  UNL     1      24.476   4.396  50.381  1.00  0.00    -0.230 NA
HETATM   12  C11 UNL     1      25.990   3.659  50.765  1.00  0.00     0.262 A 
HETATM   13  H12 UNL     1      25.124   3.865  50.926  1.00  0.00     0.202 HD
HETATM   14  O1  UNL     1      27.164   3.724  50.025  1.00  0.00    -0.189 OA
BRANCH  12  15
HETATM   15  C12 UNL     1      26.851   2.770  51.767  1.00  0.00    -0.040 C 
HETATM   16  C13 UNL     1      27.464   2.159  52.488  1.00  0.00    -0.082 C 
BRANCH  16  17
HETATM   17  C14 UNL     1      28.255   1.404  53.385  1.00  0.00     0.211 C 
BRANCH  17  18
HETATM   18  N6  UNL     1      27.539   0.193  53.678  1.00  0.00    -0.399 N 
HETATM   19  C15 UNL     1      26.573   0.185  54.660  1.00  0.00     0.144 C 
HETATM   20  C16 UNL     1      25.389  -0.724  54.387  1.00  0.00     0.187 C 
HETATM   21  O2  UNL     1      25.386  -1.199  53.074  1.00  0.00    -0.388 OA
HETATM   22  C17 UNL     1      26.567  -1.905  52.872  1.00  0.00     0.187 C 
HETATM   23  C18 UNL     1      27.726  -0.902  52.809  1.00  0.00     0.144 C 
ENDBRANCH  17  18
ENDBRANCH  16  17
ENDBRANCH  12  15
ENDBRANCH   8   9
ENDBRANCH   7   8
BRANCH   1  24
HETATM   24  N1  UNL     1      22.623   1.604  50.333  1.00  0.00    -0.340 N 
HETATM   25  H5  UNL     1      23.479   1.274  49.882  1.00  0.00     0.167 HD
BRANCH  24  26
HETATM   26  C4  UNL     1      21.842   0.876  51.265  1.00  0.00     0.034 A 
HETATM   27  C3  UNL     1      20.494   0.649  51.148  1.00  0.00     0.039 A 
HETATM   28  C2  UNL     1      19.750  -0.064  52.054  1.00  0.00    -0.021 A 
HETATM   29  C1  UNL     1      18.298  -0.274  51.878  1.00  0.00     0.051 C 
HETATM   30  C21 UNL     1      20.368  -0.614  53.192  1.00  0.00     0.122 A 
HETATM   31  C20 UNL     1      21.730  -0.417  53.364  1.00  0.00     0.045 A 
HETATM   32  F1  UNL     1      19.669  -1.326  54.110  1.00  0.00    -0.206 F 
HETATM   33  C19 UNL     1      22.382   0.301  52.415  1.00  0.00     0.032 A 
ENDBRANCH  24  26
ENDBRANCH   1  24
TORSDOF 7
ENDMDL
