MODEL 1
REMARK VINA RESULT:      -7.5      0.000      0.000
REMARK  5 active torsions:
REMARK  status: ('A' for Active; 'I' for Inactive)
REMARK    1  A    between atoms: O1_2  and  C2_3 
REMARK    2  A    between atoms: C5_6  and  N1_7 
REMARK    3  A    between atoms: N1_7  and  C6_8 
REMARK    4  A    between atoms: C6_8  and  C7_9 
REMARK    5  A    between atoms: C17_21  and  O2_22 
ROOT
HETATM    1  C7  UNL     1      26.593   4.870  49.006  1.00  0.00    -0.070 C 
HETATM    2  C8  UNL     1      27.719   5.111  48.641  1.00  0.00     0.006 C 
HETATM    3 CL1  UNL     1      29.341   5.433  48.102  1.00  0.00    -0.023 Cl
ENDROOT
BRANCH   1   4
HETATM    4  C6  UNL     1      25.210   4.580  49.450  1.00  0.00     0.215 C 
BRANCH   4   5
HETATM    5  N1  UNL     1      25.167   4.491  50.889  1.00  0.00    -0.385 N 
HETATM    6  H6  UNL     1      25.270   5.341  51.510  1.00  0.00     0.160 HD
BRANCH   5   7
HETATM    7  C5  UNL     1      24.970   3.229  51.608  1.00  0.00    -0.007 C 
HETATM    8  C4  UNL     1      25.516   2.405  52.526  1.00  0.00     0.069 C 
HETATM    9  C3  UNL     1      26.590   2.086  53.457  1.00  0.00     0.024 C 
HETATM   10  C2  UNL     1      26.403   0.971  54.105  1.00  0.00     0.098 C 
HETATM   11  C17 UNL     1      25.376  -0.052  54.109  1.00  0.00     0.097 C 
HETATM   12  C16 UNL     1      24.245  -0.498  53.608  1.00  0.00     0.013 C 
HETATM   13  C15 UNL     1      23.044  -1.243  53.285  1.00  0.00     0.030 C 
HETATM   14  C14 UNL     1      21.877  -0.433  52.795  1.00  0.00     0.004 C 
HETATM   15  C13 UNL     1      21.383   0.674  53.646  1.00  0.00     0.002 C 
HETATM   16  C12 UNL     1      20.201   1.390  53.010  1.00  0.00     0.019 C 
HETATM   17  C11 UNL     1      20.474   2.024  51.698  1.00  0.00     0.113 C 
HETATM   18  N2  UNL     1      21.233   3.160  51.566  1.00  0.00    -0.421 N 
HETATM   19  C10 UNL     1      22.555   3.378  51.847  1.00  0.00     0.119 C 
HETATM   20  H13 UNL     1      20.911   3.779  50.783  1.00  0.00     0.153 HD
HETATM   21  C9  UNL     1      23.650   2.673  51.113  1.00  0.00     0.072 C 
BRANCH  10  22
HETATM   22  O1  UNL     1      27.277   0.473  55.038  1.00  0.00    -0.353 OA
HETATM   23  C1  UNL     1      28.639   0.302  54.761  1.00  0.00     0.210 C 
ENDBRANCH  10  22
BRANCH  11  24
HETATM   24  O2  UNL     1      25.237  -1.205  54.859  1.00  0.00    -0.353 OA
HETATM   25  C18 UNL     1      24.627  -1.099  56.144  1.00  0.00     0.210 C 
ENDBRANCH  11  24
ENDBRANCH   5   7
ENDBRANCH   4   5
ENDBRANCH   1   4
TORSDOF 5
ENDMDL
MODEL 2
REMARK VINA RESULT:      -7.0      3.271      5.439
REMARK  5 active torsions:
REMARK  status: ('A' for Active; 'I' for Inactive)
REMARK    1  A    between atoms: O1_2  and  C2_3 
REMARK    2  A    between atoms: C5_6  and  N1_7 
REMARK    3  A    between atoms: N1_7  and  C6_8 
REMARK    4  A    between atoms: C6_8  and  C7_9 
REMARK    5  A    between atoms: C17_21  and  O2_22 
ROOT
HETATM    1  C7  UNL     1      27.385   0.519  52.824  1.00  0.00    -0.070 C 
HETATM    2  C8  UNL     1      27.292  -0.680  52.712  1.00  0.00     0.006 C 
HETATM    3 CL1  UNL     1      27.176  -2.411  52.573  1.00  0.00    -0.023 Cl
ENDROOT
BRANCH   1   4
HETATM    4  C6  UNL     1      27.491   1.989  52.963  1.00  0.00     0.215 C 
BRANCH   4   5
HETATM    5  N1  UNL     1      26.185   2.553  53.200  1.00  0.00    -0.385 N 
HETATM    6  H6  UNL     1      26.025   3.329  53.902  1.00  0.00     0.160 HD
BRANCH   5   7
HETATM    7  C5  UNL     1      24.981   2.113  52.490  1.00  0.00    -0.007 C 
HETATM    8  C4  UNL     1      23.831   1.422  52.626  1.00  0.00     0.069 C 
HETATM    9  C3  UNL     1      22.918   0.637  53.448  1.00  0.00     0.024 C 
HETATM   10  C2  UNL     1      21.842   0.261  52.817  1.00  0.00     0.098 C 
HETATM   11  C17 UNL     1      21.336   0.423  51.468  1.00  0.00     0.097 C 
HETATM   12  C16 UNL     1      21.526   0.893  50.255  1.00  0.00     0.013 C 
HETATM   13  C15 UNL     1      21.424   1.277  48.861  1.00  0.00     0.030 C 
HETATM   14  C14 UNL     1      22.146   2.535  48.468  1.00  0.00     0.004 C 
HETATM   15  C13 UNL     1      21.830   3.783  49.199  1.00  0.00     0.002 C 
HETATM   16  C12 UNL     1      22.642   4.961  48.680  1.00  0.00     0.019 C 
HETATM   17  C11 UNL     1      24.112   4.820  48.803  1.00  0.00     0.113 C 
HETATM   18  N2  UNL     1      24.768   4.900  50.007  1.00  0.00    -0.421 N 
HETATM   19  C10 UNL     1      24.687   4.095  51.111  1.00  0.00     0.119 C 
HETATM   20  H13 UNL     1      25.721   5.330  49.927  1.00  0.00     0.153 HD
HETATM   21  C9  UNL     1      25.108   2.661  51.082  1.00  0.00     0.072 C 
BRANCH  10  22
HETATM   22  O1  UNL     1      20.839  -0.479  53.390  1.00  0.00    -0.353 OA
HETATM   23  C1  UNL     1      21.106  -1.513  54.296  1.00  0.00     0.210 C 
ENDBRANCH  10  22
BRANCH  11  24
HETATM   24  O2  UNL     1      20.154   0.013  50.880  1.00  0.00    -0.353 OA
HETATM   25  C18 UNL     1      18.965   0.739  51.186  1.00  0.00     0.210 C 
ENDBRANCH  11  24
ENDBRANCH   5   7
ENDBRANCH   4   5
ENDBRANCH   1   4
TORSDOF 5
ENDMDL
MODEL 3
REMARK VINA RESULT:      -6.9      1.557      2.223
REMARK  5 active torsions:
REMARK  status: ('A' for Active; 'I' for Inactive)
REMARK    1  A    between atoms: O1_2  and  C2_3 
REMARK    2  A    between atoms: C5_6  and  N1_7 
REMARK    3  A    between atoms: N1_7  and  C6_8 
REMARK    4  A    between atoms: C6_8  and  C7_9 
REMARK    5  A    between atoms: C17_21  and  O2_22 
ROOT
HETATM    1  C7  UNL     1      27.145   5.182  48.782  1.00  0.00    -0.070 C 
HETATM    2  C8  UNL     1      27.383   6.273  48.320  1.00  0.00     0.006 C 
HETATM    3 CL1  UNL     1      27.738   7.851  47.679  1.00  0.00    -0.023 Cl
ENDROOT
BRANCH   1   4
HETATM    4  C6  UNL     1      26.858   3.842  49.342  1.00  0.00     0.215 C 
BRANCH   4   5
HETATM    5  N1  UNL     1      26.142   3.975  50.586  1.00  0.00    -0.385 N 
HETATM    6  H6  UNL     1      26.259   4.816  51.216  1.00  0.00     0.160 HD
BRANCH   5   7
HETATM    7  C5  UNL     1      25.192   2.971  51.075  1.00  0.00    -0.007 C 
HETATM    8  C4  UNL     1      25.057   1.917  51.904  1.00  0.00     0.069 C 
HETATM    9  C3  UNL     1      25.626   0.995  52.880  1.00  0.00     0.024 C 
HETATM   10  C2  UNL     1      24.774   0.115  53.324  1.00  0.00     0.098 C 
HETATM   11  C17 UNL     1      23.380  -0.184  53.062  1.00  0.00     0.097 C 
HETATM   12  C16 UNL     1      22.288   0.095  52.384  1.00  0.00     0.013 C 
HETATM   13  C15 UNL     1      20.950   0.149  51.827  1.00  0.00     0.030 C 
HETATM   14  C14 UNL     1      20.487   1.497  51.352  1.00  0.00     0.004 C 
HETATM   15  C13 UNL     1      20.512   2.626  52.310  1.00  0.00     0.002 C 
HETATM   16  C12 UNL     1      20.011   3.915  51.675  1.00  0.00     0.019 C 
HETATM   17  C11 UNL     1      20.796   4.396  50.514  1.00  0.00     0.113 C 
HETATM   18  N2  UNL     1      22.048   4.945  50.639  1.00  0.00    -0.421 N 
HETATM   19  C10 UNL     1      23.216   4.389  51.085  1.00  0.00     0.119 C 
HETATM   20  H13 UNL     1      22.238   5.697  49.934  1.00  0.00     0.153 HD
HETATM   21  C9  UNL     1      23.884   3.261  50.366  1.00  0.00     0.072 C 
BRANCH  10  22
HETATM   22  O1  UNL     1      25.082  -0.847  54.252  1.00  0.00    -0.353 OA
HETATM   23  C1  UNL     1      25.729  -0.537  55.454  1.00  0.00     0.210 C 
ENDBRANCH  10  22
BRANCH  11  24
HETATM   24  O2  UNL     1      22.530  -1.130  53.605  1.00  0.00    -0.353 OA
HETATM   25  C18 UNL     1      21.964  -0.865  54.887  1.00  0.00     0.210 C 
ENDBRANCH  11  24
ENDBRANCH   5   7
ENDBRANCH   4   5
ENDBRANCH   1   4
TORSDOF 5
ENDMDL
MODEL 4
REMARK VINA RESULT:      -6.8      2.704      5.011
REMARK  5 active torsions:
REMARK  status: ('A' for Active; 'I' for Inactive)
REMARK    1  A    between atoms: O1_2  and  C2_3 
REMARK    2  A    between atoms: C5_6  and  N1_7 
REMARK    3  A    between atoms: N1_7  and  C6_8 
REMARK    4  A    between atoms: C6_8  and  C7_9 
REMARK    5  A    between atoms: C17_21  and  O2_22 
ROOT
HETATM    1  C7  UNL     1      23.737   4.219  49.479  1.00  0.00    -0.070 C 
HETATM    2  C8  UNL     1      23.205   3.421  48.745  1.00  0.00     0.006 C 
HETATM    3 CL1  UNL     1      22.462   2.273  47.669  1.00  0.00    -0.023 Cl
ENDROOT
BRANCH   1   4
HETATM    4  C6  UNL     1      24.388   5.193  50.385  1.00  0.00     0.215 C 
BRANCH   4   5
HETATM    5  N1  UNL     1      24.039   4.898  51.752  1.00  0.00    -0.385 N 
HETATM    6  H6  UNL     1      23.943   5.654  52.486  1.00  0.00     0.160 HD
BRANCH   5   7
HETATM    7  C5  UNL     1      23.781   3.539  52.238  1.00  0.00    -0.007 C 
HETATM    8  C4  UNL     1      22.872   2.542  52.244  1.00  0.00     0.069 C 
HETATM    9  C3  UNL     1      21.572   2.015  51.848  1.00  0.00     0.024 C 
HETATM   10  C2  UNL     1      21.353   0.801  52.268  1.00  0.00     0.098 C 
HETATM   11  C17 UNL     1      22.096  -0.158  53.062  1.00  0.00     0.097 C 
HETATM   12  C16 UNL     1      23.180  -0.431  53.753  1.00  0.00     0.013 C 
HETATM   13  C15 UNL     1      24.224  -1.039  54.556  1.00  0.00     0.030 C 
HETATM   14  C14 UNL     1      25.623  -0.556  54.294  1.00  0.00     0.004 C 
HETATM   15  C13 UNL     1      26.149  -0.643  52.913  1.00  0.00     0.002 C 
HETATM   16  C12 UNL     1      27.574  -0.118  52.818  1.00  0.00     0.019 C 
HETATM   17  C11 UNL     1      27.752   1.305  53.194  1.00  0.00     0.113 C 
HETATM   18  N2  UNL     1      27.318   2.342  52.405  1.00  0.00    -0.421 N 
HETATM   19  C10 UNL     1      26.051   2.692  52.026  1.00  0.00     0.119 C 
HETATM   20  H13 UNL     1      27.939   3.185  52.460  1.00  0.00     0.153 HD
HETATM   21  C9  UNL     1      25.019   3.134  53.012  1.00  0.00     0.072 C 
BRANCH  10  22
HETATM   22  O1  UNL     1      20.203   0.099  52.012  1.00  0.00    -0.353 OA
HETATM   23  C1  UNL     1      19.323   0.467  50.986  1.00  0.00     0.210 C 
ENDBRANCH  10  22
BRANCH  11  24
HETATM   24  O2  UNL     1      21.800  -1.454  53.443  1.00  0.00    -0.353 OA
HETATM   25  C18 UNL     1      20.845  -1.646  54.484  1.00  0.00     0.210 C 
ENDBRANCH  11  24
ENDBRANCH   5   7
ENDBRANCH   4   5
ENDBRANCH   1   4
TORSDOF 5
ENDMDL
MODEL 5
REMARK VINA RESULT:      -6.7      1.540      1.976
REMARK  5 active torsions:
REMARK  status: ('A' for Active; 'I' for Inactive)
REMARK    1  A    between atoms: O1_2  and  C2_3 
REMARK    2  A    between atoms: C5_6  and  N1_7 
REMARK    3  A    between atoms: N1_7  and  C6_8 
REMARK    4  A    between atoms: C6_8  and  C7_9 
REMARK    5  A    between atoms: C17_21  and  O2_22 
ROOT
HETATM    1  C7  UNL     1      24.915   5.426  49.204  1.00  0.00    -0.070 C 
HETATM    2  C8  UNL     1      26.066   5.511  48.847  1.00  0.00     0.006 C 
HETATM    3 CL1  UNL     1      27.732   5.628  48.361  1.00  0.00    -0.023 Cl
ENDROOT
BRANCH   1   4
HETATM    4  C6  UNL     1      23.502   5.317  49.635  1.00  0.00     0.215 C 
BRANCH   4   5
HETATM    5  N1  UNL     1      23.071   3.943  49.553  1.00  0.00    -0.385 N 
HETATM    6  H6  UNL     1      22.343   3.622  48.857  1.00  0.00     0.160 HD
BRANCH   5   7
HETATM    7  C5  UNL     1      23.607   2.883  50.412  1.00  0.00    -0.007 C 
HETATM    8  C4  UNL     1      24.723   2.444  51.029  1.00  0.00     0.069 C 
HETATM    9  C3  UNL     1      26.138   2.599  51.341  1.00  0.00     0.024 C 
HETATM   10  C2  UNL     1      26.606   1.663  52.117  1.00  0.00     0.098 C 
HETATM   11  C17 UNL     1      26.052   0.476  52.739  1.00  0.00     0.097 C 
HETATM   12  C16 UNL     1      25.012  -0.309  52.913  1.00  0.00     0.013 C 
HETATM   13  C15 UNL     1      24.082  -1.349  53.308  1.00  0.00     0.030 C 
HETATM   14  C14 UNL     1      22.634  -0.952  53.368  1.00  0.00     0.004 C 
HETATM   15  C13 UNL     1      22.256   0.197  54.222  1.00  0.00     0.002 C 
HETATM   16  C12 UNL     1      20.759   0.466  54.174  1.00  0.00     0.019 C 
HETATM   17  C11 UNL     1      20.218   0.804  52.835  1.00  0.00     0.113 C 
HETATM   18  N2  UNL     1      20.454   2.009  52.221  1.00  0.00    -0.421 N 
HETATM   19  C10 UNL     1      21.628   2.566  51.790  1.00  0.00     0.119 C 
HETATM   20  H13 UNL     1      19.648   2.334  51.635  1.00  0.00     0.153 HD
HETATM   21  C9  UNL     1      22.443   1.954  50.696  1.00  0.00     0.072 C 
BRANCH  10  22
HETATM   22  O1  UNL     1      27.906   1.606  52.548  1.00  0.00    -0.353 OA
HETATM   23  C1  UNL     1      28.416   2.510  53.489  1.00  0.00     0.210 C 
ENDBRANCH  10  22
BRANCH  11  24
HETATM   24  O2  UNL     1      26.617  -0.460  53.585  1.00  0.00    -0.353 OA
HETATM   25  C18 UNL     1      27.503  -1.425  53.021  1.00  0.00     0.210 C 
ENDBRANCH  11  24
ENDBRANCH   5   7
ENDBRANCH   4   5
ENDBRANCH   1   4
TORSDOF 5
ENDMDL
MODEL 6
REMARK VINA RESULT:      -6.6      3.122      5.326
REMARK  5 active torsions:
REMARK  status: ('A' for Active; 'I' for Inactive)
REMARK    1  A    between atoms: O1_2  and  C2_3 
REMARK    2  A    between atoms: C5_6  and  N1_7 
REMARK    3  A    between atoms: N1_7  and  C6_8 
REMARK    4  A    between atoms: C6_8  and  C7_9 
REMARK    5  A    between atoms: C17_21  and  O2_22 
ROOT
HETATM    1  C7  UNL     1      24.980   6.251  49.612  1.00  0.00    -0.070 C 
HETATM    2  C8  UNL     1      24.011   6.891  49.941  1.00  0.00     0.006 C 
HETATM    3 CL1  UNL     1      22.602   7.790  50.426  1.00  0.00    -0.023 Cl
ENDROOT
BRANCH   1   4
HETATM    4  C6  UNL     1      26.173   5.470  49.212  1.00  0.00     0.215 C 
BRANCH   4   5
HETATM    5  N1  UNL     1      26.413   4.418  50.169  1.00  0.00    -0.385 N 
HETATM    6  H6  UNL     1      27.354   4.280  50.632  1.00  0.00     0.160 HD
BRANCH   5   7
HETATM    7  C5  UNL     1      25.380   3.466  50.588  1.00  0.00    -0.007 C 
HETATM    8  C4  UNL     1      24.222   2.886  50.214  1.00  0.00     0.069 C 
HETATM    9  C3  UNL     1      23.151   2.713  49.240  1.00  0.00     0.024 C 
HETATM   10  C2  UNL     1      22.244   1.854  49.609  1.00  0.00     0.098 C 
HETATM   11  C17 UNL     1      22.031   1.030  50.783  1.00  0.00     0.097 C 
HETATM   12  C16 UNL     1      22.440   0.665  51.978  1.00  0.00     0.013 C 
HETATM   13  C15 UNL     1      22.616   0.056  53.282  1.00  0.00     0.030 C 
HETATM   14  C14 UNL     1      24.033  -0.064  53.768  1.00  0.00     0.004 C 
HETATM   15  C13 UNL     1      25.010  -0.777  52.914  1.00  0.00     0.002 C 
HETATM   16  C12 UNL     1      26.393  -0.812  53.549  1.00  0.00     0.019 C 
HETATM   17  C11 UNL     1      27.011   0.512  53.796  1.00  0.00     0.113 C 
HETATM   18  N2  UNL     1      27.496   1.305  52.786  1.00  0.00    -0.421 N 
HETATM   19  C10 UNL     1      26.844   1.903  51.741  1.00  0.00     0.119 C 
HETATM   20  H13 UNL     1      28.335   1.865  53.071  1.00  0.00     0.153 HD
HETATM   21  C9  UNL     1      25.811   2.962  51.951  1.00  0.00     0.072 C 
BRANCH  10  22
HETATM   22  O1  UNL     1      21.149   1.525  48.851  1.00  0.00    -0.353 OA
HETATM   23  C1  UNL     1      20.529   2.451  48.004  1.00  0.00     0.210 C 
ENDBRANCH  10  22
BRANCH  11  24
HETATM   24  O2  UNL     1      21.045   0.110  51.087  1.00  0.00    -0.353 OA
HETATM   25  C18 UNL     1      19.766   0.603  51.482  1.00  0.00     0.210 C 
ENDBRANCH  11  24
ENDBRANCH   5   7
ENDBRANCH   4   5
ENDBRANCH   1   4
TORSDOF 5
ENDMDL
MODEL 7
REMARK VINA RESULT:      -6.6      2.281      4.783
REMARK  5 active torsions:
REMARK  status: ('A' for Active; 'I' for Inactive)
REMARK    1  A    between atoms: O1_2  and  C2_3 
REMARK    2  A    between atoms: C5_6  and  N1_7 
REMARK    3  A    between atoms: N1_7  and  C6_8 
REMARK    4  A    between atoms: C6_8  and  C7_9 
REMARK    5  A    between atoms: C17_21  and  O2_22 
ROOT
HETATM    1  C7  UNL     1      25.864   6.122  49.123  1.00  0.00    -0.070 C 
HETATM    2  C8  UNL     1      26.627   6.674  48.367  1.00  0.00     0.006 C 
HETATM    3 CL1  UNL     1      27.732   7.489  47.298  1.00  0.00    -0.023 Cl
ENDROOT
BRANCH   1   4
HETATM    4  C6  UNL     1      24.933   5.437  50.050  1.00  0.00     0.215 C 
BRANCH   4   5
HETATM    5  N1  UNL     1      25.630   4.393  50.760  1.00  0.00    -0.385 N 
HETATM    6  H6  UNL     1      26.679   4.405  50.893  1.00  0.00     0.160 HD
BRANCH   5   7
HETATM    7  C5  UNL     1      24.950   3.241  51.360  1.00  0.00    -0.007 C 
HETATM    8  C4  UNL     1      23.854   2.461  51.274  1.00  0.00     0.069 C 
HETATM    9  C3  UNL     1      22.593   2.120  50.628  1.00  0.00     0.024 C 
HETATM   10  C2  UNL     1      22.000   1.086  51.155  1.00  0.00     0.098 C 
HETATM   11  C17 UNL     1      22.289   0.192  52.258  1.00  0.00     0.097 C 
HETATM   12  C16 UNL     1      23.089  -0.132  53.250  1.00  0.00     0.013 C 
HETATM   13  C15 UNL     1      23.744  -0.745  54.389  1.00  0.00     0.030 C 
HETATM   14  C14 UNL     1      25.240  -0.605  54.444  1.00  0.00     0.004 C 
HETATM   15  C13 UNL     1      26.032  -1.079  53.287  1.00  0.00     0.002 C 
HETATM   16  C12 UNL     1      27.524  -0.868  53.501  1.00  0.00     0.019 C 
HETATM   17  C11 UNL     1      27.944   0.541  53.688  1.00  0.00     0.113 C 
HETATM   18  N2  UNL     1      27.964   1.453  52.661  1.00  0.00    -0.421 N 
HETATM   19  C10 UNL     1      26.939   1.952  51.903  1.00  0.00     0.119 C 
HETATM   20  H13 UNL     1      28.738   2.154  52.751  1.00  0.00     0.153 HD
HETATM   21  C9  UNL     1      25.844   2.779  52.494  1.00  0.00     0.072 C 
BRANCH  10  22
HETATM   22  O1  UNL     1      20.807   0.579  50.708  1.00  0.00    -0.353 OA
HETATM   23  C1  UNL     1      19.669   1.382  50.559  1.00  0.00     0.210 C 
ENDBRANCH  10  22
BRANCH  11  24
HETATM   24  O2  UNL     1      21.614  -0.914  52.739  1.00  0.00    -0.353 OA
HETATM   25  C18 UNL     1      20.511  -0.698  53.617  1.00  0.00     0.210 C 
ENDBRANCH  11  24
ENDBRANCH   5   7
ENDBRANCH   4   5
ENDBRANCH   1   4
TORSDOF 5
ENDMDL
MODEL 8
REMARK VINA RESULT:      -6.4      3.134      4.599
REMARK  5 active torsions:
REMARK  status: ('A' for Active; 'I' for Inactive)
REMARK    1  A    between atoms: O1_2  and  C2_3 
REMARK    2  A    between atoms: C5_6  and  N1_7 
REMARK    3  A    between atoms: N1_7  and  C6_8 
REMARK    4  A    between atoms: C6_8  and  C7_9 
REMARK    5  A    between atoms: C17_21  and  O2_22 
ROOT
HETATM    1  C7  UNL     1      20.591   3.912  47.143  1.00  0.00    -0.070 C 
HETATM    2  C8  UNL     1      21.274   4.587  46.410  1.00  0.00     0.006 C 
HETATM    3 CL1  UNL     1      22.282   5.545  45.365  1.00  0.00    -0.023 Cl
ENDROOT
BRANCH   1   4
HETATM    4  C6  UNL     1      19.748   3.082  48.034  1.00  0.00     0.215 C 
BRANCH   4   5
HETATM    5  N1  UNL     1      20.398   1.819  48.285  1.00  0.00    -0.385 N 
HETATM    6  H6  UNL     1      20.155   0.943  47.744  1.00  0.00     0.160 HD
BRANCH   5   7
HETATM    7  C5  UNL     1      21.447   1.644  49.293  1.00  0.00    -0.007 C 
HETATM    8  C4  UNL     1      22.629   2.128  49.726  1.00  0.00     0.069 C 
HETATM    9  C3  UNL     1      23.725   3.082  49.605  1.00  0.00     0.024 C 
HETATM   10  C2  UNL     1      24.648   2.933  50.513  1.00  0.00     0.098 C 
HETATM   11  C17 UNL     1      24.858   2.020  51.620  1.00  0.00     0.097 C 
HETATM   12  C16 UNL     1      24.433   0.981  52.303  1.00  0.00     0.013 C 
HETATM   13  C15 UNL     1      24.246  -0.104  53.247  1.00  0.00     0.030 C 
HETATM   14  C14 UNL     1      22.823  -0.499  53.524  1.00  0.00     0.004 C 
HETATM   15  C13 UNL     1      21.884   0.543  53.999  1.00  0.00     0.002 C 
HETATM   16  C12 UNL     1      20.490  -0.018  54.234  1.00  0.00     0.019 C 
HETATM   17  C11 UNL     1      19.829  -0.596  53.040  1.00  0.00     0.113 C 
HETATM   18  N2  UNL     1      19.345   0.175  52.013  1.00  0.00    -0.421 N 
HETATM   19  C10 UNL     1      20.003   1.000  51.140  1.00  0.00     0.119 C 
HETATM   20  H13 UNL     1      18.484  -0.227  51.569  1.00  0.00     0.153 HD
HETATM   21  C9  UNL     1      21.001   0.481  50.156  1.00  0.00     0.072 C 
BRANCH  10  22
HETATM   22  O1  UNL     1      25.768   3.719  50.601  1.00  0.00    -0.353 OA
HETATM   23  C1  UNL     1      26.588   3.969  49.494  1.00  0.00     0.210 C 
ENDBRANCH  10  22
BRANCH  11  24
HETATM   24  O2  UNL     1      25.863   1.948  52.567  1.00  0.00    -0.353 OA
HETATM   25  C18 UNL     1      27.081   1.302  52.204  1.00  0.00     0.210 C 
ENDBRANCH  11  24
ENDBRANCH   5   7
ENDBRANCH   4   5
ENDBRANCH   1   4
TORSDOF 5
ENDMDL
MODEL 9
REMARK VINA RESULT:      -6.4      3.391      5.606
REMARK  5 active torsions:
REMARK  status: ('A' for Active; 'I' for Inactive)
REMARK    1  A    between atoms: O1_2  and  C2_3 
REMARK    2  A    between atoms: C5_6  and  N1_7 
REMARK    3  A    between atoms: N1_7  and  C6_8 
REMARK    4  A    between atoms: C6_8  and  C7_9 
REMARK    5  A    between atoms: C17_21  and  O2_22 
ROOT
HETATM    1  C7  UNL     1      22.661   6.997  50.681  1.00  0.00    -0.070 C 
HETATM    2  C8  UNL     1      21.646   7.604  50.435  1.00  0.00     0.006 C 
HETATM    3 CL1  UNL     1      20.169   8.460  50.099  1.00  0.00    -0.023 Cl
ENDROOT
BRANCH   1   4
HETATM    4  C6  UNL     1      23.909   6.260  50.986  1.00  0.00     0.215 C 
BRANCH   4   5
HETATM    5  N1  UNL     1      23.807   5.640  52.283  1.00  0.00    -0.385 N 
HETATM    6  H6  UNL     1      24.099   6.137  53.170  1.00  0.00     0.160 HD
BRANCH   5   7
HETATM    7  C5  UNL     1      23.285   4.285  52.485  1.00  0.00    -0.007 C 
HETATM    8  C4  UNL     1      22.239   3.475  52.227  1.00  0.00     0.069 C 
HETATM    9  C3  UNL     1      20.929   3.254  51.627  1.00  0.00     0.024 C 
HETATM   10  C2  UNL     1      20.476   2.044  51.796  1.00  0.00     0.098 C 
HETATM   11  C17 UNL     1      20.962   0.852  52.463  1.00  0.00     0.097 C 
HETATM   12  C16 UNL     1      21.901   0.284  53.186  1.00  0.00     0.013 C 
HETATM   13  C15 UNL     1      22.736  -0.620  53.954  1.00  0.00     0.030 C 
HETATM   14  C14 UNL     1      24.214  -0.351  53.911  1.00  0.00     0.004 C 
HETATM   15  C13 UNL     1      24.880  -0.296  52.590  1.00  0.00     0.002 C 
HETATM   16  C12 UNL     1      26.370  -0.018  52.720  1.00  0.00     0.019 C 
HETATM   17  C11 UNL     1      26.720   1.269  53.366  1.00  0.00     0.113 C 
HETATM   18  N2  UNL     1      26.549   2.482  52.746  1.00  0.00    -0.421 N 
HETATM   19  C10 UNL     1      25.405   3.106  52.325  1.00  0.00     0.119 C 
HETATM   20  H13 UNL     1      27.282   3.184  53.009  1.00  0.00     0.153 HD
HETATM   21  C9  UNL     1      24.345   3.549  53.280  1.00  0.00     0.072 C 
BRANCH  10  22
HETATM   22  O1  UNL     1      19.270   1.604  51.313  1.00  0.00    -0.353 OA
HETATM   23  C1  UNL     1      18.123   2.408  51.341  1.00  0.00     0.210 C 
ENDBRANCH  10  22
BRANCH  11  24
HETATM   24  O2  UNL     1      20.426  -0.418  52.571  1.00  0.00    -0.353 OA
HETATM   25  C18 UNL     1      19.297  -0.600  53.423  1.00  0.00     0.210 C 
ENDBRANCH  11  24
ENDBRANCH   5   7
ENDBRANCH   4   5
ENDBRANCH   1   4
TORSDOF 5
ENDMDL
