MODEL 1
REMARK VINA RESULT:      -6.8      0.000      0.000
REMARK  10 active torsions:
REMARK  status: ('A' for Active; 'I' for Inactive)
REMARK    1  A    between atoms: N1_2  and  C3_4 
REMARK    2  A    between atoms: C3_4  and  C4_5 
REMARK    3  A    between atoms: C4_5  and  C5_6 
REMARK    4  A    between atoms: C5_6  and  O1_7 
REMARK    5  A    between atoms: O1_7  and  C6_8 
REMARK    6  A    between atoms: C8_10  and  C9_11 
REMARK    7  A    between atoms: C9_11  and  N2_12 
REMARK    8  A    between atoms: N2_12  and  C10_13 
REMARK    9  A    between atoms: C17_22  and  O2_23 
REMARK   10  A    between atoms: O2_23  and  C18_24 
ROOT
HETATM    1  C6  UNL     1      24.101   0.715  53.337  1.00  0.00     0.102 A 
HETATM    2  C7  UNL     1      24.168   1.961  52.970  1.00  0.00     0.049 A 
HETATM    3  C8  UNL     1      23.167   2.699  52.247  1.00  0.00    -0.019 A 
HETATM    4  C14 UNL     1      21.951   1.981  51.747  1.00  0.00     0.152 A 
HETATM    5  C15 UNL     1      20.726   2.704  52.213  1.00  0.00     0.072 C 
HETATM    6  N3  UNL     1      19.810   3.265  52.576  1.00  0.00    -0.196 NA
HETATM    7  C16 UNL     1      21.971   0.594  52.242  1.00  0.00     0.037 A 
HETATM    8  C17 UNL     1      22.913  -0.035  52.961  1.00  0.00     0.103 A 
ENDROOT
BRANCH   3   9
HETATM    9  C9  UNL     1      23.032   3.970  51.994  1.00  0.00     0.092 C 
BRANCH   9  10
HETATM   10  N2  UNL     1      23.566   4.846  51.023  1.00  0.00    -0.390 N 
HETATM   11  H15 UNL     1      23.893   3.936  50.573  1.00  0.00     0.159 HD
BRANCH  10  12
HETATM   12  C10 UNL     1      24.103   5.730  50.046  1.00  0.00     0.110 A 
HETATM   13  C11 UNL     1      25.330   6.466  50.328  1.00  0.00     0.018 A 
HETATM   14  C12 UNL     1      25.992   5.964  49.348  1.00  0.00     0.012 A 
HETATM   15 CL1  UNL     1      27.513   5.871  48.426  1.00  0.00    -0.089 Cl
HETATM   16  C13 UNL     1      24.916   5.060  48.954  1.00  0.00     0.080 A 
ENDBRANCH  10  12
ENDBRANCH   9  10
ENDBRANCH   3   9
BRANCH   8  17
HETATM   17  O2  UNL     1      22.416  -1.328  53.148  1.00  0.00    -0.319 OA
BRANCH  17  18
HETATM   18  C18 UNL     1      21.546  -1.532  54.287  1.00  0.00     0.398 C 
HETATM   19  F1  UNL     1      22.046  -0.741  55.296  1.00  0.00    -0.227 F 
ENDBRANCH  17  18
ENDBRANCH   8  17
BRANCH   1  20
HETATM   20  O1  UNL     1      25.001  -0.064  54.034  1.00  0.00    -0.348 OA
BRANCH  20  21
HETATM   21  C5  UNL     1      25.785  -0.950  53.305  1.00  0.00     0.177 C 
BRANCH  21  22
HETATM   22  C4  UNL     1      26.551  -0.314  52.145  1.00  0.00     0.057 C 
BRANCH  22  23
HETATM   23  C3  UNL     1      27.778   0.301  52.778  1.00  0.00     0.273 C 
BRANCH  23  24
HETATM   24  N1  UNL     1      28.396  -0.470  53.790  1.00  0.00     0.080 N 
HETATM   25  C1  UNL     1      29.510  -1.271  53.365  1.00  0.00     0.309 C 
HETATM   26  C2  UNL     1      28.674   0.265  55.005  1.00  0.00     0.309 C 
ENDBRANCH  23  24
ENDBRANCH  22  23
ENDBRANCH  21  22
ENDBRANCH  20  21
ENDBRANCH   1  20
TORSDOF 10
ENDMDL
MODEL 2
REMARK VINA RESULT:      -6.7      3.742      6.885
REMARK  10 active torsions:
REMARK  status: ('A' for Active; 'I' for Inactive)
REMARK    1  A    between atoms: N1_2  and  C3_4 
REMARK    2  A    between atoms: C3_4  and  C4_5 
REMARK    3  A    between atoms: C4_5  and  C5_6 
REMARK    4  A    between atoms: C5_6  and  O1_7 
REMARK    5  A    between atoms: O1_7  and  C6_8 
REMARK    6  A    between atoms: C8_10  and  C9_11 
REMARK    7  A    between atoms: C9_11  and  N2_12 
REMARK    8  A    between atoms: N2_12  and  C10_13 
REMARK    9  A    between atoms: C17_22  and  O2_23 
REMARK   10  A    between atoms: O2_23  and  C18_24 
ROOT
HETATM    1  C6  UNL     1      26.141   1.983  51.996  1.00  0.00     0.102 A 
HETATM    2  C7  UNL     1      24.984   1.396  52.090  1.00  0.00     0.049 A 
HETATM    3  C8  UNL     1      24.689   0.191  52.821  1.00  0.00    -0.019 A 
HETATM    4  C14 UNL     1      25.810  -0.563  53.467  1.00  0.00     0.152 A 
HETATM    5  C15 UNL     1      25.484  -0.789  54.910  1.00  0.00     0.072 C 
HETATM    6  N3  UNL     1      25.219  -0.951  56.001  1.00  0.00    -0.196 NA
HETATM    7  C16 UNL     1      27.059   0.205  53.318  1.00  0.00     0.037 A 
HETATM    8  C17 UNL     1      27.270   1.358  52.664  1.00  0.00     0.103 A 
ENDROOT
BRANCH   3   9
HETATM    9  C9  UNL     1      23.563  -0.378  53.146  1.00  0.00     0.092 C 
BRANCH   9  10
HETATM   10  N2  UNL     1      22.229   0.072  53.273  1.00  0.00    -0.390 N 
HETATM   11  H15 UNL     1      22.223  -0.063  52.215  1.00  0.00     0.159 HD
BRANCH  10  12
HETATM   12  C10 UNL     1      20.887   0.525  53.402  1.00  0.00     0.110 A 
HETATM   13  C11 UNL     1      20.146   0.947  52.220  1.00  0.00     0.018 A 
HETATM   14  C12 UNL     1      19.215   0.071  52.350  1.00  0.00     0.012 A 
HETATM   15 CL1  UNL     1      17.697  -0.641  51.748  1.00  0.00    -0.089 Cl
HETATM   16  C13 UNL     1      19.847  -0.575  53.496  1.00  0.00     0.080 A 
ENDBRANCH  10  12
ENDBRANCH   9  10
ENDBRANCH   3   9
BRANCH   8  17
HETATM   17  O2  UNL     1      28.630   1.627  52.849  1.00  0.00    -0.319 OA
BRANCH  17  18
HETATM   18  C18 UNL     1      29.207   1.227  54.115  1.00  0.00     0.398 C 
HETATM   19  F1  UNL     1      29.668   2.381  54.705  1.00  0.00    -0.227 F 
ENDBRANCH  17  18
ENDBRANCH   8  17
BRANCH   1  20
HETATM   20  O1  UNL     1      26.510   3.134  51.331  1.00  0.00    -0.348 OA
BRANCH  20  21
HETATM   21  C5  UNL     1      26.441   3.125  49.942  1.00  0.00     0.177 C 
BRANCH  21  22
HETATM   22  C4  UNL     1      25.881   4.407  49.326  1.00  0.00     0.057 C 
BRANCH  22  23
HETATM   23  C3  UNL     1      24.414   4.408  49.692  1.00  0.00     0.273 C 
BRANCH  23  24
HETATM   24  N1  UNL     1      23.993   5.467  50.530  1.00  0.00     0.080 N 
HETATM   25  C1  UNL     1      23.581   5.086  51.852  1.00  0.00     0.309 C 
HETATM   26  C2  UNL     1      24.886   6.606  50.534  1.00  0.00     0.309 C 
ENDBRANCH  23  24
ENDBRANCH  22  23
ENDBRANCH  21  22
ENDBRANCH  20  21
ENDBRANCH   1  20
TORSDOF 10
ENDMDL
MODEL 3
REMARK VINA RESULT:      -6.6      4.073      7.069
REMARK  10 active torsions:
REMARK  status: ('A' for Active; 'I' for Inactive)
REMARK    1  A    between atoms: N1_2  and  C3_4 
REMARK    2  A    between atoms: C3_4  and  C4_5 
REMARK    3  A    between atoms: C4_5  and  C5_6 
REMARK    4  A    between atoms: C5_6  and  O1_7 
REMARK    5  A    between atoms: O1_7  and  C6_8 
REMARK    6  A    between atoms: C8_10  and  C9_11 
REMARK    7  A    between atoms: C9_11  and  N2_12 
REMARK    8  A    between atoms: N2_12  and  C10_13 
REMARK    9  A    between atoms: C17_22  and  O2_23 
REMARK   10  A    between atoms: O2_23  and  C18_24 
ROOT
HETATM    1  C6  UNL     1      26.079   2.046  51.876  1.00  0.00     0.102 A 
HETATM    2  C7  UNL     1      24.931   1.445  51.978  1.00  0.00     0.049 A 
HETATM    3  C8  UNL     1      24.653   0.239  52.712  1.00  0.00    -0.019 A 
HETATM    4  C14 UNL     1      25.786  -0.501  53.355  1.00  0.00     0.152 A 
HETATM    5  C15 UNL     1      25.469  -0.727  54.800  1.00  0.00     0.072 C 
HETATM    6  N3  UNL     1      25.211  -0.890  55.892  1.00  0.00    -0.196 NA
HETATM    7  C16 UNL     1      27.025   0.282  53.198  1.00  0.00     0.037 A 
HETATM    8  C17 UNL     1      27.219   1.436  52.541  1.00  0.00     0.103 A 
ENDROOT
BRANCH   3   9
HETATM    9  C9  UNL     1      23.536  -0.343  53.044  1.00  0.00     0.092 C 
BRANCH   9  10
HETATM   10  N2  UNL     1      22.190   0.079  53.134  1.00  0.00    -0.390 N 
HETATM   11  H15 UNL     1      22.559   0.637  53.964  1.00  0.00     0.159 HD
BRANCH  10  12
HETATM   12  C10 UNL     1      20.835   0.503  53.223  1.00  0.00     0.110 A 
HETATM   13  C11 UNL     1      19.952   0.361  52.071  1.00  0.00     0.018 A 
HETATM   14  C12 UNL     1      19.110  -0.406  52.668  1.00  0.00     0.012 A 
HETATM   15 CL1  UNL     1      17.603  -1.352  52.608  1.00  0.00    -0.089 Cl
HETATM   16  C13 UNL     1      19.899  -0.483  53.894  1.00  0.00     0.080 A 
ENDBRANCH  10  12
ENDBRANCH   9  10
ENDBRANCH   3   9
BRANCH   8  17
HETATM   17  O2  UNL     1      28.576   1.723  52.719  1.00  0.00    -0.319 OA
BRANCH  17  18
HETATM   18  C18 UNL     1      29.176   1.285  53.962  1.00  0.00     0.398 C 
HETATM   19  F1  UNL     1      29.593   2.427  54.606  1.00  0.00    -0.227 F 
ENDBRANCH  17  18
ENDBRANCH   8  17
BRANCH   1  20
HETATM   20  O1  UNL     1      26.431   3.200  51.207  1.00  0.00    -0.348 OA
BRANCH  20  21
HETATM   21  C5  UNL     1      25.892   3.400  49.942  1.00  0.00     0.177 C 
BRANCH  21  22
HETATM   22  C4  UNL     1      26.184   4.773  49.337  1.00  0.00     0.057 C 
BRANCH  22  23
HETATM   23  C3  UNL     1      27.590   4.669  48.791  1.00  0.00     0.273 C 
BRANCH  23  24
HETATM   24  N1  UNL     1      28.098   5.840  48.182  1.00  0.00     0.080 N 
HETATM   25  C1  UNL     1      27.494   7.072  48.608  1.00  0.00     0.309 C 
HETATM   26  C2  UNL     1      29.543   5.912  48.154  1.00  0.00     0.309 C 
ENDBRANCH  23  24
ENDBRANCH  22  23
ENDBRANCH  21  22
ENDBRANCH  20  21
ENDBRANCH   1  20
TORSDOF 10
ENDMDL
MODEL 4
REMARK VINA RESULT:      -6.5      4.191      6.334
REMARK  10 active torsions:
REMARK  status: ('A' for Active; 'I' for Inactive)
REMARK    1  A    between atoms: N1_2  and  C3_4 
REMARK    2  A    between atoms: C3_4  and  C4_5 
REMARK    3  A    between atoms: C4_5  and  C5_6 
REMARK    4  A    between atoms: C5_6  and  O1_7 
REMARK    5  A    between atoms: O1_7  and  C6_8 
REMARK    6  A    between atoms: C8_10  and  C9_11 
REMARK    7  A    between atoms: C9_11  and  N2_12 
REMARK    8  A    between atoms: N2_12  and  C10_13 
REMARK    9  A    between atoms: C17_22  and  O2_23 
REMARK   10  A    between atoms: O2_23  and  C18_24 
ROOT
HETATM    1  C6  UNL     1      24.193   0.983  52.543  1.00  0.00     0.102 A 
HETATM    2  C7  UNL     1      22.983   0.509  52.561  1.00  0.00     0.049 A 
HETATM    3  C8  UNL     1      21.911   0.851  51.662  1.00  0.00    -0.019 A 
HETATM    4  C14 UNL     1      22.125   1.937  50.653  1.00  0.00     0.152 A 
HETATM    5  C15 UNL     1      21.774   1.421  49.293  1.00  0.00     0.072 C 
HETATM    6  N3  UNL     1      21.502   1.013  48.270  1.00  0.00    -0.196 NA
HETATM    7  C16 UNL     1      23.530   2.378  50.708  1.00  0.00     0.037 A 
HETATM    8  C17 UNL     1      24.508   1.987  51.539  1.00  0.00     0.103 A 
ENDROOT
BRANCH   3   9
HETATM    9  C9  UNL     1      20.741   0.318  51.457  1.00  0.00     0.092 C 
BRANCH   9  10
HETATM   10  N2  UNL     1      19.690  -0.112  52.298  1.00  0.00    -0.390 N 
HETATM   11  H15 UNL     1      20.131   0.578  52.981  1.00  0.00     0.159 HD
BRANCH  10  12
HETATM   12  C10 UNL     1      18.632  -0.547  53.144  1.00  0.00     0.110 A 
HETATM   13  C11 UNL     1      17.444  -1.163  52.564  1.00  0.00     0.018 A 
HETATM   14  C12 UNL     1      17.580  -2.279  53.188  1.00  0.00     0.012 A 
HETATM   15 CL1  UNL     1      16.974  -3.920  53.522  1.00  0.00    -0.089 Cl
HETATM   16  C13 UNL     1      18.849  -1.898  53.798  1.00  0.00     0.080 A 
ENDBRANCH  10  12
ENDBRANCH   9  10
ENDBRANCH   3   9
BRANCH   8  17
HETATM   17  O2  UNL     1      25.628   2.726  51.144  1.00  0.00    -0.319 OA
BRANCH  17  18
HETATM   18  C18 UNL     1      25.526   3.442  49.890  1.00  0.00     0.398 C 
HETATM   19  F1  UNL     1      26.564   2.990  49.108  1.00  0.00    -0.227 F 
ENDBRANCH  17  18
ENDBRANCH   8  17
BRANCH   1  20
HETATM   20  O1  UNL     1      25.275   0.709  53.352  1.00  0.00    -0.348 OA
BRANCH  20  21
HETATM   21  C5  UNL     1      25.539  -0.625  53.643  1.00  0.00     0.177 C 
BRANCH  21  22
HETATM   22  C4  UNL     1      26.776  -1.194  52.948  1.00  0.00     0.057 C 
BRANCH  22  23
HETATM   23  C3  UNL     1      27.707  -0.014  52.779  1.00  0.00     0.273 C 
BRANCH  23  24
HETATM   24  N1  UNL     1      28.890  -0.053  53.553  1.00  0.00     0.080 N 
HETATM   25  C1  UNL     1      28.778   0.476  54.884  1.00  0.00     0.309 C 
HETATM   26  C2  UNL     1      29.576  -1.327  53.519  1.00  0.00     0.309 C 
ENDBRANCH  23  24
ENDBRANCH  22  23
ENDBRANCH  21  22
ENDBRANCH  20  21
ENDBRANCH   1  20
TORSDOF 10
ENDMDL
MODEL 5
REMARK VINA RESULT:      -6.5      4.431      6.630
REMARK  10 active torsions:
REMARK  status: ('A' for Active; 'I' for Inactive)
REMARK    1  A    between atoms: N1_2  and  C3_4 
REMARK    2  A    between atoms: C3_4  and  C4_5 
REMARK    3  A    between atoms: C4_5  and  C5_6 
REMARK    4  A    between atoms: C5_6  and  O1_7 
REMARK    5  A    between atoms: O1_7  and  C6_8 
REMARK    6  A    between atoms: C8_10  and  C9_11 
REMARK    7  A    between atoms: C9_11  and  N2_12 
REMARK    8  A    between atoms: N2_12  and  C10_13 
REMARK    9  A    between atoms: C17_22  and  O2_23 
REMARK   10  A    between atoms: O2_23  and  C18_24 
ROOT
HETATM    1  C6  UNL     1      26.538   4.153  49.347  1.00  0.00     0.102 A 
HETATM    2  C7  UNL     1      27.656   4.545  48.811  1.00  0.00     0.049 A 
HETATM    3  C8  UNL     1      27.962   5.866  48.329  1.00  0.00    -0.019 A 
HETATM    4  C14 UNL     1      26.885   6.907  48.321  1.00  0.00     0.152 A 
HETATM    5  C15 UNL     1      27.376   8.129  49.032  1.00  0.00     0.072 C 
HETATM    6  N3  UNL     1      27.766   9.046  49.573  1.00  0.00    -0.196 NA
HETATM    7  C16 UNL     1      25.681   6.361  48.971  1.00  0.00     0.037 A 
HETATM    8  C17 UNL     1      25.464   5.127  49.452  1.00  0.00     0.103 A 
ENDROOT
BRANCH   3   9
HETATM    9  C9  UNL     1      29.080   6.422  47.959  1.00  0.00     0.092 C 
BRANCH   9  10
HETATM   10  N2  UNL     1      30.366   5.934  47.632  1.00  0.00    -0.390 N 
HETATM   11  H15 UNL     1      29.821   5.358  46.920  1.00  0.00     0.159 HD
BRANCH  10  12
HETATM   12  C10 UNL     1      31.660   5.444  47.305  1.00  0.00     0.110 A 
HETATM   13  C11 UNL     1      32.540   4.955  48.360  1.00  0.00     0.018 A 
HETATM   14  C12 UNL     1      32.641   3.766  47.883  1.00  0.00     0.012 A 
HETATM   15 CL1  UNL     1      33.315   2.123  48.015  1.00  0.00    -0.089 Cl
HETATM   16  C13 UNL     1      31.695   4.014  46.800  1.00  0.00     0.080 A 
ENDBRANCH  10  12
ENDBRANCH   9  10
ENDBRANCH   3   9
BRANCH   8  17
HETATM   17  O2  UNL     1      24.159   5.165  49.954  1.00  0.00    -0.319 OA
BRANCH  17  18
HETATM   18  C18 UNL     1      23.958   5.892  51.189  1.00  0.00     0.398 C 
HETATM   19  F1  UNL     1      23.952   4.949  52.191  1.00  0.00    -0.227 F 
ENDBRANCH  17  18
ENDBRANCH   8  17
BRANCH   1  20
HETATM   20  O1  UNL     1      26.164   2.920  49.840  1.00  0.00    -0.348 OA
BRANCH  20  21
HETATM   21  C5  UNL     1      26.266   2.718  51.211  1.00  0.00     0.177 C 
BRANCH  21  22
HETATM   22  C4  UNL     1      26.685   1.304  51.615  1.00  0.00     0.057 C 
BRANCH  22  23
HETATM   23  C3  UNL     1      27.482   1.482  52.888  1.00  0.00     0.273 C 
BRANCH  23  24
HETATM   24  N1  UNL     1      27.138   0.613  53.950  1.00  0.00     0.080 N 
HETATM   25  C1  UNL     1      26.243  -0.458  53.610  1.00  0.00     0.309 C 
HETATM   26  C2  UNL     1      28.267   0.165  54.736  1.00  0.00     0.309 C 
ENDBRANCH  23  24
ENDBRANCH  22  23
ENDBRANCH  21  22
ENDBRANCH  20  21
ENDBRANCH   1  20
TORSDOF 10
ENDMDL
MODEL 6
REMARK VINA RESULT:      -6.4      3.354      6.183
REMARK  10 active torsions:
REMARK  status: ('A' for Active; 'I' for Inactive)
REMARK    1  A    between atoms: N1_2  and  C3_4 
REMARK    2  A    between atoms: C3_4  and  C4_5 
REMARK    3  A    between atoms: C4_5  and  C5_6 
REMARK    4  A    between atoms: C5_6  and  O1_7 
REMARK    5  A    between atoms: O1_7  and  C6_8 
REMARK    6  A    between atoms: C8_10  and  C9_11 
REMARK    7  A    between atoms: C9_11  and  N2_12 
REMARK    8  A    between atoms: N2_12  and  C10_13 
REMARK    9  A    between atoms: C17_22  and  O2_23 
REMARK   10  A    between atoms: O2_23  and  C18_24 
ROOT
HETATM    1  C6  UNL     1      21.285   1.218  51.082  1.00  0.00     0.102 A 
HETATM    2  C7  UNL     1      22.462   0.892  51.528  1.00  0.00     0.049 A 
HETATM    3  C8  UNL     1      22.786   0.452  52.860  1.00  0.00    -0.019 A 
HETATM    4  C14 UNL     1      21.716   0.454  53.909  1.00  0.00     0.152 A 
HETATM    5  C15 UNL     1      21.649  -0.898  54.546  1.00  0.00     0.072 C 
HETATM    6  N3  UNL     1      21.614  -1.929  55.017  1.00  0.00    -0.196 NA
HETATM    7  C16 UNL     1      20.429   0.813  53.286  1.00  0.00     0.037 A 
HETATM    8  C17 UNL     1      20.173   1.169  52.017  1.00  0.00     0.103 A 
ENDROOT
BRANCH   3   9
HETATM    9  C9  UNL     1      23.863  -0.076  53.367  1.00  0.00     0.092 C 
BRANCH   9  10
HETATM   10  N2  UNL     1      25.181   0.385  53.585  1.00  0.00    -0.390 N 
HETATM   11  H15 UNL     1      25.378  -0.651  53.737  1.00  0.00     0.159 HD
BRANCH  10  12
HETATM   12  C10 UNL     1      26.507   0.852  53.806  1.00  0.00     0.110 A 
HETATM   13  C11 UNL     1      27.344   0.213  54.814  1.00  0.00     0.018 A 
HETATM   14  C12 UNL     1      28.262  -0.145  53.989  1.00  0.00     0.012 A 
HETATM   15 CL1  UNL     1      29.826  -0.949  53.705  1.00  0.00    -0.089 Cl
HETATM   16  C13 UNL     1      27.538   0.339  52.818  1.00  0.00     0.080 A 
ENDBRANCH  10  12
ENDBRANCH   9  10
ENDBRANCH   3   9
BRANCH   8  17
HETATM   17  O2  UNL     1      18.794   1.397  51.983  1.00  0.00    -0.319 OA
BRANCH  17  18
HETATM   18  C18 UNL     1      17.941   0.228  51.988  1.00  0.00     0.398 C 
HETATM   19  F1  UNL     1      18.276  -0.494  50.866  1.00  0.00    -0.227 F 
ENDBRANCH  17  18
ENDBRANCH   8  17
BRANCH   1  20
HETATM   20  O1  UNL     1      20.886   1.639  49.830  1.00  0.00    -0.348 OA
BRANCH  20  21
HETATM   21  C5  UNL     1      21.713   1.334  48.755  1.00  0.00     0.177 C 
BRANCH  21  22
HETATM   22  C4  UNL     1      22.648   2.468  48.333  1.00  0.00     0.057 C 
BRANCH  22  23
HETATM   23  C3  UNL     1      21.873   3.737  48.609  1.00  0.00     0.273 C 
BRANCH  23  24
HETATM   24  N1  UNL     1      22.448   4.609  49.562  1.00  0.00     0.080 N 
HETATM   25  C1  UNL     1      21.585   5.006  50.639  1.00  0.00     0.309 C 
HETATM   26  C2  UNL     1      23.758   4.201  50.022  1.00  0.00     0.309 C 
ENDBRANCH  23  24
ENDBRANCH  22  23
ENDBRANCH  21  22
ENDBRANCH  20  21
ENDBRANCH   1  20
TORSDOF 10
ENDMDL
MODEL 7
REMARK VINA RESULT:      -6.4      2.791      5.545
REMARK  10 active torsions:
REMARK  status: ('A' for Active; 'I' for Inactive)
REMARK    1  A    between atoms: N1_2  and  C3_4 
REMARK    2  A    between atoms: C3_4  and  C4_5 
REMARK    3  A    between atoms: C4_5  and  C5_6 
REMARK    4  A    between atoms: C5_6  and  O1_7 
REMARK    5  A    between atoms: O1_7  and  C6_8 
REMARK    6  A    between atoms: C8_10  and  C9_11 
REMARK    7  A    between atoms: C9_11  and  N2_12 
REMARK    8  A    between atoms: N2_12  and  C10_13 
REMARK    9  A    between atoms: C17_22  and  O2_23 
REMARK   10  A    between atoms: O2_23  and  C18_24 
ROOT
HETATM    1  C6  UNL     1      23.808   0.040  53.383  1.00  0.00     0.102 A 
HETATM    2  C7  UNL     1      23.424   1.236  53.046  1.00  0.00     0.049 A 
HETATM    3  C8  UNL     1      24.273   2.347  52.701  1.00  0.00    -0.019 A 
HETATM    4  C14 UNL     1      25.758   2.197  52.831  1.00  0.00     0.152 A 
HETATM    5  C15 UNL     1      26.406   2.581  51.538  1.00  0.00     0.072 C 
HETATM    6  N3  UNL     1      26.879   2.877  50.550  1.00  0.00    -0.196 NA
HETATM    7  C16 UNL     1      26.074   0.803  53.191  1.00  0.00     0.037 A 
HETATM    8  C17 UNL     1      25.238  -0.213  53.455  1.00  0.00     0.103 A 
ENDROOT
BRANCH   3   9
HETATM    9  C9  UNL     1      24.017   3.509  52.172  1.00  0.00     0.092 C 
BRANCH   9  10
HETATM   10  N2  UNL     1      23.168   3.956  51.134  1.00  0.00    -0.390 N 
HETATM   11  H15 UNL     1      24.048   3.838  50.543  1.00  0.00     0.159 HD
BRANCH  10  12
HETATM   12  C10 UNL     1      22.312   4.407  50.091  1.00  0.00     0.110 A 
HETATM   13  C11 UNL     1      22.883   4.878  48.835  1.00  0.00     0.018 A 
HETATM   14  C12 UNL     1      22.293   3.999  48.106  1.00  0.00     0.012 A 
HETATM   15 CL1  UNL     1      21.991   3.316  46.489  1.00  0.00    -0.089 Cl
HETATM   16  C13 UNL     1      21.699   3.308  49.246  1.00  0.00     0.080 A 
ENDBRANCH  10  12
ENDBRANCH   9  10
ENDBRANCH   3   9
BRANCH   8  17
HETATM   17  O2  UNL     1      26.074  -1.298  53.735  1.00  0.00    -0.319 OA
BRANCH  17  18
HETATM   18  C18 UNL     1      27.162  -1.538  52.810  1.00  0.00     0.398 C 
HETATM   19  F1  UNL     1      26.797  -2.640  52.071  1.00  0.00    -0.227 F 
ENDBRANCH  17  18
ENDBRANCH   8  17
BRANCH   1  20
HETATM   20  O1  UNL     1      23.071  -1.076  53.718  1.00  0.00    -0.348 OA
BRANCH  20  21
HETATM   21  C5  UNL     1      22.042  -0.916  54.639  1.00  0.00     0.177 C 
BRANCH  21  22
HETATM   22  C4  UNL     1      20.691  -1.467  54.183  1.00  0.00     0.057 C 
BRANCH  22  23
HETATM   23  C3  UNL     1      20.005  -0.305  53.500  1.00  0.00     0.273 C 
BRANCH  23  24
HETATM   24  N1  UNL     1      18.909  -0.642  52.673  1.00  0.00     0.080 N 
HETATM   25  C1  UNL     1      17.839  -1.348  53.320  1.00  0.00     0.309 C 
HETATM   26  C2  UNL     1      18.435   0.448  51.847  1.00  0.00     0.309 C 
ENDBRANCH  23  24
ENDBRANCH  22  23
ENDBRANCH  21  22
ENDBRANCH  20  21
ENDBRANCH   1  20
TORSDOF 10
ENDMDL
MODEL 8
REMARK VINA RESULT:      -6.3      4.159      6.091
REMARK  10 active torsions:
REMARK  status: ('A' for Active; 'I' for Inactive)
REMARK    1  A    between atoms: N1_2  and  C3_4 
REMARK    2  A    between atoms: C3_4  and  C4_5 
REMARK    3  A    between atoms: C4_5  and  C5_6 
REMARK    4  A    between atoms: C5_6  and  O1_7 
REMARK    5  A    between atoms: O1_7  and  C6_8 
REMARK    6  A    between atoms: C8_10  and  C9_11 
REMARK    7  A    between atoms: C9_11  and  N2_12 
REMARK    8  A    between atoms: N2_12  and  C10_13 
REMARK    9  A    between atoms: C17_22  and  O2_23 
REMARK   10  A    between atoms: O2_23  and  C18_24 
ROOT
HETATM    1  C6  UNL     1      26.538   3.761  49.628  1.00  0.00     0.102 A 
HETATM    2  C7  UNL     1      27.483   4.406  49.010  1.00  0.00     0.049 A 
HETATM    3  C8  UNL     1      27.458   5.786  48.603  1.00  0.00    -0.019 A 
HETATM    4  C14 UNL     1      26.200   6.579  48.787  1.00  0.00     0.152 A 
HETATM    5  C15 UNL     1      26.516   7.835  49.535  1.00  0.00     0.072 C 
HETATM    6  N3  UNL     1      26.775   8.783  50.103  1.00  0.00    -0.196 NA
HETATM    7  C16 UNL     1      25.215   5.759  49.516  1.00  0.00     0.037 A 
HETATM    8  C17 UNL     1      25.309   4.483  49.919  1.00  0.00     0.103 A 
ENDROOT
BRANCH   3   9
HETATM    9  C9  UNL     1      28.390   6.582  48.162  1.00  0.00     0.092 C 
BRANCH   9  10
HETATM   10  N2  UNL     1      29.738   6.818  48.516  1.00  0.00    -0.390 N 
HETATM   11  H15 UNL     1      29.372   7.796  48.731  1.00  0.00     0.159 HD
BRANCH  10  12
HETATM   12  C10 UNL     1      31.095   7.053  48.871  1.00  0.00     0.110 A 
HETATM   13  C11 UNL     1      31.823   6.061  49.654  1.00  0.00     0.018 A 
HETATM   14  C12 UNL     1      32.731   5.860  48.766  1.00  0.00     0.012 A 
HETATM   15 CL1  UNL     1      34.214   5.008  48.270  1.00  0.00    -0.089 Cl
HETATM   16  C13 UNL     1      32.105   6.739  47.784  1.00  0.00     0.080 A 
ENDBRANCH  10  12
ENDBRANCH   9  10
ENDBRANCH   3   9
BRANCH   8  17
HETATM   17  O2  UNL     1      24.093   4.221  50.556  1.00  0.00    -0.319 OA
BRANCH  17  18
HETATM   18  C18 UNL     1      23.248   3.210  49.955  1.00  0.00     0.398 C 
HETATM   19  F1  UNL     1      23.625   3.133  48.634  1.00  0.00    -0.227 F 
ENDBRANCH  17  18
ENDBRANCH   8  17
BRANCH   1  20
HETATM   20  O1  UNL     1      26.479   2.453  50.060  1.00  0.00    -0.348 OA
BRANCH  20  21
HETATM   21  C5  UNL     1      26.740   2.207  51.404  1.00  0.00     0.177 C 
BRANCH  21  22
HETATM   22  C4  UNL     1      26.047   0.967  51.968  1.00  0.00     0.057 C 
BRANCH  22  23
HETATM   23  C3  UNL     1      27.148   0.171  52.631  1.00  0.00     0.273 C 
BRANCH  23  24
HETATM   24  N1  UNL     1      27.410   0.496  53.983  1.00  0.00     0.080 N 
HETATM   25  C1  UNL     1      26.378   0.138  54.916  1.00  0.00     0.309 C 
HETATM   26  C2  UNL     1      28.728   0.111  54.438  1.00  0.00     0.309 C 
ENDBRANCH  23  24
ENDBRANCH  22  23
ENDBRANCH  21  22
ENDBRANCH  20  21
ENDBRANCH   1  20
TORSDOF 10
ENDMDL
MODEL 9
REMARK VINA RESULT:      -6.3      2.366      5.639
REMARK  10 active torsions:
REMARK  status: ('A' for Active; 'I' for Inactive)
REMARK    1  A    between atoms: N1_2  and  C3_4 
REMARK    2  A    between atoms: C3_4  and  C4_5 
REMARK    3  A    between atoms: C4_5  and  C5_6 
REMARK    4  A    between atoms: C5_6  and  O1_7 
REMARK    5  A    between atoms: O1_7  and  C6_8 
REMARK    6  A    between atoms: C8_10  and  C9_11 
REMARK    7  A    between atoms: C9_11  and  N2_12 
REMARK    8  A    between atoms: N2_12  and  C10_13 
REMARK    9  A    between atoms: C17_22  and  O2_23 
REMARK   10  A    between atoms: O2_23  and  C18_24 
ROOT
HETATM    1  C6  UNL     1      22.261   0.766  51.691  1.00  0.00     0.102 A 
HETATM    2  C7  UNL     1      23.096   1.683  51.299  1.00  0.00     0.049 A 
HETATM    3  C8  UNL     1      24.406   1.942  51.838  1.00  0.00    -0.019 A 
HETATM    4  C14 UNL     1      24.862   1.177  53.043  1.00  0.00     0.152 A 
HETATM    5  C15 UNL     1      26.189   0.551  52.754  1.00  0.00     0.072 C 
HETATM    6  N3  UNL     1      27.196   0.085  52.518  1.00  0.00    -0.196 NA
HETATM    7  C16 UNL     1      23.853   0.156  53.378  1.00  0.00     0.037 A 
HETATM    8  C17 UNL     1      22.661  -0.076  52.806  1.00  0.00     0.103 A 
ENDROOT
BRANCH   3   9
HETATM    9  C9  UNL     1      25.391   2.683  51.418  1.00  0.00     0.092 C 
BRANCH   9  10
HETATM   10  N2  UNL     1      25.609   3.481  50.272  1.00  0.00    -0.390 N 
HETATM   11  H15 UNL     1      24.581   3.727  50.411  1.00  0.00     0.159 HD
BRANCH  10  12
HETATM   12  C10 UNL     1      25.830   4.282  49.118  1.00  0.00     0.110 A 
HETATM   13  C11 UNL     1      25.680   5.730  49.200  1.00  0.00     0.018 A 
HETATM   14  C12 UNL     1      26.892   5.989  48.859  1.00  0.00     0.012 A 
HETATM   15 CL1  UNL     1      28.155   7.200  48.524  1.00  0.00    -0.089 Cl
HETATM   16  C13 UNL     1      27.286   4.585  48.818  1.00  0.00     0.080 A 
ENDBRANCH  10  12
ENDBRANCH   9  10
ENDBRANCH   3   9
BRANCH   8  17
HETATM   17  O2  UNL     1      22.129  -1.154  53.520  1.00  0.00    -0.319 OA
BRANCH  17  18
HETATM   18  C18 UNL     1      22.063  -1.013  54.959  1.00  0.00     0.398 C 
HETATM   19  F1  UNL     1      22.647  -2.145  55.480  1.00  0.00    -0.227 F 
ENDBRANCH  17  18
ENDBRANCH   8  17
BRANCH   1  20
HETATM   20  O1  UNL     1      21.001   0.445  51.230  1.00  0.00    -0.348 OA
BRANCH  20  21
HETATM   21  C5  UNL     1      19.915   1.032  51.869  1.00  0.00     0.177 C 
BRANCH  21  22
HETATM   22  C4  UNL     1      18.630   0.204  51.825  1.00  0.00     0.057 C 
BRANCH  22  23
HETATM   23  C3  UNL     1      18.742  -0.754  52.989  1.00  0.00     0.273 C 
BRANCH  23  24
HETATM   24  N1  UNL     1      17.546  -1.415  53.355  1.00  0.00     0.080 N 
HETATM   25  C1  UNL     1      16.422  -1.184  52.491  1.00  0.00     0.309 C 
HETATM   26  C2  UNL     1      17.720  -2.815  53.677  1.00  0.00     0.309 C 
ENDBRANCH  23  24
ENDBRANCH  22  23
ENDBRANCH  21  22
ENDBRANCH  20  21
ENDBRANCH   1  20
TORSDOF 10
ENDMDL
