MODEL 1
REMARK VINA RESULT:      -8.2      0.000      0.000
REMARK  7 active torsions:
REMARK  status: ('A' for Active; 'I' for Inactive)
REMARK    1  A    between atoms: C2_2  and  N1_3 
REMARK    2  A    between atoms: C2_2  and  N3_10 
REMARK       I    between atoms: N3_10  and  C8_12 
REMARK    3  A    between atoms: C8_12  and  C9_14 
REMARK    4  A    between atoms: C9_14  and  N4_15 
REMARK    5  A    between atoms: N4_15  and  C10_16 
REMARK    6  A    between atoms: C14_21  and  N6_22 
REMARK    7  A    between atoms: C16_24  and  O2_25 
ROOT
HETATM    1  C9  UNL     1      25.854   1.526  52.580  1.00  0.00     0.151 C 
HETATM    2  C15 UNL     1      27.177   0.940  52.345  1.00  0.00     0.071 C 
HETATM    3  C16 UNL     1      28.000   1.647  53.138  1.00  0.00     0.134 C 
HETATM    4  N7  UNL     1      27.334   2.669  53.898  1.00  0.00    -0.368 N 
HETATM    5  C17 UNL     1      25.952   2.261  53.898  1.00  0.00     0.167 C 
HETATM    6  H23 UNL     1      27.842   3.485  54.314  1.00  0.00     0.161 HD
ENDROOT
BRANCH   1   7
HETATM    7  C8  UNL     1      25.553   2.493  51.473  1.00  0.00     0.259 C 
HETATM    8  N3  UNL     1      24.334   2.464  50.805  1.00  0.00    -0.309 N 
HETATM    9  C7  UNL     1      23.006   1.968  50.525  1.00  0.00     0.160 C 
HETATM   10  O1  UNL     1      26.312   3.398  51.033  1.00  0.00    -0.270 OA
BRANCH   8  11
HETATM   11  C2  UNL     1      24.854   3.569  50.034  1.00  0.00     0.084 C 
HETATM   12  C1  UNL     1      25.948   3.670  49.302  1.00  0.00     0.084 C 
BRANCH  11  13
HETATM   13  N1  UNL     1      24.099   4.774  50.024  1.00  0.00    -0.359 N 
HETATM   14  C3  UNL     1      23.892   5.661  51.136  1.00  0.00     0.140 C 
HETATM   15  C4  UNL     1      23.734   7.097  50.769  1.00  0.00     0.122 C 
HETATM   16  N2  UNL     1      24.652   7.605  49.806  1.00  0.00    -0.260 NA
HETATM   17  C5  UNL     1      26.027   7.581  50.161  1.00  0.00     0.124 C 
HETATM   18  S1  UNL     1      24.311   6.737  48.287  1.00  0.00    -0.063 SA
HETATM   19  C6  UNL     1      23.445   5.218  48.809  1.00  0.00     0.215 C 
ENDBRANCH  11  13
ENDBRANCH   8  11
ENDBRANCH   1   7
BRANCH   1  20
HETATM   20  N4  UNL     1      24.849   0.519  52.702  1.00  0.00    -0.366 N 
HETATM   21  H15 UNL     1      24.761   0.086  51.732  1.00  0.00     0.161 HD
BRANCH  20  22
HETATM   22  C10 UNL     1      23.944  -0.120  53.547  1.00  0.00     0.053 A 
HETATM   23  C11 UNL     1      22.572  -0.130  53.378  1.00  0.00     0.050 A 
HETATM   24  C12 UNL     1      21.748  -0.792  54.241  1.00  0.00     0.118 A 
HETATM   25  N5  UNL     1      22.226  -1.457  55.281  1.00  0.00    -0.271 NA
HETATM   26  C13 UNL     1      23.534  -1.514  55.540  1.00  0.00     0.141 A 
HETATM   27  C14 UNL     1      24.336  -0.837  54.651  1.00  0.00     0.050 A 
BRANCH  27  28
HETATM   28  N6  UNL     1      25.686  -0.997  55.045  1.00  0.00    -0.300 NA
HETATM   29  H19 UNL     1      26.585  -0.539  55.299  1.00  0.00     0.124 HD
HETATM   30  H20 UNL     1      26.666  -0.957  55.329  1.00  0.00     0.124 HD
ENDBRANCH  27  28
ENDBRANCH  20  22
ENDBRANCH   1  20
BRANCH   3  31
HETATM   31  O2  UNL     1      29.387   1.417  53.224  1.00  0.00    -0.346 OA
HETATM   32  H22 UNL     1      29.680   0.452  53.174  1.00  0.00     0.219 HD
ENDBRANCH   3  31
TORSDOF 7
ENDMDL
MODEL 2
REMARK VINA RESULT:      -8.1      1.466      2.269
REMARK  7 active torsions:
REMARK  status: ('A' for Active; 'I' for Inactive)
REMARK    1  A    between atoms: C2_2  and  N1_3 
REMARK    2  A    between atoms: C2_2  and  N3_10 
REMARK       I    between atoms: N3_10  and  C8_12 
REMARK    3  A    between atoms: C8_12  and  C9_14 
REMARK    4  A    between atoms: C9_14  and  N4_15 
REMARK    5  A    between atoms: N4_15  and  C10_16 
REMARK    6  A    between atoms: C14_21  and  N6_22 
REMARK    7  A    between atoms: C16_24  and  O2_25 
ROOT
HETATM    1  C9  UNL     1      25.878   1.532  52.616  1.00  0.00     0.151 C 
HETATM    2  C15 UNL     1      27.211   1.002  52.314  1.00  0.00     0.071 C 
HETATM    3  C16 UNL     1      28.038   1.711  53.100  1.00  0.00     0.134 C 
HETATM    4  N7  UNL     1      27.365   2.683  53.918  1.00  0.00    -0.368 N 
HETATM    5  C17 UNL     1      25.999   2.227  53.953  1.00  0.00     0.167 C 
HETATM    6  H23 UNL     1      27.860   3.504  54.343  1.00  0.00     0.161 HD
ENDROOT
BRANCH   1   7
HETATM    7  C8  UNL     1      25.503   2.524  51.554  1.00  0.00     0.259 C 
HETATM    8  N3  UNL     1      24.485   3.448  51.760  1.00  0.00    -0.309 N 
HETATM    9  C7  UNL     1      23.434   4.091  52.516  1.00  0.00     0.160 C 
HETATM   10  O1  UNL     1      26.024   2.643  50.412  1.00  0.00    -0.270 OA
BRANCH   8  11
HETATM   11  C2  UNL     1      24.780   3.910  50.424  1.00  0.00     0.084 C 
HETATM   12  C1  UNL     1      25.867   4.471  49.927  1.00  0.00     0.084 C 
BRANCH  11  13
HETATM   13  N1  UNL     1      23.767   3.755  49.439  1.00  0.00    -0.359 N 
HETATM   14  C3  UNL     1      22.982   2.575  49.199  1.00  0.00     0.140 C 
HETATM   15  C4  UNL     1      21.603   2.833  48.696  1.00  0.00     0.122 C 
HETATM   16  N2  UNL     1      20.879   3.869  49.351  1.00  0.00    -0.260 NA
HETATM   17  C5  UNL     1      20.617   3.687  50.736  1.00  0.00     0.124 C 
HETATM   18  S1  UNL     1      21.749   5.384  49.003  1.00  0.00    -0.063 SA
HETATM   19  C6  UNL     1      23.435   4.853  48.551  1.00  0.00     0.215 C 
ENDBRANCH  11  13
ENDBRANCH   8  11
ENDBRANCH   1   7
BRANCH   1  20
HETATM   20  N4  UNL     1      24.914   0.487  52.739  1.00  0.00    -0.366 N 
HETATM   21  H15 UNL     1      25.069  -0.145  51.895  1.00  0.00     0.161 HD
BRANCH  20  22
HETATM   22  C10 UNL     1      23.865  -0.041  53.490  1.00  0.00     0.053 A 
HETATM   23  C11 UNL     1      22.523   0.134  53.209  1.00  0.00     0.050 A 
HETATM   24  C12 UNL     1      21.550  -0.428  53.984  1.00  0.00     0.118 A 
HETATM   25  N5  UNL     1      21.848  -1.168  55.041  1.00  0.00    -0.271 NA
HETATM   26  C13 UNL     1      23.110  -1.403  55.403  1.00  0.00     0.141 A 
HETATM   27  C14 UNL     1      24.066  -0.823  54.601  1.00  0.00     0.050 A 
BRANCH  27  28
HETATM   28  N6  UNL     1      25.346  -1.167  55.099  1.00  0.00    -0.300 NA
HETATM   29  H19 UNL     1      26.309  -1.495  54.885  1.00  0.00     0.124 HD
HETATM   30  H20 UNL     1      26.305  -1.445  55.309  1.00  0.00     0.124 HD
ENDBRANCH  27  28
ENDBRANCH  20  22
ENDBRANCH   1  20
BRANCH   3  31
HETATM   31  O2  UNL     1      29.434   1.528  53.129  1.00  0.00    -0.346 OA
HETATM   32  H22 UNL     1      29.830   1.286  54.025  1.00  0.00     0.219 HD
ENDBRANCH   3  31
TORSDOF 7
ENDMDL
MODEL 3
REMARK VINA RESULT:      -7.5      2.795      4.460
REMARK  7 active torsions:
REMARK  status: ('A' for Active; 'I' for Inactive)
REMARK    1  A    between atoms: C2_2  and  N1_3 
REMARK    2  A    between atoms: C2_2  and  N3_10 
REMARK       I    between atoms: N3_10  and  C8_12 
REMARK    3  A    between atoms: C8_12  and  C9_14 
REMARK    4  A    between atoms: C9_14  and  N4_15 
REMARK    5  A    between atoms: N4_15  and  C10_16 
REMARK    6  A    between atoms: C14_21  and  N6_22 
REMARK    7  A    between atoms: C16_24  and  O2_25 
ROOT
HETATM    1  C9  UNL     1      24.275   2.278  51.836  1.00  0.00     0.151 C 
HETATM    2  C15 UNL     1      25.278   2.792  50.900  1.00  0.00     0.071 C 
HETATM    3  C16 UNL     1      25.165   4.128  50.990  1.00  0.00     0.134 C 
HETATM    4  N7  UNL     1      24.160   4.560  51.923  1.00  0.00    -0.368 N 
HETATM    5  C17 UNL     1      23.959   3.419  52.778  1.00  0.00     0.167 C 
HETATM    6  H23 UNL     1      23.736   5.519  51.892  1.00  0.00     0.161 HD
ENDROOT
BRANCH   1   7
HETATM    7  C8  UNL     1      23.047   1.895  51.064  1.00  0.00     0.259 C 
HETATM    8  N3  UNL     1      22.210   0.875  51.502  1.00  0.00    -0.309 N 
HETATM    9  C7  UNL     1      21.785  -0.175  52.400  1.00  0.00     0.160 C 
HETATM   10  O1  UNL     1      22.638   2.412  49.989  1.00  0.00    -0.270 OA
BRANCH   8  11
HETATM   11  C2  UNL     1      21.422   1.164  50.327  1.00  0.00     0.084 C 
HETATM   12  C1  UNL     1      21.634   0.879  49.056  1.00  0.00     0.084 C 
BRANCH  11  13
HETATM   13  N1  UNL     1      20.201   1.868  50.514  1.00  0.00    -0.359 N 
HETATM   14  C3  UNL     1      19.775   2.535  51.714  1.00  0.00     0.140 C 
HETATM   15  C4  UNL     1      18.912   3.730  51.491  1.00  0.00     0.122 C 
HETATM   16  N2  UNL     1      19.330   4.625  50.465  1.00  0.00    -0.260 NA
HETATM   17  C5  UNL     1      20.594   5.250  50.640  1.00  0.00     0.124 C 
HETATM   18  S1  UNL     1      19.208   3.721  48.934  1.00  0.00    -0.063 SA
HETATM   19  C6  UNL     1      19.240   1.966  49.433  1.00  0.00     0.215 C 
ENDBRANCH  11  13
ENDBRANCH   8  11
ENDBRANCH   1   7
BRANCH   1  20
HETATM   20  N4  UNL     1      24.785   1.190  52.606  1.00  0.00    -0.366 N 
HETATM   21  H15 UNL     1      23.954   0.819  53.162  1.00  0.00     0.161 HD
BRANCH  20  22
HETATM   22  C10 UNL     1      25.903   0.423  52.933  1.00  0.00     0.053 A 
HETATM   23  C11 UNL     1      26.059  -0.917  52.634  1.00  0.00     0.050 A 
HETATM   24  C12 UNL     1      27.191  -1.600  52.974  1.00  0.00     0.118 A 
HETATM   25  N5  UNL     1      28.192  -1.009  53.607  1.00  0.00    -0.271 NA
HETATM   26  C13 UNL     1      28.148   0.282  53.944  1.00  0.00     0.141 A 
HETATM   27  C14 UNL     1      26.994   0.940  53.587  1.00  0.00     0.050 A 
BRANCH  27  28
HETATM   28  N6  UNL     1      27.097   2.291  53.997  1.00  0.00    -0.300 NA
HETATM   29  H19 UNL     1      26.982   2.985  54.763  1.00  0.00     0.124 HD
HETATM   30  H20 UNL     1      27.121   3.215  54.431  1.00  0.00     0.124 HD
ENDBRANCH  27  28
ENDBRANCH  20  22
ENDBRANCH   1  20
BRANCH   3  31
HETATM   31  O2  UNL     1      25.951   5.029  50.246  1.00  0.00    -0.346 OA
HETATM   32  H22 UNL     1      25.859   4.974  49.243  1.00  0.00     0.219 HD
ENDBRANCH   3  31
TORSDOF 7
ENDMDL
MODEL 4
REMARK VINA RESULT:      -7.3      2.598      4.161
REMARK  7 active torsions:
REMARK  status: ('A' for Active; 'I' for Inactive)
REMARK    1  A    between atoms: C2_2  and  N1_3 
REMARK    2  A    between atoms: C2_2  and  N3_10 
REMARK       I    between atoms: N3_10  and  C8_12 
REMARK    3  A    between atoms: C8_12  and  C9_14 
REMARK    4  A    between atoms: C9_14  and  N4_15 
REMARK    5  A    between atoms: N4_15  and  C10_16 
REMARK    6  A    between atoms: C14_21  and  N6_22 
REMARK    7  A    between atoms: C16_24  and  O2_25 
ROOT
HETATM    1  C9  UNL     1      24.530   2.771  50.991  1.00  0.00     0.151 C 
HETATM    2  C15 UNL     1      25.457   3.519  50.138  1.00  0.00     0.071 C 
HETATM    3  C16 UNL     1      25.258   4.804  50.475  1.00  0.00     0.134 C 
HETATM    4  N7  UNL     1      24.265   4.985  51.499  1.00  0.00    -0.368 N 
HETATM    5  C17 UNL     1      24.177   3.695  52.134  1.00  0.00     0.167 C 
HETATM    6  H23 UNL     1      23.777   5.900  51.657  1.00  0.00     0.161 HD
ENDROOT
BRANCH   1   7
HETATM    7  C8  UNL     1      23.299   2.445  50.195  1.00  0.00     0.259 C 
HETATM    8  N3  UNL     1      22.385   1.498  50.641  1.00  0.00    -0.309 N 
HETATM    9  C7  UNL     1      21.867   0.508  51.558  1.00  0.00     0.160 C 
HETATM   10  O1  UNL     1      22.956   2.953  49.094  1.00  0.00    -0.270 OA
BRANCH   8  11
HETATM   11  C2  UNL     1      21.649   1.800  49.435  1.00  0.00     0.084 C 
HETATM   12  C1  UNL     1      21.896   1.491  48.175  1.00  0.00     0.084 C 
BRANCH  11  13
HETATM   13  N1  UNL     1      20.450   2.551  49.570  1.00  0.00    -0.359 N 
HETATM   14  C3  UNL     1      19.904   3.076  50.792  1.00  0.00     0.140 C 
HETATM   15  C4  UNL     1      19.137   4.345  50.638  1.00  0.00     0.122 C 
HETATM   16  N2  UNL     1      19.727   5.341  49.809  1.00  0.00    -0.260 NA
HETATM   17  C5  UNL     1      20.986   5.852  50.224  1.00  0.00     0.124 C 
HETATM   18  S1  UNL     1      19.761   4.662  48.162  1.00  0.00    -0.063 SA
HETATM   19  C6  UNL     1      19.643   2.858  48.405  1.00  0.00     0.215 C 
ENDBRANCH  11  13
ENDBRANCH   8  11
ENDBRANCH   1   7
BRANCH   1  20
HETATM   20  N4  UNL     1      25.143   1.602  51.533  1.00  0.00    -0.366 N 
HETATM   21  H15 UNL     1      25.203   0.910  50.724  1.00  0.00     0.161 HD
BRANCH  20  22
HETATM   22  C10 UNL     1      25.685   0.994  52.665  1.00  0.00     0.053 A 
HETATM   23  C11 UNL     1      25.080  -0.018  53.387  1.00  0.00     0.050 A 
HETATM   24  C12 UNL     1      25.679  -0.576  54.478  1.00  0.00     0.118 A 
HETATM   25  N5  UNL     1      26.869  -0.173  54.896  1.00  0.00    -0.271 NA
HETATM   26  C13 UNL     1      27.543   0.796  54.274  1.00  0.00     0.141 A 
HETATM   27  C14 UNL     1      26.911   1.337  53.178  1.00  0.00     0.050 A 
BRANCH  27  28
HETATM   28  N6  UNL     1      27.745   2.336  52.621  1.00  0.00    -0.300 NA
HETATM   29  H19 UNL     1      27.810   3.217  52.073  1.00  0.00     0.124 HD
HETATM   30  H20 UNL     1      28.215   3.120  52.167  1.00  0.00     0.124 HD
ENDBRANCH  27  28
ENDBRANCH  20  22
ENDBRANCH   1  20
BRANCH   3  31
HETATM   31  O2  UNL     1      25.951   5.881  49.889  1.00  0.00    -0.346 OA
HETATM   32  H22 UNL     1      26.957   5.808  49.880  1.00  0.00     0.219 HD
ENDBRANCH   3  31
TORSDOF 7
ENDMDL
MODEL 5
REMARK VINA RESULT:      -7.2      3.154      6.006
REMARK  7 active torsions:
REMARK  status: ('A' for Active; 'I' for Inactive)
REMARK    1  A    between atoms: C2_2  and  N1_3 
REMARK    2  A    between atoms: C2_2  and  N3_10 
REMARK       I    between atoms: N3_10  and  C8_12 
REMARK    3  A    between atoms: C8_12  and  C9_14 
REMARK    4  A    between atoms: C9_14  and  N4_15 
REMARK    5  A    between atoms: N4_15  and  C10_16 
REMARK    6  A    between atoms: C14_21  and  N6_22 
REMARK    7  A    between atoms: C16_24  and  O2_25 
ROOT
HETATM    1  C9  UNL     1      24.816   2.561  52.623  1.00  0.00     0.151 C 
HETATM    2  C15 UNL     1      25.490   2.332  53.903  1.00  0.00     0.071 C 
HETATM    3  C16 UNL     1      26.488   1.482  53.608  1.00  0.00     0.134 C 
HETATM    4  N7  UNL     1      26.544   1.119  52.218  1.00  0.00    -0.368 N 
HETATM    5  C17 UNL     1      25.806   2.162  51.553  1.00  0.00     0.167 C 
HETATM    6  H23 UNL     1      27.042   0.261  51.879  1.00  0.00     0.161 HD
ENDROOT
BRANCH   1   7
HETATM    7  C8  UNL     1      23.603   1.679  52.554  1.00  0.00     0.259 C 
HETATM    8  N3  UNL     1      22.897   1.519  51.366  1.00  0.00    -0.309 N 
HETATM    9  C7  UNL     1      22.623   1.745  49.965  1.00  0.00     0.160 C 
HETATM   10  O1  UNL     1      23.097   1.014  53.497  1.00  0.00    -0.270 OA
BRANCH   8  11
HETATM   11  C2  UNL     1      22.033   0.644  52.124  1.00  0.00     0.084 C 
HETATM   12  C1  UNL     1      22.259  -0.545  52.652  1.00  0.00     0.084 C 
BRANCH  11  13
HETATM   13  N1  UNL     1      20.707   1.091  52.377  1.00  0.00    -0.359 N 
HETATM   14  C3  UNL     1      20.213   2.432  52.220  1.00  0.00     0.140 C 
HETATM   15  C4  UNL     1      18.776   2.527  51.838  1.00  0.00     0.122 C 
HETATM   16  N2  UNL     1      18.336   1.640  50.815  1.00  0.00    -0.260 NA
HETATM   17  C5  UNL     1      18.949   1.782  49.541  1.00  0.00     0.124 C 
HETATM   18  S1  UNL     1      18.491  -0.006  51.480  1.00  0.00    -0.063 SA
HETATM   19  C6  UNL     1      19.697   0.160  52.840  1.00  0.00     0.215 C 
ENDBRANCH  11  13
ENDBRANCH   8  11
ENDBRANCH   1   7
BRANCH   1  20
HETATM   20  N4  UNL     1      24.489   3.938  52.441  1.00  0.00    -0.366 N 
HETATM   21  H15 UNL     1      25.024   4.461  53.201  1.00  0.00     0.161 HD
BRANCH  20  22
HETATM   22  C10 UNL     1      23.770   4.871  51.697  1.00  0.00     0.053 A 
HETATM   23  C11 UNL     1      22.428   5.159  51.870  1.00  0.00     0.050 A 
HETATM   24  C12 UNL     1      21.793   6.098  51.111  1.00  0.00     0.118 A 
HETATM   25  N5  UNL     1      22.433   6.779  50.173  1.00  0.00    -0.271 NA
HETATM   26  C13 UNL     1      23.729   6.583  49.922  1.00  0.00     0.141 A 
HETATM   27  C14 UNL     1      24.339   5.630  50.703  1.00  0.00     0.050 A 
BRANCH  27  28
HETATM   28  N6  UNL     1      25.702   5.542  50.332  1.00  0.00    -0.300 NA
HETATM   29  H19 UNL     1      26.401   5.535  49.562  1.00  0.00     0.124 HD
HETATM   30  H20 UNL     1      26.634   5.493  49.917  1.00  0.00     0.124 HD
ENDBRANCH  27  28
ENDBRANCH  20  22
ENDBRANCH   1  20
BRANCH   3  31
HETATM   31  O2  UNL     1      27.400   0.988  54.561  1.00  0.00    -0.346 OA
HETATM   32  H22 UNL     1      27.053   0.263  55.171  1.00  0.00     0.219 HD
ENDBRANCH   3  31
TORSDOF 7
ENDMDL
MODEL 6
REMARK VINA RESULT:      -7.2      3.192      5.303
REMARK  7 active torsions:
REMARK  status: ('A' for Active; 'I' for Inactive)
REMARK    1  A    between atoms: C2_2  and  N1_3 
REMARK    2  A    between atoms: C2_2  and  N3_10 
REMARK       I    between atoms: N3_10  and  C8_12 
REMARK    3  A    between atoms: C8_12  and  C9_14 
REMARK    4  A    between atoms: C9_14  and  N4_15 
REMARK    5  A    between atoms: N4_15  and  C10_16 
REMARK    6  A    between atoms: C14_21  and  N6_22 
REMARK    7  A    between atoms: C16_24  and  O2_25 
ROOT
HETATM    1  C9  UNL     1      23.781   4.014  51.108  1.00  0.00     0.151 C 
HETATM    2  C15 UNL     1      24.662   5.001  50.479  1.00  0.00     0.071 C 
HETATM    3  C16 UNL     1      24.568   6.084  51.269  1.00  0.00     0.134 C 
HETATM    4  N7  UNL     1      23.690   5.903  52.393  1.00  0.00    -0.368 N 
HETATM    5  C17 UNL     1      23.591   4.473  52.536  1.00  0.00     0.167 C 
HETATM    6  H23 UNL     1      23.271   6.709  52.917  1.00  0.00     0.161 HD
ENDROOT
BRANCH   1   7
HETATM    7  C8  UNL     1      22.463   4.017  50.389  1.00  0.00     0.259 C 
HETATM    8  N3  UNL     1      22.322   3.414  49.143  1.00  0.00    -0.309 N 
HETATM    9  C7  UNL     1      22.780   2.686  47.982  1.00  0.00     0.160 C 
HETATM   10  O1  UNL     1      21.384   4.530  50.790  1.00  0.00    -0.270 OA
BRANCH   8  11
HETATM   11  C2  UNL     1      20.944   3.842  49.214  1.00  0.00     0.084 C 
HETATM   12  C1  UNL     1      20.401   5.030  49.028  1.00  0.00     0.084 C 
BRANCH  11  13
HETATM   13  N1  UNL     1      19.968   2.857  49.529  1.00  0.00    -0.359 N 
HETATM   14  C3  UNL     1      20.199   1.449  49.698  1.00  0.00     0.140 C 
HETATM   15  C4  UNL     1      19.292   0.779  50.672  1.00  0.00     0.122 C 
HETATM   16  N2  UNL     1      19.069   1.466  51.899  1.00  0.00    -0.260 NA
HETATM   17  C5  UNL     1      20.206   1.689  52.721  1.00  0.00     0.124 C 
HETATM   18  S1  UNL     1      18.209   2.970  51.481  1.00  0.00    -0.063 SA
HETATM   19  C6  UNL     1      18.581   3.236  49.714  1.00  0.00     0.215 C 
ENDBRANCH  11  13
ENDBRANCH   8  11
ENDBRANCH   1   7
BRANCH   1  20
HETATM   20  N4  UNL     1      24.377   2.717  51.130  1.00  0.00    -0.366 N 
HETATM   21  H15 UNL     1      24.186   2.299  50.167  1.00  0.00     0.161 HD
BRANCH  20  22
HETATM   22  C10 UNL     1      25.092   1.781  51.875  1.00  0.00     0.053 A 
HETATM   23  C11 UNL     1      24.541   0.673  52.493  1.00  0.00     0.050 A 
HETATM   24  C12 UNL     1      25.308  -0.209  53.196  1.00  0.00     0.118 A 
HETATM   25  N5  UNL     1      26.616  -0.046  53.318  1.00  0.00    -0.271 NA
HETATM   26  C13 UNL     1      27.252   0.987  52.762  1.00  0.00     0.141 A 
HETATM   27  C14 UNL     1      26.450   1.858  52.061  1.00  0.00     0.050 A 
BRANCH  27  28
HETATM   28  N6  UNL     1      27.260   2.888  51.524  1.00  0.00    -0.300 NA
HETATM   29  H19 UNL     1      27.421   3.909  51.417  1.00  0.00     0.124 HD
HETATM   30  H20 UNL     1      27.742   3.728  51.203  1.00  0.00     0.124 HD
ENDBRANCH  27  28
ENDBRANCH  20  22
ENDBRANCH   1  20
BRANCH   3  31
HETATM   31  O2  UNL     1      25.260   7.287  51.030  1.00  0.00    -0.346 OA
HETATM   32  H22 UNL     1      25.292   7.596  50.070  1.00  0.00     0.219 HD
ENDBRANCH   3  31
TORSDOF 7
ENDMDL
MODEL 7
REMARK VINA RESULT:      -7.1      3.031      5.556
REMARK  7 active torsions:
REMARK  status: ('A' for Active; 'I' for Inactive)
REMARK    1  A    between atoms: C2_2  and  N1_3 
REMARK    2  A    between atoms: C2_2  and  N3_10 
REMARK       I    between atoms: N3_10  and  C8_12 
REMARK    3  A    between atoms: C8_12  and  C9_14 
REMARK    4  A    between atoms: C9_14  and  N4_15 
REMARK    5  A    between atoms: N4_15  and  C10_16 
REMARK    6  A    between atoms: C14_21  and  N6_22 
REMARK    7  A    between atoms: C16_24  and  O2_25 
ROOT
HETATM    1  C9  UNL     1      24.191   2.326  52.590  1.00  0.00     0.151 C 
HETATM    2  C15 UNL     1      24.644   2.186  51.204  1.00  0.00     0.071 C 
HETATM    3  C16 UNL     1      24.406   3.387  50.652  1.00  0.00     0.134 C 
HETATM    4  N7  UNL     1      23.826   4.336  51.562  1.00  0.00    -0.368 N 
HETATM    5  C17 UNL     1      24.145   3.813  52.865  1.00  0.00     0.167 C 
HETATM    6  H23 UNL     1      23.308   5.187  51.236  1.00  0.00     0.161 HD
ENDROOT
BRANCH   1   7
HETATM    7  C8  UNL     1      22.814   1.740  52.709  1.00  0.00     0.259 C 
HETATM    8  N3  UNL     1      22.626   0.371  52.865  1.00  0.00    -0.309 N 
HETATM    9  C7  UNL     1      23.056  -1.003  52.996  1.00  0.00     0.160 C 
HETATM   10  O1  UNL     1      21.721   2.367  52.684  1.00  0.00    -0.270 OA
BRANCH   8  11
HETATM   11  C2  UNL     1      21.215   0.677  52.887  1.00  0.00     0.084 C 
HETATM   12  C1  UNL     1      20.469   1.232  53.824  1.00  0.00     0.084 C 
BRANCH  11  13
HETATM   13  N1  UNL     1      20.455   0.349  51.731  1.00  0.00    -0.359 N 
HETATM   14  C3  UNL     1      19.064  -0.009  51.696  1.00  0.00     0.140 C 
HETATM   15  C4  UNL     1      18.347   0.390  50.452  1.00  0.00     0.122 C 
HETATM   16  N2  UNL     1      18.603   1.706  49.972  1.00  0.00    -0.260 NA
HETATM   17  C5  UNL     1      18.242   2.779  50.831  1.00  0.00     0.124 C 
HETATM   18  S1  UNL     1      20.322   1.740  49.503  1.00  0.00    -0.063 SA
HETATM   19  C6  UNL     1      21.077   0.356  50.421  1.00  0.00     0.215 C 
ENDBRANCH  11  13
ENDBRANCH   8  11
ENDBRANCH   1   7
BRANCH   1  20
HETATM   20  N4  UNL     1      25.109   1.729  53.506  1.00  0.00    -0.366 N 
HETATM   21  H15 UNL     1      24.505   1.237  54.234  1.00  0.00     0.161 HD
BRANCH  20  22
HETATM   22  C10 UNL     1      26.446   1.527  53.842  1.00  0.00     0.053 A 
HETATM   23  C11 UNL     1      27.487   2.367  53.488  1.00  0.00     0.050 A 
HETATM   24  C12 UNL     1      28.773   2.111  53.867  1.00  0.00     0.118 A 
HETATM   25  N5  UNL     1      29.083   1.047  54.592  1.00  0.00    -0.271 NA
HETATM   26  C13 UNL     1      28.157   0.172  54.989  1.00  0.00     0.141 A 
HETATM   27  C14 UNL     1      26.873   0.458  54.590  1.00  0.00     0.050 A 
BRANCH  27  28
HETATM   28  N6  UNL     1      26.008  -0.544  55.091  1.00  0.00    -0.300 NA
HETATM   29  H19 UNL     1      25.153  -1.118  54.944  1.00  0.00     0.124 HD
HETATM   30  H20 UNL     1      25.303  -1.246  55.322  1.00  0.00     0.124 HD
ENDBRANCH  27  28
ENDBRANCH  20  22
ENDBRANCH   1  20
BRANCH   3  31
HETATM   31  O2  UNL     1      24.693   3.698  49.308  1.00  0.00    -0.346 OA
HETATM   32  H22 UNL     1      25.481   4.308  49.154  1.00  0.00     0.219 HD
ENDBRANCH   3  31
TORSDOF 7
ENDMDL
MODEL 8
REMARK VINA RESULT:      -7.1      1.685      2.364
REMARK  7 active torsions:
REMARK  status: ('A' for Active; 'I' for Inactive)
REMARK    1  A    between atoms: C2_2  and  N1_3 
REMARK    2  A    between atoms: C2_2  and  N3_10 
REMARK       I    between atoms: N3_10  and  C8_12 
REMARK    3  A    between atoms: C8_12  and  C9_14 
REMARK    4  A    between atoms: C9_14  and  N4_15 
REMARK    5  A    between atoms: N4_15  and  C10_16 
REMARK    6  A    between atoms: C14_21  and  N6_22 
REMARK    7  A    between atoms: C16_24  and  O2_25 
ROOT
HETATM    1  C9  UNL     1      25.530   1.607  52.594  1.00  0.00     0.151 C 
HETATM    2  C15 UNL     1      26.869   1.217  52.143  1.00  0.00     0.071 C 
HETATM    3  C16 UNL     1      27.703   1.923  52.924  1.00  0.00     0.134 C 
HETATM    4  N7  UNL     1      27.030   2.763  53.876  1.00  0.00    -0.368 N 
HETATM    5  C17 UNL     1      25.711   2.194  53.976  1.00  0.00     0.167 C 
HETATM    6  H23 UNL     1      27.496   3.583  54.335  1.00  0.00     0.161 HD
ENDROOT
BRANCH   1   7
HETATM    7  C8  UNL     1      24.993   2.650  51.659  1.00  0.00     0.259 C 
HETATM    8  N3  UNL     1      24.194   3.690  52.124  1.00  0.00    -0.309 N 
HETATM    9  C7  UNL     1      23.485   4.447  53.131  1.00  0.00     0.160 C 
HETATM   10  O1  UNL     1      25.181   2.719  50.415  1.00  0.00    -0.270 OA
BRANCH   8  11
HETATM   11  C2  UNL     1      24.153   4.128  50.748  1.00  0.00     0.084 C 
HETATM   12  C1  UNL     1      25.127   4.443  49.915  1.00  0.00     0.084 C 
BRANCH  11  13
HETATM   13  N1  UNL     1      22.874   4.256  50.140  1.00  0.00    -0.359 N 
HETATM   14  C3  UNL     1      22.073   5.448  50.078  1.00  0.00     0.140 C 
HETATM   15  C4  UNL     1      21.212   5.560  48.867  1.00  0.00     0.122 C 
HETATM   16  N2  UNL     1      21.826   5.228  47.626  1.00  0.00    -0.260 NA
HETATM   17  C5  UNL     1      22.932   6.025  47.228  1.00  0.00     0.124 C 
HETATM   18  S1  UNL     1      22.216   3.491  47.711  1.00  0.00    -0.063 SA
HETATM   19  C6  UNL     1      22.253   3.115  49.496  1.00  0.00     0.215 C 
ENDBRANCH  11  13
ENDBRANCH   8  11
ENDBRANCH   1   7
BRANCH   1  20
HETATM   20  N4  UNL     1      24.662   0.479  52.697  1.00  0.00    -0.366 N 
HETATM   21  H15 UNL     1      24.818  -0.083  51.804  1.00  0.00     0.161 HD
BRANCH  20  22
HETATM   22  C10 UNL     1      23.704  -0.182  53.464  1.00  0.00     0.053 A 
HETATM   23  C11 UNL     1      23.963  -0.861  54.641  1.00  0.00     0.050 A 
HETATM   24  C12 UNL     1      22.970  -1.474  55.347  1.00  0.00     0.118 A 
HETATM   25  N5  UNL     1      21.710  -1.446  54.938  1.00  0.00    -0.271 NA
HETATM   26  C13 UNL     1      21.348  -0.819  53.817  1.00  0.00     0.141 A 
HETATM   27  C14 UNL     1      22.373  -0.212  53.129  1.00  0.00     0.050 A 
BRANCH  27  28
HETATM   28  N6  UNL     1      21.838   0.416  51.979  1.00  0.00    -0.300 NA
HETATM   29  H19 UNL     1      22.015   1.006  51.141  1.00  0.00     0.124 HD
HETATM   30  H20 UNL     1      21.597   0.920  51.125  1.00  0.00     0.124 HD
ENDBRANCH  27  28
ENDBRANCH  20  22
ENDBRANCH   1  20
BRANCH   3  31
HETATM   31  O2  UNL     1      29.107   1.854  52.828  1.00  0.00    -0.346 OA
HETATM   32  H22 UNL     1      29.510   2.205  51.972  1.00  0.00     0.219 HD
ENDBRANCH   3  31
TORSDOF 7
ENDMDL
MODEL 9
REMARK VINA RESULT:      -7.1      1.636      2.426
REMARK  7 active torsions:
REMARK  status: ('A' for Active; 'I' for Inactive)
REMARK    1  A    between atoms: C2_2  and  N1_3 
REMARK    2  A    between atoms: C2_2  and  N3_10 
REMARK       I    between atoms: N3_10  and  C8_12 
REMARK    3  A    between atoms: C8_12  and  C9_14 
REMARK    4  A    between atoms: C9_14  and  N4_15 
REMARK    5  A    between atoms: N4_15  and  C10_16 
REMARK    6  A    between atoms: C14_21  and  N6_22 
REMARK    7  A    between atoms: C16_24  and  O2_25 
ROOT
HETATM    1  C9  UNL     1      24.961   1.728  52.245  1.00  0.00     0.151 C 
HETATM    2  C15 UNL     1      26.274   1.173  51.904  1.00  0.00     0.071 C 
HETATM    3  C16 UNL     1      27.126   1.796  52.735  1.00  0.00     0.134 C 
HETATM    4  N7  UNL     1      26.488   2.733  53.619  1.00  0.00    -0.368 N 
HETATM    5  C17 UNL     1      25.107   2.325  53.627  1.00  0.00     0.167 C 
HETATM    6  H23 UNL     1      27.013   3.504  54.098  1.00  0.00     0.161 HD
ENDROOT
BRANCH   1   7
HETATM    7  C8  UNL     1      24.622   2.803  51.255  1.00  0.00     0.259 C 
HETATM    8  N3  UNL     1      23.502   3.611  51.425  1.00  0.00    -0.309 N 
HETATM    9  C7  UNL     1      22.312   4.073  52.103  1.00  0.00     0.160 C 
HETATM   10  O1  UNL     1      25.262   3.097  50.209  1.00  0.00    -0.270 OA
BRANCH   8  11
HETATM   11  C2  UNL     1      23.909   4.248  50.194  1.00  0.00     0.084 C 
HETATM   12  C1  UNL     1      23.736   3.884  48.938  1.00  0.00     0.084 C 
BRANCH  11  13
HETATM   13  N1  UNL     1      24.616   5.478  50.296  1.00  0.00    -0.359 N 
HETATM   14  C3  UNL     1      25.735   5.889  49.494  1.00  0.00     0.140 C 
HETATM   15  C4  UNL     1      25.833   7.358  49.264  1.00  0.00     0.122 C 
HETATM   16  N2  UNL     1      24.621   8.024  48.925  1.00  0.00    -0.260 NA
HETATM   17  C5  UNL     1      23.985   7.619  47.721  1.00  0.00     0.124 C 
HETATM   18  S1  UNL     1      23.561   7.886  50.351  1.00  0.00    -0.063 SA
HETATM   19  C6  UNL     1      24.226   6.466  51.283  1.00  0.00     0.215 C 
ENDBRANCH  11  13
ENDBRANCH   8  11
ENDBRANCH   1   7
BRANCH   1  20
HETATM   20  N4  UNL     1      23.960   0.712  52.299  1.00  0.00    -0.366 N 
HETATM   21  H15 UNL     1      24.382  -0.130  51.800  1.00  0.00     0.161 HD
BRANCH  20  22
HETATM   22  C10 UNL     1      22.677   0.369  52.722  1.00  0.00     0.053 A 
HETATM   23  C11 UNL     1      22.346  -0.033  54.003  1.00  0.00     0.050 A 
HETATM   24  C12 UNL     1      21.062  -0.339  54.348  1.00  0.00     0.118 A 
HETATM   25  N5  UNL     1      20.072  -0.265  53.471  1.00  0.00    -0.271 NA
HETATM   26  C13 UNL     1      20.279   0.112  52.208  1.00  0.00     0.141 A 
HETATM   27  C14 UNL     1      21.583   0.414  51.893  1.00  0.00     0.050 A 
BRANCH  27  28
HETATM   28  N6  UNL     1      21.643   0.805  50.534  1.00  0.00    -0.300 NA
HETATM   29  H19 UNL     1      21.909   1.536  49.843  1.00  0.00     0.124 HD
HETATM   30  H20 UNL     1      21.749   1.219  49.607  1.00  0.00     0.124 HD
ENDBRANCH  27  28
ENDBRANCH  20  22
ENDBRANCH   1  20
BRANCH   3  31
HETATM   31  O2  UNL     1      28.515   1.561  52.748  1.00  0.00    -0.346 OA
HETATM   32  H22 UNL     1      29.080   2.272  53.187  1.00  0.00     0.219 HD
ENDBRANCH   3  31
TORSDOF 7
ENDMDL
