MODEL 1
REMARK VINA RESULT:      -7.1      0.000      0.000
REMARK  4 active torsions:
REMARK  status: ('A' for Active; 'I' for Inactive)
REMARK    1  A    between atoms: N1_2  and  C2_3 
REMARK    2  A    between atoms: C10_12  and  C11_13 
REMARK    3  A    between atoms: C11_13  and  N3_14 
REMARK    4  A    between atoms: C14_17  and  O1_18 
ROOT
HETATM    1  C2  UNL     1      22.252   2.493  51.516  1.00  0.00     0.041 C 
HETATM    2  C3  UNL     1      21.401   3.215  52.213  1.00  0.00     0.027 C 
HETATM    3  C4  UNL     1      21.475   4.623  52.563  1.00  0.00     0.000 C 
HETATM    4  C5  UNL     1      22.549   5.186  52.058  1.00  0.00     0.009 C 
HETATM    5  C6  UNL     1      23.539   4.530  51.234  1.00  0.00     0.259 C 
HETATM    6  N2  UNL     1      24.874   5.071  51.254  1.00  0.00     0.092 N 
HETATM    7  C7  UNL     1      25.414   4.857  49.931  1.00  0.00     0.270 C 
HETATM    8  C8  UNL     1      24.855   3.702  49.171  1.00  0.00     0.031 C 
HETATM    9  C9  UNL     1      24.238   2.595  49.980  1.00  0.00     0.022 C 
HETATM   10  C10 UNL     1      23.659   3.047  51.266  1.00  0.00     0.054 C 
HETATM   11  H7  UNL     1      24.794   6.075  51.490  1.00  0.00     0.316 HD
ENDROOT
BRANCH  10  12
HETATM   12  C11 UNL     1      24.511   2.554  52.429  1.00  0.00     0.137 C 
BRANCH  12  13
HETATM   13  N3  UNL     1      25.558   1.688  52.262  1.00  0.00    -0.394 N 
HETATM   14  C12 UNL     1      25.467   0.310  52.086  1.00  0.00     0.121 C 
HETATM   15  C13 UNL     1      24.915  -0.479  53.269  1.00  0.00     0.061 C 
HETATM   16  C14 UNL     1      25.707  -0.479  54.496  1.00  0.00     0.099 C 
HETATM   17  C16 UNL     1      26.866   0.117  54.526  1.00  0.00     0.053 C 
HETATM   18  C17 UNL     1      27.991   0.425  55.370  1.00  0.00     0.239 C 
HETATM   19  N4  UNL     1      28.959   1.110  54.787  1.00  0.00    -0.298 NA
HETATM   20  C18 UNL     1      28.844   1.495  53.398  1.00  0.00     0.164 C 
HETATM   21  N5  UNL     1      27.615   1.754  53.269  1.00  0.00    -0.272 NA
HETATM   22  C19 UNL     1      26.889   2.185  52.111  1.00  0.00     0.268 C 
BRANCH  16  23
HETATM   23  O1  UNL     1      24.816  -1.229  55.333  1.00  0.00    -0.381 OA
HETATM   24  C15 UNL     1      23.435  -1.148  54.994  1.00  0.00     0.202 C 
ENDBRANCH  16  23
ENDBRANCH  12  13
ENDBRANCH  10  12
BRANCH   1  25
HETATM   25  N1  UNL     1      22.323   1.144  51.076  1.00  0.00    -0.291 NA
HETATM   26  C1  UNL     1      21.648   0.186  51.625  1.00  0.00     0.170 C 
ENDBRANCH   1  25
TORSDOF 4
ENDMDL
MODEL 2
REMARK VINA RESULT:      -6.7      2.900      4.175
REMARK  4 active torsions:
REMARK  status: ('A' for Active; 'I' for Inactive)
REMARK    1  A    between atoms: N1_2  and  C2_3 
REMARK    2  A    between atoms: C10_12  and  C11_13 
REMARK    3  A    between atoms: C11_13  and  N3_14 
REMARK    4  A    between atoms: C14_17  and  O1_18 
ROOT
HETATM    1  C2  UNL     1      21.390   4.407  49.621  1.00  0.00     0.041 C 
HETATM    2  C3  UNL     1      20.919   5.552  50.068  1.00  0.00     0.027 C 
HETATM    3  C4  UNL     1      21.575   6.542  50.904  1.00  0.00     0.000 C 
HETATM    4  C5  UNL     1      22.809   6.189  51.185  1.00  0.00     0.009 C 
HETATM    5  C6  UNL     1      23.472   4.992  50.722  1.00  0.00     0.259 C 
HETATM    6  N2  UNL     1      24.537   4.471  51.540  1.00  0.00     0.092 N 
HETATM    7  C7  UNL     1      25.489   3.877  50.630  1.00  0.00     0.270 C 
HETATM    8  C8  UNL     1      24.940   3.382  49.334  1.00  0.00     0.031 C 
HETATM    9  C9  UNL     1      23.475   3.041  49.307  1.00  0.00     0.022 C 
HETATM   10  C10 UNL     1      22.661   3.833  50.257  1.00  0.00     0.054 C 
HETATM   11  H7  UNL     1      24.937   5.268  52.064  1.00  0.00     0.316 HD
ENDROOT
BRANCH  10  12
HETATM   12  C11 UNL     1      22.187   2.952  51.406  1.00  0.00     0.137 C 
BRANCH  12  13
HETATM   13  N3  UNL     1      22.431   1.606  51.453  1.00  0.00    -0.394 N 
HETATM   14  C12 UNL     1      21.718   0.616  50.783  1.00  0.00     0.121 C 
HETATM   15  C13 UNL     1      20.264   0.436  51.210  1.00  0.00     0.061 C 
HETATM   16  C14 UNL     1      20.023  -0.023  52.575  1.00  0.00     0.099 C 
HETATM   17  C16 UNL     1      21.028  -0.328  53.348  1.00  0.00     0.053 C 
HETATM   18  C17 UNL     1      21.379  -0.791  54.666  1.00  0.00     0.239 C 
HETATM   19  N4  UNL     1      22.675  -0.933  54.884  1.00  0.00    -0.298 NA
HETATM   20  C18 UNL     1      23.626  -0.633  53.837  1.00  0.00     0.164 C 
HETATM   21  N5  UNL     1      23.111   0.360  53.252  1.00  0.00    -0.272 NA
HETATM   22  C19 UNL     1      23.589   1.106  52.125  1.00  0.00     0.268 C 
BRANCH  16  23
HETATM   23  O1  UNL     1      18.590   0.031  52.577  1.00  0.00    -0.381 OA
HETATM   24  C15 UNL     1      17.928  -1.158  52.997  1.00  0.00     0.202 C 
ENDBRANCH  16  23
ENDBRANCH  12  13
ENDBRANCH  10  12
BRANCH   1  25
HETATM   25  N1  UNL     1      20.903   3.356  48.799  1.00  0.00    -0.291 NA
HETATM   26  C1  UNL     1      19.643   3.099  48.656  1.00  0.00     0.170 C 
ENDBRANCH   1  25
TORSDOF 4
ENDMDL
MODEL 3
REMARK VINA RESULT:      -6.6      2.194      4.364
REMARK  4 active torsions:
REMARK  status: ('A' for Active; 'I' for Inactive)
REMARK    1  A    between atoms: N1_2  and  C2_3 
REMARK    2  A    between atoms: C10_12  and  C11_13 
REMARK    3  A    between atoms: C11_13  and  N3_14 
REMARK    4  A    between atoms: C14_17  and  O1_18 
ROOT
HETATM    1  C2  UNL     1      22.821   3.580  49.615  1.00  0.00     0.041 C 
HETATM    2  C3  UNL     1      22.995   3.265  48.349  1.00  0.00     0.027 C 
HETATM    3  C4  UNL     1      22.388   2.188  47.588  1.00  0.00     0.000 C 
HETATM    4  C5  UNL     1      21.546   1.498  48.322  1.00  0.00     0.009 C 
HETATM    5  C6  UNL     1      21.218   1.761  49.705  1.00  0.00     0.259 C 
HETATM    6  N2  UNL     1      20.775   0.644  50.500  1.00  0.00     0.092 N 
HETATM    7  C7  UNL     1      19.826   1.179  51.449  1.00  0.00     0.270 C 
HETATM    8  C8  UNL     1      20.001   2.614  51.818  1.00  0.00     0.031 C 
HETATM    9  C9  UNL     1      21.375   3.196  51.634  1.00  0.00     0.022 C 
HETATM   10  C10 UNL     1      22.151   2.561  50.544  1.00  0.00     0.054 C 
HETATM   11  H7  UNL     1      20.343  -0.039  49.853  1.00  0.00     0.316 HD
ENDROOT
BRANCH  10  12
HETATM   12  C11 UNL     1      23.284   1.723  51.123  1.00  0.00     0.137 C 
BRANCH  12  13
HETATM   13  N3  UNL     1      23.546   1.662  52.465  1.00  0.00    -0.394 N 
HETATM   14  C12 UNL     1      24.224   2.619  53.215  1.00  0.00     0.121 C 
HETATM   15  C13 UNL     1      25.696   2.820  52.868  1.00  0.00     0.061 C 
HETATM   16  C14 UNL     1      26.595   1.696  53.107  1.00  0.00     0.099 C 
HETATM   17  C16 UNL     1      26.145   0.605  53.661  1.00  0.00     0.053 C 
HETATM   18  C17 UNL     1      26.521  -0.713  54.103  1.00  0.00     0.239 C 
HETATM   19  N4  UNL     1      25.547  -1.422  54.647  1.00  0.00    -0.298 NA
HETATM   20  C18 UNL     1      24.219  -0.862  54.766  1.00  0.00     0.164 C 
HETATM   21  N5  UNL     1      24.095  -0.180  53.712  1.00  0.00    -0.272 NA
HETATM   22  C19 UNL     1      22.990   0.615  53.263  1.00  0.00     0.268 C 
BRANCH  16  23
HETATM   23  O1  UNL     1      27.803   2.263  52.581  1.00  0.00    -0.381 OA
HETATM   24  C15 UNL     1      28.833   2.512  53.533  1.00  0.00     0.202 C 
ENDBRANCH  16  23
ENDBRANCH  12  13
ENDBRANCH  10  12
BRANCH   1  25
HETATM   25  N1  UNL     1      23.307   4.587  50.491  1.00  0.00    -0.291 NA
HETATM   26  C1  UNL     1      23.496   5.813  50.122  1.00  0.00     0.170 C 
ENDBRANCH   1  25
TORSDOF 4
ENDMDL
MODEL 4
REMARK VINA RESULT:      -6.5      8.334     11.767
REMARK  4 active torsions:
REMARK  status: ('A' for Active; 'I' for Inactive)
REMARK    1  A    between atoms: N1_2  and  C2_3 
REMARK    2  A    between atoms: C10_12  and  C11_13 
REMARK    3  A    between atoms: C11_13  and  N3_14 
REMARK    4  A    between atoms: C14_17  and  O1_18 
ROOT
HETATM    1  C2  UNL     1      34.463   7.293  47.283  1.00  0.00     0.041 C 
HETATM    2  C3  UNL     1      35.386   7.238  48.220  1.00  0.00     0.027 C 
HETATM    3  C4  UNL     1      35.656   6.173  49.170  1.00  0.00     0.000 C 
HETATM    4  C5  UNL     1      34.848   5.154  48.989  1.00  0.00     0.009 C 
HETATM    5  C6  UNL     1      33.826   5.055  47.972  1.00  0.00     0.259 C 
HETATM    6  N2  UNL     1      32.698   4.205  48.253  1.00  0.00     0.092 N 
HETATM    7  C7  UNL     1      32.289   3.649  46.984  1.00  0.00     0.270 C 
HETATM    8  C8  UNL     1      32.601   4.465  45.776  1.00  0.00     0.031 C 
HETATM    9  C9  UNL     1      32.787   5.942  45.987  1.00  0.00     0.022 C 
HETATM   10  C10 UNL     1      33.303   6.292  47.330  1.00  0.00     0.054 C 
HETATM   11  H7  UNL     1      33.020   3.480  48.917  1.00  0.00     0.316 HD
ENDROOT
BRANCH  10  12
HETATM   12  C11 UNL     1      32.212   6.963  48.156  1.00  0.00     0.137 C 
BRANCH  12  13
HETATM   13  N3  UNL     1      31.059   7.448  47.600  1.00  0.00    -0.394 N 
HETATM   14  C12 UNL     1      30.923   8.643  46.899  1.00  0.00     0.121 C 
HETATM   15  C13 UNL     1      31.151   9.919  47.704  1.00  0.00     0.061 C 
HETATM   16  C14 UNL     1      30.210  10.203  48.782  1.00  0.00     0.099 C 
HETATM   17  C16 UNL     1      29.185   9.421  48.979  1.00  0.00     0.053 C 
HETATM   18  C17 UNL     1      28.028   9.210  49.809  1.00  0.00     0.239 C 
HETATM   19  N4  UNL     1      27.291   8.161  49.490  1.00  0.00    -0.298 NA
HETATM   20  C18 UNL     1      27.667   7.320  48.375  1.00  0.00     0.164 C 
HETATM   21  N5  UNL     1      28.928   7.310  48.430  1.00  0.00    -0.272 NA
HETATM   22  C19 UNL     1      29.875   6.649  47.581  1.00  0.00     0.268 C 
BRANCH  16  23
HETATM   23  O1  UNL     1      30.824  11.389  49.305  1.00  0.00    -0.381 OA
HETATM   24  C15 UNL     1      30.165  12.613  48.994  1.00  0.00     0.202 C 
ENDBRANCH  16  23
ENDBRANCH  12  13
ENDBRANCH  10  12
BRANCH   1  25
HETATM   25  N1  UNL     1      34.082   8.225  46.281  1.00  0.00    -0.291 NA
HETATM   26  C1  UNL     1      34.800   9.254  45.965  1.00  0.00     0.170 C 
ENDBRANCH   1  25
TORSDOF 4
ENDMDL
MODEL 5
REMARK VINA RESULT:      -6.5      2.523      4.682
REMARK  4 active torsions:
REMARK  status: ('A' for Active; 'I' for Inactive)
REMARK    1  A    between atoms: N1_2  and  C2_3 
REMARK    2  A    between atoms: C10_12  and  C11_13 
REMARK    3  A    between atoms: C11_13  and  N3_14 
REMARK    4  A    between atoms: C14_17  and  O1_18 
ROOT
HETATM    1  C2  UNL     1      23.440   3.237  49.180  1.00  0.00     0.041 C 
HETATM    2  C3  UNL     1      23.333   2.707  47.979  1.00  0.00     0.027 C 
HETATM    3  C4  UNL     1      22.133   2.317  47.261  1.00  0.00     0.000 C 
HETATM    4  C5  UNL     1      21.051   2.584  47.955  1.00  0.00     0.009 C 
HETATM    5  C6  UNL     1      21.015   3.209  49.257  1.00  0.00     0.259 C 
HETATM    6  N2  UNL     1      19.885   2.911  50.100  1.00  0.00     0.092 N 
HETATM    7  C7  UNL     1      19.636   4.105  50.874  1.00  0.00     0.270 C 
HETATM    8  C8  UNL     1      20.812   4.988  51.120  1.00  0.00     0.031 C 
HETATM    9  C9  UNL     1      22.169   4.344  51.043  1.00  0.00     0.022 C 
HETATM   10  C10 UNL     1      22.229   3.189  50.118  1.00  0.00     0.054 C 
HETATM   11  H7  UNL     1      19.094   2.673  49.477  1.00  0.00     0.316 HD
ENDROOT
BRANCH  10  12
HETATM   12  C11 UNL     1      22.367   1.891  50.905  1.00  0.00     0.137 C 
BRANCH  12  13
HETATM   13  N3  UNL     1      22.454   1.862  52.270  1.00  0.00    -0.394 N 
HETATM   14  C12 UNL     1      23.594   2.115  53.028  1.00  0.00     0.121 C 
HETATM   15  C13 UNL     1      24.739   1.120  52.867  1.00  0.00     0.061 C 
HETATM   16  C14 UNL     1      24.497  -0.250  53.309  1.00  0.00     0.099 C 
HETATM   17  C16 UNL     1      23.368  -0.562  53.881  1.00  0.00     0.053 C 
HETATM   18  C17 UNL     1      22.625  -1.647  54.470  1.00  0.00     0.239 C 
HETATM   19  N4  UNL     1      21.430  -1.323  54.932  1.00  0.00    -0.298 NA
HETATM   20  C18 UNL     1      20.954   0.038  54.830  1.00  0.00     0.164 C 
HETATM   21  N5  UNL     1      21.412   0.423  53.718  1.00  0.00    -0.272 NA
HETATM   22  C19 UNL     1      21.279   1.693  53.066  1.00  0.00     0.268 C 
BRANCH  16  23
HETATM   23  O1  UNL     1      25.743  -0.836  52.907  1.00  0.00    -0.381 OA
HETATM   24  C15 UNL     1      26.561  -0.028  52.066  1.00  0.00     0.202 C 
ENDBRANCH  16  23
ENDBRANCH  12  13
ENDBRANCH  10  12
BRANCH   1  25
HETATM   25  N1  UNL     1      24.506   3.685  50.004  1.00  0.00    -0.291 NA
HETATM   26  C1  UNL     1      25.726   3.276  49.866  1.00  0.00     0.170 C 
ENDBRANCH   1  25
TORSDOF 4
ENDMDL
MODEL 6
REMARK VINA RESULT:      -6.2      2.145      2.997
REMARK  4 active torsions:
REMARK  status: ('A' for Active; 'I' for Inactive)
REMARK    1  A    between atoms: N1_2  and  C2_3 
REMARK    2  A    between atoms: C10_12  and  C11_13 
REMARK    3  A    between atoms: C11_13  and  N3_14 
REMARK    4  A    between atoms: C14_17  and  O1_18 
ROOT
HETATM    1  C2  UNL     1      22.145   5.387  49.398  1.00  0.00     0.041 C 
HETATM    2  C3  UNL     1      21.245   6.164  49.962  1.00  0.00     0.027 C 
HETATM    3  C4  UNL     1      21.448   7.356  50.766  1.00  0.00     0.000 C 
HETATM    4  C5  UNL     1      22.723   7.648  50.876  1.00  0.00     0.009 C 
HETATM    5  C6  UNL     1      23.813   6.918  50.271  1.00  0.00     0.259 C 
HETATM    6  N2  UNL     1      25.095   6.987  50.924  1.00  0.00     0.092 N 
HETATM    7  C7  UNL     1      26.085   6.920  49.873  1.00  0.00     0.270 C 
HETATM    8  C8  UNL     1      25.676   6.207  48.628  1.00  0.00     0.031 C 
HETATM    9  C9  UNL     1      24.568   5.200  48.759  1.00  0.00     0.022 C 
HETATM   10  C10 UNL     1      23.607   5.507  49.843  1.00  0.00     0.054 C 
HETATM   11  H7  UNL     1      25.127   7.883  51.439  1.00  0.00     0.316 HD
ENDROOT
BRANCH  10  12
HETATM   12  C11 UNL     1      23.773   4.518  50.990  1.00  0.00     0.137 C 
BRANCH  12  13
HETATM   13  N3  UNL     1      24.406   3.314  50.840  1.00  0.00    -0.394 N 
HETATM   14  C12 UNL     1      23.799   2.096  50.545  1.00  0.00     0.121 C 
HETATM   15  C13 UNL     1      22.856   1.544  51.609  1.00  0.00     0.061 C 
HETATM   16  C14 UNL     1      23.444   1.175  52.893  1.00  0.00     0.099 C 
HETATM   17  C16 UNL     1      24.734   1.257  53.069  1.00  0.00     0.053 C 
HETATM   18  C17 UNL     1      25.790   1.053  54.026  1.00  0.00     0.239 C 
HETATM   19  N4  UNL     1      27.007   1.318  53.584  1.00  0.00    -0.298 NA
HETATM   20  C18 UNL     1      27.205   1.775  52.226  1.00  0.00     0.164 C 
HETATM   21  N5  UNL     1      26.200   2.509  52.017  1.00  0.00    -0.272 NA
HETATM   22  C19 UNL     1      25.833   3.243  50.842  1.00  0.00     0.268 C 
BRANCH  16  23
HETATM   23  O1  UNL     1      22.245   0.810  53.589  1.00  0.00    -0.381 OA
HETATM   24  C15 UNL     1      21.026   1.071  52.898  1.00  0.00     0.202 C 
ENDBRANCH  16  23
ENDBRANCH  12  13
ENDBRANCH  10  12
BRANCH   1  25
HETATM   25  N1  UNL     1      22.120   4.223  48.584  1.00  0.00    -0.291 NA
HETATM   26  C1  UNL     1      21.067   3.486  48.439  1.00  0.00     0.170 C 
ENDBRANCH   1  25
TORSDOF 4
ENDMDL
MODEL 7
REMARK VINA RESULT:      -6.0      8.492     11.588
REMARK  4 active torsions:
REMARK  status: ('A' for Active; 'I' for Inactive)
REMARK    1  A    between atoms: N1_2  and  C2_3 
REMARK    2  A    between atoms: C10_12  and  C11_13 
REMARK    3  A    between atoms: C11_13  and  N3_14 
REMARK    4  A    between atoms: C14_17  and  O1_18 
ROOT
HETATM    1  C2  UNL     1      34.016   5.386  46.102  1.00  0.00     0.041 C 
HETATM    2  C3  UNL     1      34.084   4.535  45.100  1.00  0.00     0.027 C 
HETATM    3  C4  UNL     1      34.070   4.807  43.673  1.00  0.00     0.000 C 
HETATM    4  C5  UNL     1      34.007   6.096  43.432  1.00  0.00     0.009 C 
HETATM    5  C6  UNL     1      33.978   7.143  44.429  1.00  0.00     0.259 C 
HETATM    6  N2  UNL     1      33.343   8.383  44.063  1.00  0.00     0.092 N 
HETATM    7  C7  UNL     1      34.063   9.423  44.761  1.00  0.00     0.270 C 
HETATM    8  C8  UNL     1      34.731   9.022  46.033  1.00  0.00     0.031 C 
HETATM    9  C9  UNL     1      34.178   7.812  46.735  1.00  0.00     0.022 C 
HETATM   10  C10 UNL     1      33.562   6.823  45.821  1.00  0.00     0.054 C 
HETATM   11  H7  UNL     1      33.418   8.473  43.035  1.00  0.00     0.316 HD
ENDROOT
BRANCH  10  12
HETATM   12  C11 UNL     1      32.048   6.818  45.993  1.00  0.00     0.137 C 
BRANCH  12  13
HETATM   13  N3  UNL     1      31.414   7.536  46.971  1.00  0.00    -0.394 N 
HETATM   14  C12 UNL     1      31.226   7.140  48.292  1.00  0.00     0.121 C 
HETATM   15  C13 UNL     1      30.325   5.928  48.504  1.00  0.00     0.061 C 
HETATM   16  C14 UNL     1      28.922   6.068  48.129  1.00  0.00     0.099 C 
HETATM   17  C16 UNL     1      28.470   7.214  47.703  1.00  0.00     0.053 C 
HETATM   18  C17 UNL     1      27.293   7.895  47.229  1.00  0.00     0.239 C 
HETATM   19  N4  UNL     1      27.464   9.171  46.931  1.00  0.00    -0.298 NA
HETATM   20  C18 UNL     1      28.761   9.789  47.093  1.00  0.00     0.164 C 
HETATM   21  N5  UNL     1      29.563   8.871  46.763  1.00  0.00    -0.272 NA
HETATM   22  C19 UNL     1      30.996   8.880  46.724  1.00  0.00     0.268 C 
BRANCH  16  23
HETATM   23  O1  UNL     1      28.486   4.728  48.398  1.00  0.00    -0.381 OA
HETATM   24  C15 UNL     1      27.176   4.603  48.944  1.00  0.00     0.202 C 
ENDBRANCH  16  23
ENDBRANCH  12  13
ENDBRANCH  10  12
BRANCH   1  25
HETATM   25  N1  UNL     1      34.036   5.295  47.520  1.00  0.00    -0.291 NA
HETATM   26  C1  UNL     1      34.761   4.436  48.161  1.00  0.00     0.170 C 
ENDBRANCH   1  25
TORSDOF 4
ENDMDL
MODEL 8
REMARK VINA RESULT:      -5.8      3.620      6.124
REMARK  4 active torsions:
REMARK  status: ('A' for Active; 'I' for Inactive)
REMARK    1  A    between atoms: N1_2  and  C2_3 
REMARK    2  A    between atoms: C10_12  and  C11_13 
REMARK    3  A    between atoms: C11_13  and  N3_14 
REMARK    4  A    between atoms: C14_17  and  O1_18 
ROOT
HETATM    1  C2  UNL     1      22.336   5.905  46.853  1.00  0.00     0.041 C 
HETATM    2  C3  UNL     1      22.234   5.406  45.639  1.00  0.00     0.027 C 
HETATM    3  C4  UNL     1      21.434   4.283  45.182  1.00  0.00     0.000 C 
HETATM    4  C5  UNL     1      20.726   3.769  46.161  1.00  0.00     0.009 C 
HETATM    5  C6  UNL     1      20.699   4.245  47.525  1.00  0.00     0.259 C 
HETATM    6  N2  UNL     1      20.372   3.287  48.550  1.00  0.00     0.092 N 
HETATM    7  C7  UNL     1      19.662   4.021  49.573  1.00  0.00     0.270 C 
HETATM    8  C8  UNL     1      19.978   5.474  49.680  1.00  0.00     0.031 C 
HETATM    9  C9  UNL     1      21.313   5.917  49.148  1.00  0.00     0.022 C 
HETATM   10  C10 UNL     1      21.820   5.079  48.037  1.00  0.00     0.054 C 
HETATM   11  H7  UNL     1      19.786   2.557  48.110  1.00  0.00     0.316 HD
ENDROOT
BRANCH  10  12
HETATM   12  C11 UNL     1      23.005   4.244  48.505  1.00  0.00     0.137 C 
BRANCH  12  13
HETATM   13  N3  UNL     1      23.589   4.414  49.731  1.00  0.00    -0.394 N 
HETATM   14  C12 UNL     1      24.528   5.385  50.067  1.00  0.00     0.121 C 
HETATM   15  C13 UNL     1      25.878   5.281  49.363  1.00  0.00     0.061 C 
HETATM   16  C14 UNL     1      26.689   4.101  49.649  1.00  0.00     0.099 C 
HETATM   17  C16 UNL     1      26.284   3.227  50.528  1.00  0.00     0.053 C 
HETATM   18  C17 UNL     1      26.622   1.983  51.168  1.00  0.00     0.239 C 
HETATM   19  N4  UNL     1      25.750   1.558  52.066  1.00  0.00    -0.298 NA
HETATM   20  C18 UNL     1      24.559   2.329  52.346  1.00  0.00     0.164 C 
HETATM   21  N5  UNL     1      24.244   2.797  51.217  1.00  0.00    -0.272 NA
HETATM   22  C19 UNL     1      23.149   3.648  50.853  1.00  0.00     0.268 C 
BRANCH  16  23
HETATM   23  O1  UNL     1      27.776   4.357  48.750  1.00  0.00    -0.381 OA
HETATM   24  C15 UNL     1      27.951   5.717  48.364  1.00  0.00     0.202 C 
ENDBRANCH  16  23
ENDBRANCH  12  13
ENDBRANCH  10  12
BRANCH   1  25
HETATM   25  N1  UNL     1      23.038   6.983  47.455  1.00  0.00    -0.291 NA
HETATM   26  C1  UNL     1      24.076   7.537  46.918  1.00  0.00     0.170 C 
ENDBRANCH   1  25
TORSDOF 4
ENDMDL
MODEL 9
REMARK VINA RESULT:      -5.8      3.768      7.500
REMARK  4 active torsions:
REMARK  status: ('A' for Active; 'I' for Inactive)
REMARK    1  A    between atoms: N1_2  and  C2_3 
REMARK    2  A    between atoms: C10_12  and  C11_13 
REMARK    3  A    between atoms: C11_13  and  N3_14 
REMARK    4  A    between atoms: C14_17  and  O1_18 
ROOT
HETATM    1  C2  UNL     1      24.351   2.672  50.648  1.00  0.00     0.041 C 
HETATM    2  C3  UNL     1      24.587   2.359  51.905  1.00  0.00     0.027 C 
HETATM    3  C4  UNL     1      23.701   1.724  52.865  1.00  0.00     0.000 C 
HETATM    4  C5  UNL     1      22.542   1.429  52.325  1.00  0.00     0.009 C 
HETATM    5  C6  UNL     1      22.165   1.665  50.950  1.00  0.00     0.259 C 
HETATM    6  N2  UNL     1      20.761   1.835  50.672  1.00  0.00     0.092 N 
HETATM    7  C7  UNL     1      20.544   1.285  49.355  1.00  0.00     0.270 C 
HETATM    8  C8  UNL     1      21.716   1.300  48.433  1.00  0.00     0.031 C 
HETATM    9  C9  UNL     1      22.785   2.320  48.716  1.00  0.00     0.022 C 
HETATM   10  C10 UNL     1      22.903   2.678  50.148  1.00  0.00     0.054 C 
HETATM   11  H7  UNL     1      20.241   1.322  51.405  1.00  0.00     0.316 HD
ENDROOT
BRANCH  10  12
HETATM   12  C11 UNL     1      22.392   4.095  50.380  1.00  0.00     0.137 C 
BRANCH  12  13
HETATM   13  N3  UNL     1      21.986   4.910  49.358  1.00  0.00    -0.394 N 
HETATM   14  C12 UNL     1      22.813   5.571  48.454  1.00  0.00     0.121 C 
HETATM   15  C13 UNL     1      23.720   6.648  49.043  1.00  0.00     0.061 C 
HETATM   16  C14 UNL     1      23.070   7.819  49.624  1.00  0.00     0.099 C 
HETATM   17  C16 UNL     1      21.774   7.946  49.562  1.00  0.00     0.053 C 
HETATM   18  C17 UNL     1      20.672   8.799  49.925  1.00  0.00     0.239 C 
HETATM   19  N4  UNL     1      19.481   8.369  49.549  1.00  0.00    -0.298 NA
HETATM   20  C18 UNL     1      19.352   7.124  48.824  1.00  0.00     0.164 C 
HETATM   21  N5  UNL     1      20.238   6.391  49.346  1.00  0.00    -0.272 NA
HETATM   22  C19 UNL     1      20.598   5.037  49.043  1.00  0.00     0.268 C 
BRANCH  16  23
HETATM   23  O1  UNL     1      24.234   8.496  50.116  1.00  0.00    -0.381 OA
HETATM   24  C15 UNL     1      25.415   7.704  50.212  1.00  0.00     0.202 C 
ENDBRANCH  16  23
ENDBRANCH  12  13
ENDBRANCH  10  12
BRANCH   1  25
HETATM   25  N1  UNL     1      25.092   3.263  49.590  1.00  0.00    -0.291 NA
HETATM   26  C1  UNL     1      26.224   3.863  49.769  1.00  0.00     0.170 C 
ENDBRANCH   1  25
TORSDOF 4
ENDMDL
