MODEL 1
REMARK VINA RESULT:      -8.9      0.000      0.000
REMARK  3 active torsions:
REMARK  status: ('A' for Active; 'I' for Inactive)
REMARK    1  A    between atoms: N1_5  and  C5_6 
REMARK    2  A    between atoms: C7_8  and  N2_9 
REMARK    3  A    between atoms: C18_23  and  O2_24 
ROOT
HETATM    1  C5  UNL     1      24.669   0.501  54.058  1.00  0.00     0.237 C 
HETATM    2  C6  UNL     1      24.559   1.677  53.133  1.00  0.00     0.042 C 
HETATM    3  C7  UNL     1      23.875   2.304  52.155  1.00  0.00     0.007 C 
HETATM    4  C8  UNL     1      22.669   1.628  51.699  1.00  0.00     0.226 C 
HETATM    5  O1  UNL     1      21.468   2.404  51.873  1.00  0.00    -0.346 OA
HETATM    6  C9  UNL     1      20.318   1.687  51.453  1.00  0.00     0.069 A 
HETATM    7  C10 UNL     1      19.596   1.769  50.288  1.00  0.00     0.037 A 
HETATM    8  C11 UNL     1      18.510   0.939  50.142  1.00  0.00     0.010 A 
HETATM    9  C12 UNL     1      18.153   0.050  51.134  1.00  0.00    -0.054 A 
HETATM   10  C13 UNL     1      16.984  -0.834  50.960  1.00  0.00     0.049 C 
HETATM   11  C14 UNL     1      18.870  -0.057  52.334  1.00  0.00    -0.032 A 
HETATM   12  C15 UNL     1      19.952   0.786  52.454  1.00  0.00     0.046 A 
HETATM   13  C16 UNL     1      18.427  -1.037  53.352  1.00  0.00     0.159 C 
HETATM   14  N3  UNL     1      19.536  -1.902  53.701  1.00  0.00    -0.380 N 
HETATM   15  C17 UNL     1      20.796  -1.576  54.275  1.00  0.00     0.207 C 
HETATM   16  N4  UNL     1      22.053  -1.551  53.985  1.00  0.00    -0.203 NA
HETATM   17  C18 UNL     1      23.064  -1.144  54.865  1.00  0.00     0.264 C 
HETATM   18  N5  UNL     1      23.539  -0.361  53.970  1.00  0.00    -0.219 NA
HETATM   19  H21 UNL     1      19.678  -2.954  53.620  1.00  0.00     0.160 HD
ENDROOT
BRANCH   1  20
HETATM   20  N1  UNL     1      25.921  -0.141  53.807  1.00  0.00    -0.361 N 
HETATM   21  C4  UNL     1      26.013  -1.216  52.844  1.00  0.00     0.152 A 
HETATM   22  C3  UNL     1      27.425  -1.729  52.752  1.00  0.00    -0.001 A 
HETATM   23  C2  UNL     1      28.478  -1.303  53.428  1.00  0.00    -0.063 A 
HETATM   24  C1  UNL     1      29.783  -1.946  53.187  1.00  0.00     0.048 C 
HETATM   25  C20 UNL     1      28.225  -0.220  54.355  1.00  0.00     0.023 A 
HETATM   26  C19 UNL     1      27.031   0.329  54.538  1.00  0.00     0.089 A 
ENDBRANCH   1  20
BRANCH   3  27
HETATM   27  N2  UNL     1      24.010   3.507  51.403  1.00  0.00    -0.304 NA
HETATM   28  H9  UNL     1      23.323   3.456  50.606  1.00  0.00     0.124 HD
HETATM   29  H10 UNL     1      23.421   3.655  50.574  1.00  0.00     0.124 HD
ENDBRANCH   3  27
BRANCH  17  30
HETATM   30  O2  UNL     1      23.735  -1.159  56.080  1.00  0.00    -0.330 OA
HETATM   31  H23 UNL     1      24.182  -1.995  56.438  1.00  0.00     0.221 HD
ENDBRANCH  17  30
TORSDOF 3
ENDMDL
MODEL 2
REMARK VINA RESULT:      -8.2      4.617      6.647
REMARK  3 active torsions:
REMARK  status: ('A' for Active; 'I' for Inactive)
REMARK    1  A    between atoms: N1_5  and  C5_6 
REMARK    2  A    between atoms: C7_8  and  N2_9 
REMARK    3  A    between atoms: C18_23  and  O2_24 
ROOT
HETATM    1  C5  UNL     1      23.300   2.742  51.277  1.00  0.00     0.237 C 
HETATM    2  C6  UNL     1      23.666   4.113  51.766  1.00  0.00     0.042 C 
HETATM    3  C7  UNL     1      23.978   5.389  51.466  1.00  0.00     0.007 C 
HETATM    4  C8  UNL     1      24.007   5.712  50.047  1.00  0.00     0.226 C 
HETATM    5  O1  UNL     1      23.075   6.742  49.666  1.00  0.00    -0.346 OA
HETATM    6  C9  UNL     1      23.112   6.989  48.270  1.00  0.00     0.069 A 
HETATM    7  C10 UNL     1      23.728   7.993  47.561  1.00  0.00     0.037 A 
HETATM    8  C11 UNL     1      23.601   7.988  46.192  1.00  0.00     0.010 A 
HETATM    9  C12 UNL     1      22.877   7.007  45.547  1.00  0.00    -0.054 A 
HETATM   10  C13 UNL     1      22.751   7.017  44.076  1.00  0.00     0.049 C 
HETATM   11  C14 UNL     1      22.238   5.971  46.242  1.00  0.00    -0.032 A 
HETATM   12  C15 UNL     1      22.381   6.001  47.611  1.00  0.00     0.046 A 
HETATM   13  C16 UNL     1      21.480   4.952  45.479  1.00  0.00     0.159 C 
HETATM   14  N3  UNL     1      21.961   3.632  45.831  1.00  0.00    -0.380 N 
HETATM   15  C17 UNL     1      21.964   2.973  47.092  1.00  0.00     0.207 C 
HETATM   16  N4  UNL     1      22.776   2.548  47.999  1.00  0.00    -0.203 NA
HETATM   17  C18 UNL     1      22.385   1.907  49.181  1.00  0.00     0.264 C 
HETATM   18  N5  UNL     1      23.113   2.706  49.866  1.00  0.00    -0.219 NA
HETATM   19  H21 UNL     1      22.412   2.856  45.258  1.00  0.00     0.160 HD
ENDROOT
BRANCH   1  20
HETATM   20  N1  UNL     1      24.280   1.824  51.767  1.00  0.00    -0.361 N 
HETATM   21  C4  UNL     1      23.897   0.748  52.654  1.00  0.00     0.152 A 
HETATM   22  C3  UNL     1      25.094  -0.083  53.031  1.00  0.00    -0.001 A 
HETATM   23  C2  UNL     1      26.346   0.093  52.641  1.00  0.00    -0.063 A 
HETATM   24  C1  UNL     1      27.377  -0.842  53.129  1.00  0.00     0.048 C 
HETATM   25  C20 UNL     1      26.570   1.213  51.753  1.00  0.00     0.023 A 
HETATM   26  C19 UNL     1      25.608   2.029  51.339  1.00  0.00     0.089 A 
ENDBRANCH   1  20
BRANCH   3  27
HETATM   27  N2  UNL     1      24.304   6.574  52.188  1.00  0.00    -0.304 NA
HETATM   28  H9  UNL     1      24.717   7.256  51.499  1.00  0.00     0.124 HD
HETATM   29  H10 UNL     1      24.723   7.371  51.692  1.00  0.00     0.124 HD
ENDBRANCH   3  27
BRANCH  17  30
HETATM   30  O2  UNL     1      21.684   0.950  49.902  1.00  0.00    -0.330 OA
HETATM   31  H23 UNL     1      21.867  -0.042  49.801  1.00  0.00     0.221 HD
ENDBRANCH  17  30
TORSDOF 3
ENDMDL
MODEL 3
REMARK VINA RESULT:      -8.2      3.875      7.921
REMARK  3 active torsions:
REMARK  status: ('A' for Active; 'I' for Inactive)
REMARK    1  A    between atoms: N1_5  and  C5_6 
REMARK    2  A    between atoms: C7_8  and  N2_9 
REMARK    3  A    between atoms: C18_23  and  O2_24 
ROOT
HETATM    1  C5  UNL     1      23.486   4.433  49.173  1.00  0.00     0.237 C 
HETATM    2  C6  UNL     1      24.981   4.510  49.068  1.00  0.00     0.042 C 
HETATM    3  C7  UNL     1      26.183   4.210  49.599  1.00  0.00     0.007 C 
HETATM    4  C8  UNL     1      26.149   3.473  50.854  1.00  0.00     0.226 C 
HETATM    5  O1  UNL     1      26.802   2.191  50.794  1.00  0.00    -0.346 OA
HETATM    6  C9  UNL     1      26.705   1.497  52.026  1.00  0.00     0.069 A 
HETATM    7  C10 UNL     1      27.622   1.348  53.038  1.00  0.00     0.037 A 
HETATM    8  C11 UNL     1      27.255   0.613  54.140  1.00  0.00     0.010 A 
HETATM    9  C12 UNL     1      26.003   0.040  54.230  1.00  0.00    -0.054 A 
HETATM   10  C13 UNL     1      25.626  -0.745  55.421  1.00  0.00     0.049 C 
HETATM   11  C14 UNL     1      25.046   0.174  53.215  1.00  0.00    -0.032 A 
HETATM   12  C15 UNL     1      25.440   0.914  52.124  1.00  0.00     0.046 A 
HETATM   13  C16 UNL     1      23.722  -0.468  53.385  1.00  0.00     0.159 C 
HETATM   14  N3  UNL     1      22.680   0.524  53.212  1.00  0.00    -0.380 N 
HETATM   15  C17 UNL     1      22.368   1.324  52.078  1.00  0.00     0.207 C 
HETATM   16  N4  UNL     1      22.383   2.552  51.684  1.00  0.00    -0.203 NA
HETATM   17  C18 UNL     1      21.973   2.985  50.416  1.00  0.00     0.264 C 
HETATM   18  N5  UNL     1      23.065   3.640  50.278  1.00  0.00    -0.219 NA
HETATM   19  H21 UNL     1      21.919   0.886  53.863  1.00  0.00     0.160 HD
ENDROOT
BRANCH   1  20
HETATM   20  N1  UNL     1      22.975   5.768  49.176  1.00  0.00    -0.361 N 
HETATM   21  C4  UNL     1      23.165   6.622  50.327  1.00  0.00     0.152 A 
HETATM   22  C3  UNL     1      22.545   7.974  50.095  1.00  0.00    -0.001 A 
HETATM   23  C2  UNL     1      21.902   8.385  49.015  1.00  0.00    -0.063 A 
HETATM   24  C1  UNL     1      21.366   9.759  48.990  1.00  0.00     0.048 C 
HETATM   25  C20 UNL     1      21.794   7.414  47.947  1.00  0.00     0.023 A 
HETATM   26  C19 UNL     1      22.294   6.186  48.015  1.00  0.00     0.089 A 
ENDBRANCH   1  20
BRANCH   3  27
HETATM   27  N2  UNL     1      27.550   4.423  49.258  1.00  0.00    -0.304 NA
HETATM   28  H9  UNL     1      28.117   3.696  49.768  1.00  0.00     0.124 HD
HETATM   29  H10 UNL     1      28.274   3.811  49.656  1.00  0.00     0.124 HD
ENDBRANCH   3  27
BRANCH  17  30
HETATM   30  O2  UNL     1      21.082   3.054  49.354  1.00  0.00    -0.330 OA
HETATM   31  H23 UNL     1      21.379   2.933  48.393  1.00  0.00     0.221 HD
ENDBRANCH  17  30
TORSDOF 3
ENDMDL
MODEL 4
REMARK VINA RESULT:      -8.1      3.148      4.521
REMARK  3 active torsions:
REMARK  status: ('A' for Active; 'I' for Inactive)
REMARK    1  A    between atoms: N1_5  and  C5_6 
REMARK    2  A    between atoms: C7_8  and  N2_9 
REMARK    3  A    between atoms: C18_23  and  O2_24 
ROOT
HETATM    1  C5  UNL     1      23.325   1.710  52.749  1.00  0.00     0.237 C 
HETATM    2  C6  UNL     1      23.642   3.145  53.055  1.00  0.00     0.042 C 
HETATM    3  C7  UNL     1      23.642   4.429  52.646  1.00  0.00     0.007 C 
HETATM    4  C8  UNL     1      23.118   4.663  51.308  1.00  0.00     0.226 C 
HETATM    5  O1  UNL     1      21.975   5.539  51.277  1.00  0.00    -0.346 OA
HETATM    6  C9  UNL     1      21.477   5.700  49.959  1.00  0.00     0.069 A 
HETATM    7  C10 UNL     1      21.651   6.727  49.063  1.00  0.00     0.037 A 
HETATM    8  C11 UNL     1      21.047   6.620  47.832  1.00  0.00     0.010 A 
HETATM    9  C12 UNL     1      20.287   5.516  47.505  1.00  0.00    -0.054 A 
HETATM   10  C13 UNL     1      19.646   5.417  46.180  1.00  0.00     0.049 C 
HETATM   11  C14 UNL     1      20.091   4.453  48.398  1.00  0.00    -0.032 A 
HETATM   12  C15 UNL     1      20.708   4.587  49.621  1.00  0.00     0.046 A 
HETATM   13  C16 UNL     1      19.265   3.299  47.973  1.00  0.00     0.159 C 
HETATM   14  N3  UNL     1      20.021   2.076  48.144  1.00  0.00    -0.380 N 
HETATM   15  C17 UNL     1      20.567   1.504  49.327  1.00  0.00     0.207 C 
HETATM   16  N4  UNL     1      21.700   1.245  49.884  1.00  0.00    -0.203 NA
HETATM   17  C18 UNL     1      21.851   0.634  51.136  1.00  0.00     0.264 C 
HETATM   18  N5  UNL     1      22.655   1.561  51.501  1.00  0.00    -0.219 NA
HETATM   19  H21 UNL     1      20.344   1.330  47.457  1.00  0.00     0.160 HD
ENDROOT
BRANCH   1  20
HETATM   20  N1  UNL     1      24.535   0.957  52.862  1.00  0.00    -0.361 N 
HETATM   21  C4  UNL     1      24.630  -0.138  53.802  1.00  0.00     0.152 A 
HETATM   22  C3  UNL     1      25.992  -0.776  53.739  1.00  0.00    -0.001 A 
HETATM   23  C2  UNL     1      27.003  -0.431  52.959  1.00  0.00    -0.063 A 
HETATM   24  C1  UNL     1      28.262  -1.193  53.054  1.00  0.00     0.048 C 
HETATM   25  C20 UNL     1      26.752   0.686  52.072  1.00  0.00     0.023 A 
HETATM   26  C19 UNL     1      25.600   1.341  52.022  1.00  0.00     0.089 A 
ENDBRANCH   1  20
BRANCH   3  27
HETATM   27  N2  UNL     1      24.033   5.689  53.186  1.00  0.00    -0.304 NA
HETATM   28  H9  UNL     1      24.695   5.495  53.983  1.00  0.00     0.124 HD
HETATM   29  H10 UNL     1      24.684   5.720  53.981  1.00  0.00     0.124 HD
ENDBRANCH   3  27
BRANCH  17  30
HETATM   30  O2  UNL     1      21.597  -0.357  52.074  1.00  0.00    -0.330 OA
HETATM   31  H23 UNL     1      21.291  -1.285  51.807  1.00  0.00     0.221 HD
ENDBRANCH  17  30
TORSDOF 3
ENDMDL
MODEL 5
REMARK VINA RESULT:      -7.9     11.997     14.181
REMARK  3 active torsions:
REMARK  status: ('A' for Active; 'I' for Inactive)
REMARK    1  A    between atoms: N1_5  and  C5_6 
REMARK    2  A    between atoms: C7_8  and  N2_9 
REMARK    3  A    between atoms: C18_23  and  O2_24 
ROOT
HETATM    1  C5  UNL     1      33.264   6.732  48.124  1.00  0.00     0.237 C 
HETATM    2  C6  UNL     1      34.092   7.350  47.037  1.00  0.00     0.042 C 
HETATM    3  C7  UNL     1      34.218   8.312  46.101  1.00  0.00     0.007 C 
HETATM    4  C8  UNL     1      33.102   9.240  45.999  1.00  0.00     0.226 C 
HETATM    5  O1  UNL     1      33.463  10.613  46.242  1.00  0.00    -0.346 OA
HETATM    6  C9  UNL     1      32.336  11.470  46.173  1.00  0.00     0.069 A 
HETATM    7  C10 UNL     1      31.906  12.293  45.160  1.00  0.00     0.037 A 
HETATM    8  C11 UNL     1      30.758  13.022  45.364  1.00  0.00     0.010 A 
HETATM    9  C12 UNL     1      30.058  12.932  46.549  1.00  0.00    -0.054 A 
HETATM   10  C13 UNL     1      28.827  13.722  46.751  1.00  0.00     0.049 C 
HETATM   11  C14 UNL     1      30.471  12.102  47.600  1.00  0.00    -0.032 A 
HETATM   12  C15 UNL     1      31.622  11.384  47.369  1.00  0.00     0.046 A 
HETATM   13  C16 UNL     1      29.664  12.056  48.841  1.00  0.00     0.159 C 
HETATM   14  N3  UNL     1      29.312  10.682  49.137  1.00  0.00    -0.380 N 
HETATM   15  C17 UNL     1      30.153   9.567  49.406  1.00  0.00     0.207 C 
HETATM   16  N4  UNL     1      30.516   8.440  48.896  1.00  0.00    -0.203 NA
HETATM   17  C18 UNL     1      31.422   7.552  49.491  1.00  0.00     0.264 C 
HETATM   18  N5  UNL     1      32.086   7.485  48.398  1.00  0.00    -0.219 NA
HETATM   19  H21 UNL     1      28.374  10.185  49.223  1.00  0.00     0.160 HD
ENDROOT
BRANCH   1  20
HETATM   20  N1  UNL     1      33.023   5.367  47.773  1.00  0.00    -0.361 N 
HETATM   21  C4  UNL     1      31.749   4.968  47.217  1.00  0.00     0.152 A 
HETATM   22  C3  UNL     1      31.735   3.491  46.927  1.00  0.00    -0.001 A 
HETATM   23  C2  UNL     1      32.714   2.625  47.130  1.00  0.00    -0.063 A 
HETATM   24  C1  UNL     1      32.493   1.211  46.775  1.00  0.00     0.048 C 
HETATM   25  C20 UNL     1      33.927   3.179  47.694  1.00  0.00     0.023 A 
HETATM   26  C19 UNL     1      34.080   4.461  47.998  1.00  0.00     0.089 A 
ENDBRANCH   1  20
BRANCH   3  27
HETATM   27  N2  UNL     1      35.191   8.693  45.131  1.00  0.00    -0.304 NA
HETATM   28  H9  UNL     1      34.671   8.949  44.251  1.00  0.00     0.124 HD
HETATM   29  H10 UNL     1      34.885   8.982  44.193  1.00  0.00     0.124 HD
ENDBRANCH   3  27
BRANCH  17  30
HETATM   30  O2  UNL     1      31.908   6.795  50.548  1.00  0.00    -0.330 OA
HETATM   31  H23 UNL     1      31.293   6.361  51.227  1.00  0.00     0.221 HD
ENDBRANCH  17  30
TORSDOF 3
ENDMDL
MODEL 6
REMARK VINA RESULT:      -7.8      2.779      8.060
REMARK  3 active torsions:
REMARK  status: ('A' for Active; 'I' for Inactive)
REMARK    1  A    between atoms: N1_5  and  C5_6 
REMARK    2  A    between atoms: C7_8  and  N2_9 
REMARK    3  A    between atoms: C18_23  and  O2_24 
ROOT
HETATM    1  C5  UNL     1      17.685  -0.109  51.558  1.00  0.00     0.237 C 
HETATM    2  C6  UNL     1      18.111   0.662  50.343  1.00  0.00     0.042 C 
HETATM    3  C7  UNL     1      19.047   1.421  49.740  1.00  0.00     0.007 C 
HETATM    4  C8  UNL     1      20.243   1.686  50.525  1.00  0.00     0.226 C 
HETATM    5  O1  UNL     1      21.457   1.205  49.917  1.00  0.00    -0.346 OA
HETATM    6  C9  UNL     1      22.586   1.449  50.739  1.00  0.00     0.069 A 
HETATM    7  C10 UNL     1      23.542   2.434  50.667  1.00  0.00     0.037 A 
HETATM    8  C11 UNL     1      24.540   2.436  51.613  1.00  0.00     0.010 A 
HETATM    9  C12 UNL     1      24.584   1.478  52.604  1.00  0.00    -0.054 A 
HETATM   10  C13 UNL     1      25.663   1.495  53.611  1.00  0.00     0.049 C 
HETATM   11  C14 UNL     1      23.624   0.461  52.704  1.00  0.00    -0.032 A 
HETATM   12  C15 UNL     1      22.637   0.484  51.745  1.00  0.00     0.046 A 
HETATM   13  C16 UNL     1      23.737  -0.530  53.799  1.00  0.00     0.159 C 
HETATM   14  N3  UNL     1      22.495  -0.569  54.543  1.00  0.00    -0.380 N 
HETATM   15  C17 UNL     1      21.184  -0.906  54.104  1.00  0.00     0.207 C 
HETATM   16  N4  UNL     1      20.026  -0.374  53.906  1.00  0.00    -0.203 NA
HETATM   17  C18 UNL     1      18.901  -1.067  53.438  1.00  0.00     0.264 C 
HETATM   18  N5  UNL     1      18.711  -0.171  52.544  1.00  0.00    -0.219 NA
HETATM   19  H21 UNL     1      22.262  -0.364  55.561  1.00  0.00     0.160 HD
ENDROOT
BRANCH   1  20
HETATM   20  N1  UNL     1      16.453   0.446  52.023  1.00  0.00    -0.361 N 
HETATM   21  C4  UNL     1      15.449  -0.403  52.626  1.00  0.00     0.152 A 
HETATM   22  C3  UNL     1      14.247   0.404  53.036  1.00  0.00    -0.001 A 
HETATM   23  C2  UNL     1      14.069   1.707  52.892  1.00  0.00    -0.063 A 
HETATM   24  C1  UNL     1      12.807   2.306  53.365  1.00  0.00     0.048 C 
HETATM   25  C20 UNL     1      15.165   2.419  52.270  1.00  0.00     0.023 A 
HETATM   26  C19 UNL     1      16.284   1.836  51.860  1.00  0.00     0.089 A 
ENDBRANCH   1  20
BRANCH   3  27
HETATM   27  N2  UNL     1      19.201   2.071  48.480  1.00  0.00    -0.304 NA
HETATM   28  H9  UNL     1      19.200   1.321  47.740  1.00  0.00     0.124 HD
HETATM   29  H10 UNL     1      19.225   1.509  47.620  1.00  0.00     0.124 HD
ENDBRANCH   3  27
BRANCH  17  30
HETATM   30  O2  UNL     1      17.993  -2.116  53.454  1.00  0.00    -0.330 OA
HETATM   31  H23 UNL     1      17.099  -2.062  52.978  1.00  0.00     0.221 HD
ENDBRANCH  17  30
TORSDOF 3
ENDMDL
MODEL 7
REMARK VINA RESULT:      -7.7      2.163      2.799
REMARK  3 active torsions:
REMARK  status: ('A' for Active; 'I' for Inactive)
REMARK    1  A    between atoms: N1_5  and  C5_6 
REMARK    2  A    between atoms: C7_8  and  N2_9 
REMARK    3  A    between atoms: C18_23  and  O2_24 
ROOT
HETATM    1  C5  UNL     1      23.916   1.724  53.481  1.00  0.00     0.237 C 
HETATM    2  C6  UNL     1      24.119   3.179  53.176  1.00  0.00     0.042 C 
HETATM    3  C7  UNL     1      23.796   4.245  52.417  1.00  0.00     0.007 C 
HETATM    4  C8  UNL     1      22.806   4.001  51.379  1.00  0.00     0.226 C 
HETATM    5  O1  UNL     1      21.616   4.802  51.511  1.00  0.00    -0.346 OA
HETATM    6  C9  UNL     1      20.667   4.497  50.503  1.00  0.00     0.069 A 
HETATM    7  C10 UNL     1      20.368   5.156  49.335  1.00  0.00     0.037 A 
HETATM    8  C11 UNL     1      19.388   4.627  48.527  1.00  0.00     0.010 A 
HETATM    9  C12 UNL     1      18.723   3.471  48.878  1.00  0.00    -0.054 A 
HETATM   10  C13 UNL     1      17.674   2.918  47.999  1.00  0.00     0.049 C 
HETATM   11  C14 UNL     1      19.005   2.777  50.062  1.00  0.00    -0.032 A 
HETATM   12  C15 UNL     1      19.989   3.328  50.851  1.00  0.00     0.046 A 
HETATM   13  C16 UNL     1      18.250   1.540  50.369  1.00  0.00     0.159 C 
HETATM   14  N3  UNL     1      19.180   0.457  50.615  1.00  0.00    -0.380 N 
HETATM   15  C17 UNL     1      20.183   0.330  51.616  1.00  0.00     0.207 C 
HETATM   16  N4  UNL     1      21.464   0.289  51.752  1.00  0.00    -0.203 NA
HETATM   17  C18 UNL     1      22.131   0.146  52.976  1.00  0.00     0.264 C 
HETATM   18  N5  UNL     1      22.875   1.150  52.696  1.00  0.00    -0.219 NA
HETATM   19  H21 UNL     1      19.339  -0.477  50.128  1.00  0.00     0.160 HD
ENDROOT
BRANCH   1  20
HETATM   20  N1  UNL     1      25.180   1.067  53.356  1.00  0.00    -0.361 N 
HETATM   21  C4  UNL     1      25.729   0.777  52.050  1.00  0.00     0.152 A 
HETATM   22  C3  UNL     1      27.061   0.088  52.174  1.00  0.00    -0.001 A 
HETATM   23  C2  UNL     1      27.694  -0.236  53.289  1.00  0.00    -0.063 A 
HETATM   24  C1  UNL     1      29.001  -0.913  53.190  1.00  0.00     0.048 C 
HETATM   25  C20 UNL     1      27.015   0.121  54.517  1.00  0.00     0.023 A 
HETATM   26  C19 UNL     1      25.838   0.731  54.557  1.00  0.00     0.089 A 
ENDBRANCH   1  20
BRANCH   3  27
HETATM   27  N2  UNL     1      24.174   5.618  52.343  1.00  0.00    -0.304 NA
HETATM   28  H9  UNL     1      23.331   6.189  52.615  1.00  0.00     0.124 HD
HETATM   29  H10 UNL     1      23.486   6.346  52.573  1.00  0.00     0.124 HD
ENDBRANCH   3  27
BRANCH  17  30
HETATM   30  O2  UNL     1      22.365  -0.465  54.199  1.00  0.00    -0.330 OA
HETATM   31  H23 UNL     1      22.230  -1.460  54.339  1.00  0.00     0.221 HD
ENDBRANCH  17  30
TORSDOF 3
ENDMDL
MODEL 8
REMARK VINA RESULT:      -7.6      3.986      8.292
REMARK  3 active torsions:
REMARK  status: ('A' for Active; 'I' for Inactive)
REMARK    1  A    between atoms: N1_5  and  C5_6 
REMARK    2  A    between atoms: C7_8  and  N2_9 
REMARK    3  A    between atoms: C18_23  and  O2_24 
ROOT
HETATM    1  C5  UNL     1      22.553   5.234  48.976  1.00  0.00     0.237 C 
HETATM    2  C6  UNL     1      21.356   4.775  49.756  1.00  0.00     0.042 C 
HETATM    3  C7  UNL     1      20.814   3.865  50.589  1.00  0.00     0.007 C 
HETATM    4  C8  UNL     1      21.693   2.776  50.989  1.00  0.00     0.226 C 
HETATM    5  O1  UNL     1      21.911   2.698  52.411  1.00  0.00    -0.346 OA
HETATM    6  C9  UNL     1      22.806   1.650  52.746  1.00  0.00     0.069 A 
HETATM    7  C10 UNL     1      22.557   0.388  53.227  1.00  0.00     0.037 A 
HETATM    8  C11 UNL     1      23.631  -0.436  53.464  1.00  0.00     0.010 A 
HETATM    9  C12 UNL     1      24.922  -0.011  53.228  1.00  0.00    -0.054 A 
HETATM   10  C13 UNL     1      26.064  -0.909  53.488  1.00  0.00     0.049 C 
HETATM   11  C14 UNL     1      25.208   1.271  52.738  1.00  0.00    -0.032 A 
HETATM   12  C15 UNL     1      24.114   2.074  52.509  1.00  0.00     0.046 A 
HETATM   13  C16 UNL     1      26.620   1.654  52.506  1.00  0.00     0.159 C 
HETATM   14  N3  UNL     1      26.776   2.116  51.142  1.00  0.00    -0.380 N 
HETATM   15  C17 UNL     1      26.161   3.214  50.479  1.00  0.00     0.207 C 
HETATM   16  N4  UNL     1      25.317   3.473  49.539  1.00  0.00    -0.203 NA
HETATM   17  C18 UNL     1      24.936   4.761  49.143  1.00  0.00     0.264 C 
HETATM   18  N5  UNL     1      23.702   4.432  49.231  1.00  0.00    -0.219 NA
HETATM   19  H21 UNL     1      27.366   1.764  50.328  1.00  0.00     0.160 HD
ENDROOT
BRANCH   1  20
HETATM   20  N1  UNL     1      22.179   5.309  47.598  1.00  0.00    -0.361 N 
HETATM   21  C4  UNL     1      22.006   6.593  46.955  1.00  0.00     0.152 A 
HETATM   22  C3  UNL     1      21.617   6.417  45.512  1.00  0.00    -0.001 A 
HETATM   23  C2  UNL     1      21.440   5.278  44.863  1.00  0.00    -0.063 A 
HETATM   24  C1  UNL     1      21.056   5.326  43.440  1.00  0.00     0.048 C 
HETATM   25  C20 UNL     1      21.650   4.078  45.644  1.00  0.00     0.023 A 
HETATM   26  C19 UNL     1      21.996   4.084  46.925  1.00  0.00     0.089 A 
ENDBRANCH   1  20
BRANCH   3  27
HETATM   27  N2  UNL     1      19.552   3.659  51.220  1.00  0.00    -0.304 NA
HETATM   28  H9  UNL     1      19.643   3.996  52.215  1.00  0.00     0.124 HD
HETATM   29  H10 UNL     1      19.430   3.926  52.206  1.00  0.00     0.124 HD
ENDBRANCH   3  27
BRANCH  17  30
HETATM   30  O2  UNL     1      25.193   6.067  48.749  1.00  0.00    -0.330 OA
HETATM   31  H23 UNL     1      26.031   6.321  48.239  1.00  0.00     0.221 HD
ENDBRANCH  17  30
TORSDOF 3
ENDMDL
MODEL 9
REMARK VINA RESULT:      -7.4      5.366      8.300
REMARK  3 active torsions:
REMARK  status: ('A' for Active; 'I' for Inactive)
REMARK    1  A    between atoms: N1_5  and  C5_6 
REMARK    2  A    between atoms: C7_8  and  N2_9 
REMARK    3  A    between atoms: C18_23  and  O2_24 
ROOT
HETATM    1  C5  UNL     1      24.645   7.173  49.074  1.00  0.00     0.237 C 
HETATM    2  C6  UNL     1      23.288   7.569  49.576  1.00  0.00     0.042 C 
HETATM    3  C7  UNL     1      22.125   7.196  50.147  1.00  0.00     0.007 C 
HETATM    4  C8  UNL     1      22.012   5.783  50.477  1.00  0.00     0.226 C 
HETATM    5  O1  UNL     1      21.804   5.528  51.879  1.00  0.00    -0.346 OA
HETATM    6  C9  UNL     1      21.743   4.138  52.154  1.00  0.00     0.069 A 
HETATM    7  C10 UNL     1      20.659   3.321  52.365  1.00  0.00     0.037 A 
HETATM    8  C11 UNL     1      20.893   1.988  52.610  1.00  0.00     0.010 A 
HETATM    9  C12 UNL     1      22.177   1.485  52.646  1.00  0.00    -0.054 A 
HETATM   10  C13 UNL     1      22.410   0.052  52.910  1.00  0.00     0.049 C 
HETATM   11  C14 UNL     1      23.302   2.293  52.435  1.00  0.00    -0.032 A 
HETATM   12  C15 UNL     1      23.039   3.622  52.191  1.00  0.00     0.046 A 
HETATM   13  C16 UNL     1      24.649   1.679  52.485  1.00  0.00     0.159 C 
HETATM   14  N3  UNL     1      25.363   1.982  51.261  1.00  0.00    -0.380 N 
HETATM   15  C17 UNL     1      25.739   3.241  50.717  1.00  0.00     0.207 C 
HETATM   16  N4  UNL     1      25.482   4.021  49.722  1.00  0.00    -0.203 NA
HETATM   17  C18 UNL     1      26.093   5.263  49.506  1.00  0.00     0.264 C 
HETATM   18  N5  UNL     1      24.945   5.809  49.351  1.00  0.00    -0.219 NA
HETATM   19  H21 UNL     1      25.767   1.363  50.494  1.00  0.00     0.160 HD
ENDROOT
BRANCH   1  20
HETATM   20  N1  UNL     1      24.724   7.525  47.691  1.00  0.00    -0.361 N 
HETATM   21  C4  UNL     1      25.890   8.206  47.174  1.00  0.00     0.152 A 
HETATM   22  C3  UNL     1      25.743   8.468  45.699  1.00  0.00    -0.001 A 
HETATM   23  C2  UNL     1      24.719   8.147  44.926  1.00  0.00    -0.063 A 
HETATM   24  C1  UNL     1      24.774   8.496  43.495  1.00  0.00     0.048 C 
HETATM   25  C20 UNL     1      23.626   7.469  45.592  1.00  0.00     0.023 A 
HETATM   26  C19 UNL     1      23.621   7.174  46.886  1.00  0.00     0.089 A 
ENDBRANCH   1  20
BRANCH   3  27
HETATM   27  N2  UNL     1      20.912   7.833  50.540  1.00  0.00    -0.304 NA
HETATM   28  H9  UNL     1      20.118   7.258  50.153  1.00  0.00     0.124 HD
HETATM   29  H10 UNL     1      20.011   7.424  50.259  1.00  0.00     0.124 HD
ENDBRANCH   3  27
BRANCH  17  30
HETATM   30  O2  UNL     1      27.190   6.105  49.389  1.00  0.00    -0.330 OA
HETATM   31  H23 UNL     1      27.742   6.155  48.540  1.00  0.00     0.221 HD
ENDBRANCH  17  30
TORSDOF 3
ENDMDL
