MODEL 1
REMARK VINA RESULT:      -6.9      0.000      0.000
REMARK  6 active torsions:
REMARK  status: ('A' for Active; 'I' for Inactive)
REMARK    1  A    between atoms: C5_5  and  C6_6 
REMARK       I    between atoms: C6_6  and  N1_8 
REMARK    2  A    between atoms: N1_8  and  S1_9 
REMARK    3  A    between atoms: S1_9  and  C7_12 
REMARK    4  A    between atoms: C7_12  and  C8_13 
REMARK    5  A    between atoms: C9_14  and  C10_15 
REMARK    6  A    between atoms: C10_15  and  C11_16 
ROOT
HETATM    1  C6  UNL     1      23.366   0.129  53.128  1.00  0.00     0.268 C 
HETATM    2  O1  UNL     1      22.649  -0.928  53.125  1.00  0.00    -0.267 OA
HETATM    3  N1  UNL     1      22.633   1.332  53.120  1.00  0.00    -0.250 N 
HETATM    4  H6  UNL     1      23.174   2.223  53.122  1.00  0.00     0.181 HD
ENDROOT
BRANCH   3   5
HETATM    5  S1  UNL     1      20.939   1.105  53.108  1.00  0.00     0.236 S 
HETATM    6  O2  UNL     1      20.451   0.409  54.322  1.00  0.00    -0.205 OA
HETATM    7  O3  UNL     1      20.298   2.472  53.046  1.00  0.00    -0.205 OA
BRANCH   5   8
HETATM    8  C7  UNL     1      20.513   0.234  51.602  1.00  0.00     0.190 C 
BRANCH   8   9
HETATM    9  C8  UNL     1      19.142   0.609  51.204  1.00  0.00    -0.010 C 
HETATM   10  C9  UNL     1      18.116  -0.048  51.714  1.00  0.00    -0.004 C 
BRANCH  10  11
HETATM   11  C10 UNL     1      17.847  -1.153  52.651  1.00  0.00     0.012 C 
BRANCH  11  12
HETATM   12  C11 UNL     1      17.672  -2.177  53.462  1.00  0.00     0.441 C 
HETATM   13  F1  UNL     1      18.955  -2.347  53.866  1.00  0.00    -0.452 F 
ENDBRANCH  11  12
ENDBRANCH  10  11
ENDBRANCH   8   9
ENDBRANCH   5   8
ENDBRANCH   3   5
BRANCH   1  14
HETATM   14  C5  UNL     1      24.818   0.014  53.137  1.00  0.00     0.073 A 
HETATM   15  C4  UNL     1      25.683   0.449  52.156  1.00  0.00     0.022 A 
HETATM   16  C3  UNL     1      27.049   0.293  52.258  1.00  0.00     0.028 A 
HETATM   17  C2  UNL     1      27.520  -0.332  53.409  1.00  0.00     0.032 A 
HETATM   18  C1  UNL     1      28.987  -0.547  53.605  1.00  0.00     0.070 C 
HETATM   19  N2  UNL     1      26.685  -0.768  54.383  1.00  0.00    -0.241 NA
HETATM   20  C12 UNL     1      25.338  -0.601  54.260  1.00  0.00     0.142 A 
HETATM   21 CL1  UNL     1      24.336  -1.196  55.572  1.00  0.00    -0.061 Cl
ENDBRANCH   1  14
TORSDOF 6
ENDMDL
MODEL 2
REMARK VINA RESULT:      -6.8      2.898      3.185
REMARK  6 active torsions:
REMARK  status: ('A' for Active; 'I' for Inactive)
REMARK    1  A    between atoms: C5_5  and  C6_6 
REMARK       I    between atoms: C6_6  and  N1_8 
REMARK    2  A    between atoms: N1_8  and  S1_9 
REMARK    3  A    between atoms: S1_9  and  C7_12 
REMARK    4  A    between atoms: C7_12  and  C8_13 
REMARK    5  A    between atoms: C9_14  and  C10_15 
REMARK    6  A    between atoms: C10_15  and  C11_16 
ROOT
HETATM    1  C6  UNL     1      25.502   2.208  52.854  1.00  0.00     0.268 C 
HETATM    2  O1  UNL     1      24.895   2.789  53.815  1.00  0.00    -0.267 OA
HETATM    3  N1  UNL     1      24.895   2.375  51.594  1.00  0.00    -0.250 N 
HETATM    4  H6  UNL     1      25.354   1.919  50.776  1.00  0.00     0.181 HD
ENDROOT
BRANCH   3   5
HETATM    5  S1  UNL     1      23.474   3.323  51.635  1.00  0.00     0.236 S 
HETATM    6  O2  UNL     1      23.660   4.592  52.377  1.00  0.00    -0.205 OA
HETATM    7  O3  UNL     1      23.104   3.649  50.207  1.00  0.00    -0.205 OA
BRANCH   5   8
HETATM    8  C7  UNL     1      22.163   2.315  52.322  1.00  0.00     0.190 C 
BRANCH   8   9
HETATM    9  C8  UNL     1      21.919   1.169  51.424  1.00  0.00    -0.010 C 
HETATM   10  C9  UNL     1      21.590  -0.001  51.941  1.00  0.00    -0.004 C 
BRANCH  10  11
HETATM   11  C10 UNL     1      21.357  -0.618  53.259  1.00  0.00     0.012 C 
BRANCH  11  12
HETATM   12  C11 UNL     1      21.227  -1.178  54.444  1.00  0.00     0.441 C 
HETATM   13  F1  UNL     1      21.652  -0.144  55.212  1.00  0.00    -0.452 F 
ENDBRANCH  11  12
ENDBRANCH  10  11
ENDBRANCH   8   9
ENDBRANCH   5   8
ENDBRANCH   3   5
BRANCH   1  14
HETATM   14  C5  UNL     1      26.718   1.452  53.123  1.00  0.00     0.073 A 
HETATM   15  C4  UNL     1      27.999   1.957  53.200  1.00  0.00     0.022 A 
HETATM   16  C3  UNL     1      29.090   1.155  53.459  1.00  0.00     0.028 A 
HETATM   17  C2  UNL     1      28.837  -0.201  53.641  1.00  0.00     0.032 A 
HETATM   18  C1  UNL     1      29.961  -1.147  53.925  1.00  0.00     0.070 C 
HETATM   19  N2  UNL     1      27.586  -0.715  53.568  1.00  0.00    -0.241 NA
HETATM   20  C12 UNL     1      26.522   0.098  53.311  1.00  0.00     0.142 A 
HETATM   21 CL1  UNL     1      24.940  -0.658  53.236  1.00  0.00    -0.061 Cl
ENDBRANCH   1  14
TORSDOF 6
ENDMDL
MODEL 3
REMARK VINA RESULT:      -6.5      2.162      2.913
REMARK  6 active torsions:
REMARK  status: ('A' for Active; 'I' for Inactive)
REMARK    1  A    between atoms: C5_5  and  C6_6 
REMARK       I    between atoms: C6_6  and  N1_8 
REMARK    2  A    between atoms: N1_8  and  S1_9 
REMARK    3  A    between atoms: S1_9  and  C7_12 
REMARK    4  A    between atoms: C7_12  and  C8_13 
REMARK    5  A    between atoms: C9_14  and  C10_15 
REMARK    6  A    between atoms: C10_15  and  C11_16 
ROOT
HETATM    1  C6  UNL     1      23.370   0.066  53.122  1.00  0.00     0.268 C 
HETATM    2  O1  UNL     1      22.680  -1.004  53.036  1.00  0.00    -0.267 OA
HETATM    3  N1  UNL     1      22.608   1.251  53.153  1.00  0.00    -0.250 N 
HETATM    4  H6  UNL     1      23.127   2.153  53.223  1.00  0.00     0.181 HD
ENDROOT
BRANCH   3   5
HETATM    5  S1  UNL     1      20.922   0.987  53.067  1.00  0.00     0.236 S 
HETATM    6  O2  UNL     1      20.405   0.240  54.238  1.00  0.00    -0.205 OA
HETATM    7  O3  UNL     1      20.252   2.340  53.025  1.00  0.00    -0.205 OA
BRANCH   5   8
HETATM    8  C7  UNL     1      20.575   0.157  51.519  1.00  0.00     0.190 C 
BRANCH   8   9
HETATM    9  C8  UNL     1      19.556   0.929  50.780  1.00  0.00    -0.010 C 
HETATM   10  C9  UNL     1      19.880   1.501  49.636  1.00  0.00    -0.004 C 
BRANCH  10  11
HETATM   11  C10 UNL     1      21.047   1.647  48.746  1.00  0.00     0.012 C 
BRANCH  11  12
HETATM   12  C11 UNL     1      22.135   1.756  48.012  1.00  0.00     0.441 C 
HETATM   13  F1  UNL     1      22.996   2.176  48.972  1.00  0.00    -0.452 F 
ENDBRANCH  11  12
ENDBRANCH  10  11
ENDBRANCH   8   9
ENDBRANCH   5   8
ENDBRANCH   3   5
BRANCH   1  14
HETATM   14  C5  UNL     1      24.824  -0.016  53.178  1.00  0.00     0.073 A 
HETATM   15  C4  UNL     1      25.709   0.431  52.220  1.00  0.00     0.022 A 
HETATM   16  C3  UNL     1      27.074   0.305  52.366  1.00  0.00     0.028 A 
HETATM   17  C2  UNL     1      27.522  -0.300  53.537  1.00  0.00     0.032 A 
HETATM   18  C1  UNL     1      28.987  -0.479  53.780  1.00  0.00     0.070 C 
HETATM   19  N2  UNL     1      26.667  -0.745  54.488  1.00  0.00    -0.241 NA
HETATM   20  C12 UNL     1      25.321  -0.609  54.322  1.00  0.00     0.142 A 
HETATM   21 CL1  UNL     1      24.292  -1.216  55.607  1.00  0.00    -0.061 Cl
ENDBRANCH   1  14
TORSDOF 6
ENDMDL
MODEL 4
REMARK VINA RESULT:      -6.4      3.350      7.337
REMARK  6 active torsions:
REMARK  status: ('A' for Active; 'I' for Inactive)
REMARK    1  A    between atoms: C5_5  and  C6_6 
REMARK       I    between atoms: C6_6  and  N1_8 
REMARK    2  A    between atoms: N1_8  and  S1_9 
REMARK    3  A    between atoms: S1_9  and  C7_12 
REMARK    4  A    between atoms: C7_12  and  C8_13 
REMARK    5  A    between atoms: C9_14  and  C10_15 
REMARK    6  A    between atoms: C10_15  and  C11_16 
ROOT
HETATM    1  C6  UNL     1      22.226   1.456  52.218  1.00  0.00     0.268 C 
HETATM    2  O1  UNL     1      22.291   2.701  52.491  1.00  0.00    -0.267 OA
HETATM    3  N1  UNL     1      23.471   0.846  51.968  1.00  0.00    -0.250 N 
HETATM    4  H6  UNL     1      23.470  -0.171  51.741  1.00  0.00     0.181 HD
ENDROOT
BRANCH   3   5
HETATM    5  S1  UNL     1      24.797   1.917  52.086  1.00  0.00     0.236 S 
HETATM    6  O2  UNL     1      24.706   3.041  51.124  1.00  0.00    -0.205 OA
HETATM    7  O3  UNL     1      24.801   2.483  53.487  1.00  0.00    -0.205 OA
BRANCH   5   8
HETATM    8  C7  UNL     1      26.295   0.960  51.879  1.00  0.00     0.190 C 
BRANCH   8   9
HETATM    9  C8  UNL     1      26.096  -0.376  52.476  1.00  0.00    -0.010 C 
HETATM   10  C9  UNL     1      27.116  -0.988  53.049  1.00  0.00    -0.004 C 
BRANCH  10  11
HETATM   11  C10 UNL     1      28.546  -0.763  53.326  1.00  0.00     0.012 C 
BRANCH  11  12
HETATM   12  C11 UNL     1      29.831  -0.639  53.592  1.00  0.00     0.441 C 
HETATM   13  F1  UNL     1      30.128  -1.944  53.808  1.00  0.00    -0.452 F 
ENDBRANCH  11  12
ENDBRANCH  10  11
ENDBRANCH   8   9
ENDBRANCH   5   8
ENDBRANCH   3   5
BRANCH   1  14
HETATM   14  C5  UNL     1      20.929   0.792  52.187  1.00  0.00     0.073 A 
HETATM   15  C4  UNL     1      20.013   0.827  51.158  1.00  0.00     0.022 A 
HETATM   16  C3  UNL     1      18.806   0.163  51.225  1.00  0.00     0.028 A 
HETATM   17  C2  UNL     1      18.552  -0.550  52.393  1.00  0.00     0.032 A 
HETATM   18  C1  UNL     1      17.268  -1.300  52.555  1.00  0.00     0.070 C 
HETATM   19  N2  UNL     1      19.440  -0.595  53.415  1.00  0.00    -0.241 NA
HETATM   20  C12 UNL     1      20.627   0.069  53.325  1.00  0.00     0.142 A 
HETATM   21 CL1  UNL     1      21.713  -0.048  54.698  1.00  0.00    -0.061 Cl
ENDBRANCH   1  14
TORSDOF 6
ENDMDL
MODEL 5
REMARK VINA RESULT:      -6.4      2.611      3.002
REMARK  6 active torsions:
REMARK  status: ('A' for Active; 'I' for Inactive)
REMARK    1  A    between atoms: C5_5  and  C6_6 
REMARK       I    between atoms: C6_6  and  N1_8 
REMARK    2  A    between atoms: N1_8  and  S1_9 
REMARK    3  A    between atoms: S1_9  and  C7_12 
REMARK    4  A    between atoms: C7_12  and  C8_13 
REMARK    5  A    between atoms: C9_14  and  C10_15 
REMARK    6  A    between atoms: C10_15  and  C11_16 
ROOT
HETATM    1  C6  UNL     1      23.569   1.606  52.070  1.00  0.00     0.268 C 
HETATM    2  O1  UNL     1      23.247   2.648  52.733  1.00  0.00    -0.267 OA
HETATM    3  N1  UNL     1      22.700   1.300  51.004  1.00  0.00    -0.250 N 
HETATM    4  H6  UNL     1      22.922   0.457  50.432  1.00  0.00     0.181 HD
ENDROOT
BRANCH   3   5
HETATM    5  S1  UNL     1      21.403   2.399  50.837  1.00  0.00     0.236 S 
HETATM    6  O2  UNL     1      21.861   3.803  50.709  1.00  0.00    -0.205 OA
HETATM    7  O3  UNL     1      20.647   2.023  49.584  1.00  0.00    -0.205 OA
BRANCH   5   8
HETATM    8  C7  UNL     1      20.303   2.164  52.230  1.00  0.00     0.190 C 
BRANCH   8   9
HETATM    9  C8  UNL     1      19.411   1.021  51.949  1.00  0.00    -0.010 C 
HETATM   10  C9  UNL     1      19.606  -0.123  52.579  1.00  0.00    -0.004 C 
BRANCH  10  11
HETATM   11  C10 UNL     1      20.513  -0.710  53.581  1.00  0.00     0.012 C 
BRANCH  11  12
HETATM   12  C11 UNL     1      21.368  -1.169  54.473  1.00  0.00     0.441 C 
HETATM   13  F1  UNL     1      21.834   0.013  54.946  1.00  0.00    -0.452 F 
ENDBRANCH  11  12
ENDBRANCH  10  11
ENDBRANCH   8   9
ENDBRANCH   5   8
ENDBRANCH   3   5
BRANCH   1  14
HETATM   14  C5  UNL     1      24.754   0.848  52.450  1.00  0.00     0.073 A 
HETATM   15  C4  UNL     1      24.797  -0.240  53.296  1.00  0.00     0.022 A 
HETATM   16  C3  UNL     1      25.975  -0.891  53.595  1.00  0.00     0.028 A 
HETATM   17  C2  UNL     1      27.130  -0.394  53.000  1.00  0.00     0.032 A 
HETATM   18  C1  UNL     1      28.454  -1.037  53.269  1.00  0.00     0.070 C 
HETATM   19  N2  UNL     1      27.107   0.674  52.168  1.00  0.00    -0.241 NA
HETATM   20  C12 UNL     1      25.930   1.301  51.885  1.00  0.00     0.142 A 
HETATM   21 CL1  UNL     1      25.999   2.676  50.797  1.00  0.00    -0.061 Cl
ENDBRANCH   1  14
TORSDOF 6
ENDMDL
MODEL 6
REMARK VINA RESULT:      -6.3      5.172      6.622
REMARK  6 active torsions:
REMARK  status: ('A' for Active; 'I' for Inactive)
REMARK    1  A    between atoms: C5_5  and  C6_6 
REMARK       I    between atoms: C6_6  and  N1_8 
REMARK    2  A    between atoms: N1_8  and  S1_9 
REMARK    3  A    between atoms: S1_9  and  C7_12 
REMARK    4  A    between atoms: C7_12  and  C8_13 
REMARK    5  A    between atoms: C9_14  and  C10_15 
REMARK    6  A    between atoms: C10_15  and  C11_16 
ROOT
HETATM    1  C6  UNL     1      25.816   3.510  50.576  1.00  0.00     0.268 C 
HETATM    2  O1  UNL     1      26.596   2.612  50.114  1.00  0.00    -0.267 OA
HETATM    3  N1  UNL     1      25.538   3.390  51.952  1.00  0.00    -0.250 N 
HETATM    4  H6  UNL     1      24.905   4.101  52.377  1.00  0.00     0.181 HD
ENDROOT
BRANCH   3   5
HETATM    5  S1  UNL     1      26.311   2.061  52.696  1.00  0.00     0.236 S 
HETATM    6  O2  UNL     1      27.702   1.874  52.221  1.00  0.00    -0.205 OA
HETATM    7  O3  UNL     1      26.343   2.328  54.184  1.00  0.00    -0.205 OA
BRANCH   5   8
HETATM    8  C7  UNL     1      25.295   0.612  52.424  1.00  0.00     0.190 C 
BRANCH   8   9
HETATM    9  C8  UNL     1      23.888   1.035  52.277  1.00  0.00    -0.010 C 
HETATM   10  C9  UNL     1      22.965   0.493  53.051  1.00  0.00    -0.004 C 
BRANCH  10  11
HETATM   11  C10 UNL     1      22.852  -0.502  54.133  1.00  0.00     0.012 C 
BRANCH  11  12
HETATM   12  C11 UNL     1      22.782  -1.338  55.148  1.00  0.00     0.441 C 
HETATM   13  F1  UNL     1      21.930  -2.248  54.613  1.00  0.00    -0.452 F 
ENDBRANCH  11  12
ENDBRANCH  10  11
ENDBRANCH   8   9
ENDBRANCH   5   8
ENDBRANCH   3   5
BRANCH   1  14
HETATM   14  C5  UNL     1      25.297   4.541  49.687  1.00  0.00     0.073 A 
HETATM   15  C4  UNL     1      25.892   5.750  49.397  1.00  0.00     0.022 A 
HETATM   16  C3  UNL     1      25.318   6.664  48.538  1.00  0.00     0.028 A 
HETATM   17  C2  UNL     1      24.098   6.306  47.972  1.00  0.00     0.032 A 
HETATM   18  C1  UNL     1      23.401   7.236  47.030  1.00  0.00     0.070 C 
HETATM   19  N2  UNL     1      23.499   5.122  48.246  1.00  0.00    -0.241 NA
HETATM   20  C12 UNL     1      24.086   4.234  49.098  1.00  0.00     0.142 A 
HETATM   21 CL1  UNL     1      23.236   2.728  49.391  1.00  0.00    -0.061 Cl
ENDBRANCH   1  14
TORSDOF 6
ENDMDL
MODEL 7
REMARK VINA RESULT:      -6.3      4.581      5.592
REMARK  6 active torsions:
REMARK  status: ('A' for Active; 'I' for Inactive)
REMARK    1  A    between atoms: C5_5  and  C6_6 
REMARK       I    between atoms: C6_6  and  N1_8 
REMARK    2  A    between atoms: N1_8  and  S1_9 
REMARK    3  A    between atoms: S1_9  and  C7_12 
REMARK    4  A    between atoms: C7_12  and  C8_13 
REMARK    5  A    between atoms: C9_14  and  C10_15 
REMARK    6  A    between atoms: C10_15  and  C11_16 
ROOT
HETATM    1  C6  UNL     1      24.246   4.051  50.443  1.00  0.00     0.268 C 
HETATM    2  O1  UNL     1      23.831   4.553  51.541  1.00  0.00    -0.267 OA
HETATM    3  N1  UNL     1      23.531   2.917  50.012  1.00  0.00    -0.250 N 
HETATM    4  H6  UNL     1      23.831   2.471  49.119  1.00  0.00     0.181 HD
ENDROOT
BRANCH   3   5
HETATM    5  S1  UNL     1      22.261   2.464  51.063  1.00  0.00     0.236 S 
HETATM    6  O2  UNL     1      21.202   3.496  51.150  1.00  0.00    -0.205 OA
HETATM    7  O3  UNL     1      21.652   1.193  50.517  1.00  0.00    -0.205 OA
BRANCH   5   8
HETATM    8  C7  UNL     1      22.980   2.084  52.658  1.00  0.00     0.190 C 
BRANCH   8   9
HETATM    9  C8  UNL     1      23.935   0.969  52.500  1.00  0.00    -0.010 C 
HETATM   10  C9  UNL     1      23.651  -0.208  53.028  1.00  0.00    -0.004 C 
BRANCH  10  11
HETATM   11  C10 UNL     1      22.583  -0.857  53.809  1.00  0.00     0.012 C 
BRANCH  11  12
HETATM   12  C11 UNL     1      21.676  -1.501  54.515  1.00  0.00     0.441 C 
HETATM   13  F1  UNL     1      21.181  -0.456  55.224  1.00  0.00    -0.452 F 
ENDBRANCH  11  12
ENDBRANCH  10  11
ENDBRANCH   8   9
ENDBRANCH   5   8
ENDBRANCH   3   5
BRANCH   1  14
HETATM   14  C5  UNL     1      25.374   4.662  49.753  1.00  0.00     0.073 A 
HETATM   15  C4  UNL     1      25.373   5.867  49.083  1.00  0.00     0.022 A 
HETATM   16  C3  UNL     1      26.498   6.362  48.458  1.00  0.00     0.028 A 
HETATM   17  C2  UNL     1      27.647   5.580  48.534  1.00  0.00     0.032 A 
HETATM   18  C1  UNL     1      28.914   6.036  47.884  1.00  0.00     0.070 C 
HETATM   19  N2  UNL     1      27.667   4.393  49.187  1.00  0.00    -0.241 NA
HETATM   20  C12 UNL     1      26.542   3.925  49.799  1.00  0.00     0.142 A 
HETATM   21 CL1  UNL     1      26.664   2.379  50.620  1.00  0.00    -0.061 Cl
ENDBRANCH   1  14
TORSDOF 6
ENDMDL
MODEL 8
REMARK VINA RESULT:      -6.2      4.499      5.447
REMARK  6 active torsions:
REMARK  status: ('A' for Active; 'I' for Inactive)
REMARK    1  A    between atoms: C5_5  and  C6_6 
REMARK       I    between atoms: C6_6  and  N1_8 
REMARK    2  A    between atoms: N1_8  and  S1_9 
REMARK    3  A    between atoms: S1_9  and  C7_12 
REMARK    4  A    between atoms: C7_12  and  C8_13 
REMARK    5  A    between atoms: C9_14  and  C10_15 
REMARK    6  A    between atoms: C10_15  and  C11_16 
ROOT
HETATM    1  C6  UNL     1      24.858   0.499  52.426  1.00  0.00     0.268 C 
HETATM    2  O1  UNL     1      23.836   0.174  53.118  1.00  0.00    -0.267 OA
HETATM    3  N1  UNL     1      24.595   1.419  51.392  1.00  0.00    -0.250 N 
HETATM    4  H6  UNL     1      25.399   1.716  50.799  1.00  0.00     0.181 HD
ENDROOT
BRANCH   3   5
HETATM    5  S1  UNL     1      22.957   1.896  51.296  1.00  0.00     0.236 S 
HETATM    6  O2  UNL     1      22.046   0.750  51.066  1.00  0.00    -0.205 OA
HETATM    7  O3  UNL     1      22.594   2.544  52.612  1.00  0.00    -0.205 OA
BRANCH   5   8
HETATM    8  C7  UNL     1      22.823   3.142  50.018  1.00  0.00     0.190 C 
BRANCH   8   9
HETATM    9  C8  UNL     1      23.223   4.448  50.579  1.00  0.00    -0.010 C 
HETATM   10  C9  UNL     1      24.457   4.881  50.398  1.00  0.00    -0.004 C 
BRANCH  10  11
HETATM   11  C10 UNL     1      25.711   4.454  49.753  1.00  0.00     0.012 C 
BRANCH  11  12
HETATM   12  C11 UNL     1      26.868   4.078  49.246  1.00  0.00     0.441 C 
HETATM   13  F1  UNL     1      27.060   5.103  48.378  1.00  0.00    -0.452 F 
ENDBRANCH  11  12
ENDBRANCH  10  11
ENDBRANCH   8   9
ENDBRANCH   5   8
ENDBRANCH   3   5
BRANCH   1  14
HETATM   14  C5  UNL     1      26.156  -0.080  52.744  1.00  0.00     0.073 A 
HETATM   15  C4  UNL     1      26.580  -1.358  52.447  1.00  0.00     0.022 A 
HETATM   16  C3  UNL     1      27.835  -1.815  52.793  1.00  0.00     0.028 A 
HETATM   17  C2  UNL     1      28.661  -0.918  53.463  1.00  0.00     0.032 A 
HETATM   18  C1  UNL     1      30.038  -1.327  53.879  1.00  0.00     0.070 C 
HETATM   19  N2  UNL     1      28.261   0.341  53.764  1.00  0.00    -0.241 NA
HETATM   20  C12 UNL     1      27.016   0.770  53.411  1.00  0.00     0.142 A 
HETATM   21 CL1  UNL     1      26.587   2.416  53.842  1.00  0.00    -0.061 Cl
ENDBRANCH   1  14
TORSDOF 6
ENDMDL
MODEL 9
REMARK VINA RESULT:      -6.2      4.296      7.532
REMARK  6 active torsions:
REMARK  status: ('A' for Active; 'I' for Inactive)
REMARK    1  A    between atoms: C5_5  and  C6_6 
REMARK       I    between atoms: C6_6  and  N1_8 
REMARK    2  A    between atoms: N1_8  and  S1_9 
REMARK    3  A    between atoms: S1_9  and  C7_12 
REMARK    4  A    between atoms: C7_12  and  C8_13 
REMARK    5  A    between atoms: C9_14  and  C10_15 
REMARK    6  A    between atoms: C10_15  and  C11_16 
ROOT
HETATM    1  C6  UNL     1      24.113   2.263  52.291  1.00  0.00     0.268 C 
HETATM    2  O1  UNL     1      24.575   1.315  51.571  1.00  0.00    -0.267 OA
HETATM    3  N1  UNL     1      24.986   2.705  53.304  1.00  0.00    -0.250 N 
HETATM    4  H6  UNL     1      24.654   3.479  53.919  1.00  0.00     0.181 HD
ENDROOT
BRANCH   3   5
HETATM    5  S1  UNL     1      26.475   1.868  53.343  1.00  0.00     0.236 S 
HETATM    6  O2  UNL     1      27.052   1.673  51.991  1.00  0.00    -0.205 OA
HETATM    7  O3  UNL     1      27.440   2.694  54.163  1.00  0.00    -0.205 OA
BRANCH   5   8
HETATM    8  C7  UNL     1      26.213   0.321  54.204  1.00  0.00     0.190 C 
BRANCH   8   9
HETATM    9  C8  UNL     1      26.265  -0.786  53.227  1.00  0.00    -0.010 C 
HETATM   10  C9  UNL     1      27.429  -1.334  52.931  1.00  0.00    -0.004 C 
BRANCH  10  11
HETATM   11  C10 UNL     1      28.853  -1.200  53.285  1.00  0.00     0.012 C 
BRANCH  11  12
HETATM   12  C11 UNL     1      30.106  -1.086  53.677  1.00  0.00     0.441 C 
HETATM   13  F1  UNL     1      30.225   0.263  53.607  1.00  0.00    -0.452 F 
ENDBRANCH  11  12
ENDBRANCH  10  11
ENDBRANCH   8   9
ENDBRANCH   5   8
ENDBRANCH   3   5
BRANCH   1  14
HETATM   14  C5  UNL     1      22.781   2.788  52.022  1.00  0.00     0.073 A 
HETATM   15  C4  UNL     1      22.478   3.942  51.331  1.00  0.00     0.022 A 
HETATM   16  C3  UNL     1      21.179   4.357  51.129  1.00  0.00     0.028 A 
HETATM   17  C2  UNL     1      20.177   3.550  51.660  1.00  0.00     0.032 A 
HETATM   18  C1  UNL     1      18.738   3.923  51.492  1.00  0.00     0.070 C 
HETATM   19  N2  UNL     1      20.457   2.414  52.343  1.00  0.00    -0.241 NA
HETATM   20  C12 UNL     1      21.749   2.023  52.529  1.00  0.00     0.142 A 
HETATM   21 CL1  UNL     1      22.013   0.537  53.424  1.00  0.00    -0.061 Cl
ENDBRANCH   1  14
TORSDOF 6
ENDMDL
