MODEL 1
REMARK VINA RESULT:      -7.6      0.000      0.000
REMARK  4 active torsions:
REMARK  status: ('A' for Active; 'I' for Inactive)
REMARK    1  A    between atoms: S1_2  and  C2_3 
REMARK       I    between atoms: C2_3  and  N1_5 
REMARK    2  A    between atoms: N1_5  and  C3_6 
REMARK    3  A    between atoms: C8_11  and  N2_12 
REMARK    4  A    between atoms: N2_12  and  C9_13 
ROOT
HETATM    1  C3  UNL     1      23.838   0.392  53.114  1.00  0.00     0.029 C 
HETATM    2  C4  UNL     1      24.008  -0.895  53.601  1.00  0.00     0.009 C 
HETATM    3  C5  UNL     1      25.425  -0.689  54.168  1.00  0.00     0.048 A 
HETATM    4  C6  UNL     1      26.065  -0.881  52.871  1.00  0.00    -0.020 A 
HETATM    5  C7  UNL     1      25.326   0.238  52.707  1.00  0.00     0.070 A 
HETATM    6  C8  UNL     1      25.593   1.741  53.099  1.00  0.00     0.045 C 
HETATM    7  C15 UNL     1      26.802   1.484  53.747  1.00  0.00     0.047 C 
HETATM    8  C16 UNL     1      28.009   2.180  53.469  1.00  0.00     0.097 C 
HETATM    9  N3  UNL     1      28.946   2.739  53.264  1.00  0.00    -0.192 NA
HETATM   10  C17 UNL     1      26.124   0.423  54.718  1.00  0.00     0.065 C 
ENDROOT
BRANCH   6  11
HETATM   11  N2  UNL     1      25.144   3.076  52.915  1.00  0.00    -0.357 N 
HETATM   12  H8  UNL     1      25.100   3.834  53.613  1.00  0.00     0.166 HD
BRANCH  11  13
HETATM   13  C9  UNL     1      24.647   3.610  51.699  1.00  0.00     0.033 A 
HETATM   14  C10 UNL     1      25.002   3.127  50.466  1.00  0.00     0.029 A 
HETATM   15  C11 UNL     1      24.505   3.643  49.275  1.00  0.00     0.004 A 
HETATM   16  C12 UNL     1      23.610   4.696  49.350  1.00  0.00     0.019 A 
HETATM   17  C13 UNL     1      23.223   5.215  50.574  1.00  0.00     0.013 A 
HETATM   18 BR1  UNL     1      21.991   6.666  50.686  1.00  0.00    -0.051 Br
HETATM   19  C14 UNL     1      23.754   4.657  51.723  1.00  0.00     0.048 A 
ENDBRANCH  11  13
ENDBRANCH   6  11
BRANCH   1  20
HETATM   20  N1  UNL     1      22.579   1.013  53.222  1.00  0.00    -0.321 N 
HETATM   21  C2  UNL     1      21.808   1.365  52.113  1.00  0.00     0.275 C 
HETATM   22  O1  UNL     1      22.120   1.183  50.911  1.00  0.00    -0.261 OA
HETATM   23  H4  UNL     1      22.397   1.129  54.234  1.00  0.00     0.169 HD
BRANCH  21  24
HETATM   24  S1  UNL     1      20.305   2.119  52.642  1.00  0.00    -0.126 SA
HETATM   25  C1  UNL     1      20.149   3.464  51.771  1.00  0.00     0.059 C 
HETATM   26  H3  UNL     1      20.339   2.526  53.975  1.00  0.00     0.104 HD
ENDBRANCH  21  24
ENDBRANCH   1  20
TORSDOF 4
ENDMDL
MODEL 2
REMARK VINA RESULT:      -7.4      2.943      5.418
REMARK  4 active torsions:
REMARK  status: ('A' for Active; 'I' for Inactive)
REMARK    1  A    between atoms: S1_2  and  C2_3 
REMARK       I    between atoms: C2_3  and  N1_5 
REMARK    2  A    between atoms: N1_5  and  C3_6 
REMARK    3  A    between atoms: C8_11  and  N2_12 
REMARK    4  A    between atoms: N2_12  and  C9_13 
ROOT
HETATM    1  C3  UNL     1      22.472   2.084  51.070  1.00  0.00     0.029 C 
HETATM    2  C4  UNL     1      21.193   2.028  50.538  1.00  0.00     0.009 C 
HETATM    3  C5  UNL     1      20.550   1.242  51.696  1.00  0.00     0.048 A 
HETATM    4  C6  UNL     1      21.027  -0.045  51.203  1.00  0.00    -0.020 A 
HETATM    5  C7  UNL     1      22.159   0.630  51.504  1.00  0.00     0.070 A 
HETATM    6  C8  UNL     1      22.909   0.870  52.869  1.00  0.00     0.045 C 
HETATM    7  C15 UNL     1      21.947   0.227  53.649  1.00  0.00     0.047 C 
HETATM    8  C16 UNL     1      22.248  -0.796  54.587  1.00  0.00     0.097 C 
HETATM    9  N3  UNL     1      22.489  -1.583  55.333  1.00  0.00    -0.192 NA
HETATM   10  C17 UNL     1      20.787   1.166  53.099  1.00  0.00     0.065 C 
ENDROOT
BRANCH   6  11
HETATM   11  N2  UNL     1      24.118   1.333  53.453  1.00  0.00    -0.357 N 
HETATM   12  H8  UNL     1      24.267   2.181  54.021  1.00  0.00     0.166 HD
BRANCH  11  13
HETATM   13  C9  UNL     1      25.377   0.691  53.338  1.00  0.00     0.033 A 
HETATM   14  C10 UNL     1      25.533  -0.574  52.833  1.00  0.00     0.029 A 
HETATM   15  C11 UNL     1      26.769  -1.197  52.710  1.00  0.00     0.004 A 
HETATM   16  C12 UNL     1      27.890  -0.497  53.120  1.00  0.00     0.019 A 
HETATM   17  C13 UNL     1      27.780   0.784  53.634  1.00  0.00     0.013 A 
HETATM   18 BR1  UNL     1      29.320   1.756  54.201  1.00  0.00    -0.051 Br
HETATM   19  C14 UNL     1      26.521   1.348  53.731  1.00  0.00     0.048 A 
ENDBRANCH  11  13
ENDBRANCH   6  11
BRANCH   1  20
HETATM   20  N1  UNL     1      23.236   3.256  50.912  1.00  0.00    -0.321 N 
HETATM   21  C2  UNL     1      23.026   4.408  51.672  1.00  0.00     0.275 C 
HETATM   22  O1  UNL     1      22.159   4.551  52.569  1.00  0.00    -0.261 OA
HETATM   23  H4  UNL     1      23.921   3.060  50.161  1.00  0.00     0.169 HD
BRANCH  21  24
HETATM   24  S1  UNL     1      24.168   5.662  51.191  1.00  0.00    -0.126 SA
HETATM   25  C1  UNL     1      25.124   4.992  50.081  1.00  0.00     0.059 C 
HETATM   26  H3  UNL     1      25.006   6.063  52.229  1.00  0.00     0.104 HD
ENDBRANCH  21  24
ENDBRANCH   1  20
TORSDOF 4
ENDMDL
MODEL 3
REMARK VINA RESULT:      -7.4      2.945      5.947
REMARK  4 active torsions:
REMARK  status: ('A' for Active; 'I' for Inactive)
REMARK    1  A    between atoms: S1_2  and  C2_3 
REMARK       I    between atoms: C2_3  and  N1_5 
REMARK    2  A    between atoms: N1_5  and  C3_6 
REMARK    3  A    between atoms: C8_11  and  N2_12 
REMARK    4  A    between atoms: N2_12  and  C9_13 
ROOT
HETATM    1  C3  UNL     1      25.941   3.009  51.011  1.00  0.00     0.029 C 
HETATM    2  C4  UNL     1      26.494   3.742  49.972  1.00  0.00     0.009 C 
HETATM    3  C5  UNL     1      25.317   4.719  49.792  1.00  0.00     0.048 A 
HETATM    4  C6  UNL     1      24.548   3.779  48.985  1.00  0.00    -0.020 A 
HETATM    5  C7  UNL     1      24.636   3.176  50.191  1.00  0.00     0.070 A 
HETATM    6  C8  UNL     1      23.817   3.366  51.524  1.00  0.00     0.045 C 
HETATM    7  C15 UNL     1      23.049   4.426  51.043  1.00  0.00     0.047 C 
HETATM    8  C16 UNL     1      21.630   4.466  51.111  1.00  0.00     0.097 C 
HETATM    9  N3  UNL     1      20.523   4.503  51.183  1.00  0.00    -0.192 NA
HETATM   10  C17 UNL     1      24.342   5.273  50.670  1.00  0.00     0.065 C 
ENDROOT
BRANCH   6  11
HETATM   11  N2  UNL     1      23.554   2.807  52.803  1.00  0.00    -0.357 N 
HETATM   12  H8  UNL     1      23.701   3.239  53.728  1.00  0.00     0.166 HD
BRANCH  11  13
HETATM   13  C9  UNL     1      23.040   1.506  53.035  1.00  0.00     0.033 A 
HETATM   14  C10 UNL     1      23.812   0.459  53.469  1.00  0.00     0.029 A 
HETATM   15  C11 UNL     1      23.305  -0.812  53.707  1.00  0.00     0.004 A 
HETATM   16  C12 UNL     1      21.953  -1.020  53.494  1.00  0.00     0.019 A 
HETATM   17  C13 UNL     1      21.135   0.009  53.058  1.00  0.00     0.013 A 
HETATM   18 BR1  UNL     1      19.272  -0.269  52.761  1.00  0.00    -0.051 Br
HETATM   19  C14 UNL     1      21.701   1.251  52.837  1.00  0.00     0.048 A 
ENDBRANCH  11  13
ENDBRANCH   6  11
BRANCH   1  20
HETATM   20  N1  UNL     1      26.767   2.564  52.060  1.00  0.00    -0.321 N 
HETATM   21  C2  UNL     1      27.094   1.221  52.253  1.00  0.00     0.275 C 
HETATM   22  O1  UNL     1      26.711   0.260  51.541  1.00  0.00    -0.261 OA
HETATM   23  H4  UNL     1      27.037   3.407  52.597  1.00  0.00     0.169 HD
BRANCH  21  24
HETATM   24  S1  UNL     1      28.139   1.053  53.662  1.00  0.00    -0.126 SA
HETATM   25  C1  UNL     1      27.294   0.217  54.748  1.00  0.00     0.059 C 
HETATM   26  H3  UNL     1      28.439   2.273  54.265  1.00  0.00     0.104 HD
ENDBRANCH  21  24
ENDBRANCH   1  20
TORSDOF 4
ENDMDL
MODEL 4
REMARK VINA RESULT:      -7.3      2.709      4.551
REMARK  4 active torsions:
REMARK  status: ('A' for Active; 'I' for Inactive)
REMARK    1  A    between atoms: S1_2  and  C2_3 
REMARK       I    between atoms: C2_3  and  N1_5 
REMARK    2  A    between atoms: N1_5  and  C3_6 
REMARK    3  A    between atoms: C8_11  and  N2_12 
REMARK    4  A    between atoms: N2_12  and  C9_13 
ROOT
HETATM    1  C3  UNL     1      24.075   0.410  53.380  1.00  0.00     0.029 C 
HETATM    2  C4  UNL     1      23.395  -0.789  53.224  1.00  0.00     0.009 C 
HETATM    3  C5  UNL     1      22.269  -0.243  52.326  1.00  0.00     0.048 A 
HETATM    4  C6  UNL     1      21.503   0.276  53.453  1.00  0.00    -0.020 A 
HETATM    5  C7  UNL     1      22.645   0.999  53.475  1.00  0.00     0.070 A 
HETATM    6  C8  UNL     1      23.105   2.262  52.652  1.00  0.00     0.045 C 
HETATM    7  C15 UNL     1      21.967   2.302  51.846  1.00  0.00     0.047 C 
HETATM    8  C16 UNL     1      21.174   3.465  51.657  1.00  0.00     0.097 C 
HETATM    9  N3  UNL     1      20.568   4.382  51.497  1.00  0.00    -0.192 NA
HETATM   10  C17 UNL     1      22.184   0.802  51.362  1.00  0.00     0.065 C 
ENDROOT
BRANCH   6  11
HETATM   11  N2  UNL     1      24.081   3.290  52.571  1.00  0.00    -0.357 N 
HETATM   12  H8  UNL     1      24.381   3.943  53.312  1.00  0.00     0.166 HD
BRANCH  11  13
HETATM   13  C9  UNL     1      24.829   3.616  51.411  1.00  0.00     0.033 A 
HETATM   14  C10 UNL     1      25.798   2.799  50.887  1.00  0.00     0.029 A 
HETATM   15  C11 UNL     1      26.521   3.113  49.744  1.00  0.00     0.004 A 
HETATM   16  C12 UNL     1      26.242   4.312  49.111  1.00  0.00     0.019 A 
HETATM   17  C13 UNL     1      25.271   5.167  49.603  1.00  0.00     0.013 A 
HETATM   18 BR1  UNL     1      24.880   6.821  48.738  1.00  0.00    -0.051 Br
HETATM   19  C14 UNL     1      24.586   4.797  50.746  1.00  0.00     0.048 A 
ENDBRANCH  11  13
ENDBRANCH   6  11
BRANCH   1  20
HETATM   20  N1  UNL     1      25.483   0.410  53.391  1.00  0.00    -0.321 N 
HETATM   21  C2  UNL     1      26.234  -0.057  54.471  1.00  0.00     0.275 C 
HETATM   22  O1  UNL     1      25.773  -0.524  55.541  1.00  0.00    -0.261 OA
HETATM   23  H4  UNL     1      25.783   0.809  52.484  1.00  0.00     0.169 HD
BRANCH  21  24
HETATM   24  S1  UNL     1      27.954   0.105  54.121  1.00  0.00    -0.126 SA
HETATM   25  C1  UNL     1      28.163   1.614  53.598  1.00  0.00     0.059 C 
HETATM   26  H3  UNL     1      28.379  -0.723  53.084  1.00  0.00     0.104 HD
ENDBRANCH  21  24
ENDBRANCH   1  20
TORSDOF 4
ENDMDL
MODEL 5
REMARK VINA RESULT:      -7.2      2.942      4.583
REMARK  4 active torsions:
REMARK  status: ('A' for Active; 'I' for Inactive)
REMARK    1  A    between atoms: S1_2  and  C2_3 
REMARK       I    between atoms: C2_3  and  N1_5 
REMARK    2  A    between atoms: N1_5  and  C3_6 
REMARK    3  A    between atoms: C8_11  and  N2_12 
REMARK    4  A    between atoms: N2_12  and  C9_13 
ROOT
HETATM    1  C3  UNL     1      26.087   2.285  52.689  1.00  0.00     0.029 C 
HETATM    2  C4  UNL     1      27.316   1.644  52.639  1.00  0.00     0.009 C 
HETATM    3  C5  UNL     1      26.795   0.228  52.954  1.00  0.00     0.048 A 
HETATM    4  C6  UNL     1      26.755   0.470  54.391  1.00  0.00    -0.020 A 
HETATM    5  C7  UNL     1      25.846   1.335  53.890  1.00  0.00     0.070 A 
HETATM    6  C8  UNL     1      24.346   1.144  53.446  1.00  0.00     0.045 C 
HETATM    7  C15 UNL     1      24.330  -0.234  53.664  1.00  0.00     0.047 C 
HETATM    8  C16 UNL     1      23.344  -0.897  54.442  1.00  0.00     0.097 C 
HETATM    9  N3  UNL     1      22.560  -1.415  55.034  1.00  0.00    -0.192 NA
HETATM   10  C17 UNL     1      25.575  -0.461  52.701  1.00  0.00     0.065 C 
ENDROOT
BRANCH   6  11
HETATM   11  N2  UNL     1      23.156   1.830  53.084  1.00  0.00    -0.357 N 
HETATM   12  H8  UNL     1      22.700   2.615  53.575  1.00  0.00     0.166 HD
BRANCH  11  13
HETATM   13  C9  UNL     1      22.355   1.534  51.952  1.00  0.00     0.033 A 
HETATM   14  C10 UNL     1      22.790   1.691  50.662  1.00  0.00     0.029 A 
HETATM   15  C11 UNL     1      22.009   1.389  49.553  1.00  0.00     0.004 A 
HETATM   16  C12 UNL     1      20.731   0.907  49.775  1.00  0.00     0.019 A 
HETATM   17  C13 UNL     1      20.250   0.731  51.061  1.00  0.00     0.013 A 
HETATM   18 BR1  UNL     1      18.490   0.067  51.376  1.00  0.00    -0.051 Br
HETATM   19  C14 UNL     1      21.077   1.051  52.123  1.00  0.00     0.048 A 
ENDBRANCH  11  13
ENDBRANCH   6  11
BRANCH   1  20
HETATM   20  N1  UNL     1      25.803   3.311  51.768  1.00  0.00    -0.321 N 
HETATM   21  C2  UNL     1      26.222   3.275  50.437  1.00  0.00     0.275 C 
HETATM   22  O1  UNL     1      26.885   2.354  49.899  1.00  0.00    -0.261 OA
HETATM   23  H4  UNL     1      25.262   4.026  52.285  1.00  0.00     0.169 HD
BRANCH  21  24
HETATM   24  S1  UNL     1      25.684   4.729  49.599  1.00  0.00    -0.126 SA
HETATM   25  C1  UNL     1      26.956   5.260  48.765  1.00  0.00     0.059 C 
HETATM   26  H3  UNL     1      25.336   5.761  50.468  1.00  0.00     0.104 HD
ENDBRANCH  21  24
ENDBRANCH   1  20
TORSDOF 4
ENDMDL
MODEL 6
REMARK VINA RESULT:      -7.2      2.441      3.011
REMARK  4 active torsions:
REMARK  status: ('A' for Active; 'I' for Inactive)
REMARK    1  A    between atoms: S1_2  and  C2_3 
REMARK       I    between atoms: C2_3  and  N1_5 
REMARK    2  A    between atoms: N1_5  and  C3_6 
REMARK    3  A    between atoms: C8_11  and  N2_12 
REMARK    4  A    between atoms: N2_12  and  C9_13 
ROOT
HETATM    1  C3  UNL     1      24.520   0.445  53.049  1.00  0.00     0.029 C 
HETATM    2  C4  UNL     1      25.545  -0.157  53.762  1.00  0.00     0.009 C 
HETATM    3  C5  UNL     1      26.670   0.785  53.292  1.00  0.00     0.048 A 
HETATM    4  C6  UNL     1      26.858   0.074  52.034  1.00  0.00    -0.020 A 
HETATM    5  C7  UNL     1      25.602   0.564  51.946  1.00  0.00     0.070 A 
HETATM    6  C8  UNL     1      25.055   1.990  51.555  1.00  0.00     0.045 C 
HETATM    7  C15 UNL     1      26.317   2.572  51.428  1.00  0.00     0.047 C 
HETATM    8  C16 UNL     1      26.736   3.303  50.285  1.00  0.00     0.097 C 
HETATM    9  N3  UNL     1      27.054   3.891  49.398  1.00  0.00    -0.192 NA
HETATM   10  C17 UNL     1      26.724   2.155  52.908  1.00  0.00     0.065 C 
ENDROOT
BRANCH   6  11
HETATM   11  N2  UNL     1      23.887   2.719  51.211  1.00  0.00    -0.357 N 
HETATM   12  H8  UNL     1      23.524   3.582  51.645  1.00  0.00     0.166 HD
BRANCH  11  13
HETATM   13  C9  UNL     1      22.978   2.366  50.181  1.00  0.00     0.033 A 
HETATM   14  C10 UNL     1      22.157   1.270  50.247  1.00  0.00     0.029 A 
HETATM   15  C11 UNL     1      21.258   0.931  49.244  1.00  0.00     0.004 A 
HETATM   16  C12 UNL     1      21.196   1.747  48.128  1.00  0.00     0.019 A 
HETATM   17  C13 UNL     1      22.006   2.865  48.019  1.00  0.00     0.013 A 
HETATM   18 BR1  UNL     1      21.927   3.995  46.485  1.00  0.00    -0.051 Br
HETATM   19  C14 UNL     1      22.880   3.148  49.052  1.00  0.00     0.048 A 
ENDBRANCH  11  13
ENDBRANCH   6  11
BRANCH   1  20
HETATM   20  N1  UNL     1      23.246   0.566  53.636  1.00  0.00    -0.321 N 
HETATM   21  C2  UNL     1      22.277  -0.436  53.560  1.00  0.00     0.275 C 
HETATM   22  O1  UNL     1      22.404  -1.541  52.979  1.00  0.00    -0.261 OA
HETATM   23  H4  UNL     1      23.220   1.496  54.089  1.00  0.00     0.169 HD
BRANCH  21  24
HETATM   24  S1  UNL     1      20.818   0.075  54.408  1.00  0.00    -0.126 SA
HETATM   25  C1  UNL     1      19.583  -0.339  53.460  1.00  0.00     0.059 C 
HETATM   26  H3  UNL     1      20.736   1.457  54.565  1.00  0.00     0.104 HD
ENDBRANCH  21  24
ENDBRANCH   1  20
TORSDOF 4
ENDMDL
MODEL 7
REMARK VINA RESULT:      -7.1      2.794      4.852
REMARK  4 active torsions:
REMARK  status: ('A' for Active; 'I' for Inactive)
REMARK    1  A    between atoms: S1_2  and  C2_3 
REMARK       I    between atoms: C2_3  and  N1_5 
REMARK    2  A    between atoms: N1_5  and  C3_6 
REMARK    3  A    between atoms: C8_11  and  N2_12 
REMARK    4  A    between atoms: N2_12  and  C9_13 
ROOT
HETATM    1  C3  UNL     1      23.912  -0.227  53.974  1.00  0.00     0.029 C 
HETATM    2  C4  UNL     1      23.301  -1.147  54.813  1.00  0.00     0.009 C 
HETATM    3  C5  UNL     1      21.998  -1.292  54.004  1.00  0.00     0.048 A 
HETATM    4  C6  UNL     1      21.410  -0.084  54.570  1.00  0.00    -0.020 A 
HETATM    5  C7  UNL     1      22.483   0.367  53.884  1.00  0.00     0.070 A 
HETATM    6  C8  UNL     1      22.700   0.673  52.353  1.00  0.00     0.045 C 
HETATM    7  C15 UNL     1      21.438   0.227  51.961  1.00  0.00     0.047 C 
HETATM    8  C16 UNL     1      20.545   0.991  51.164  1.00  0.00     0.097 C 
HETATM    9  N3  UNL     1      19.857   1.584  50.524  1.00  0.00    -0.192 NA
HETATM   10  C17 UNL     1      21.671  -1.202  52.621  1.00  0.00     0.065 C 
ENDROOT
BRANCH   6  11
HETATM   11  N2  UNL     1      23.573   1.284  51.414  1.00  0.00    -0.357 N 
HETATM   12  H8  UNL     1      24.179   0.825  50.717  1.00  0.00     0.166 HD
BRANCH  11  13
HETATM   13  C9  UNL     1      23.776   2.681  51.279  1.00  0.00     0.033 A 
HETATM   14  C10 UNL     1      23.041   3.617  51.958  1.00  0.00     0.029 A 
HETATM   15  C11 UNL     1      23.249   4.985  51.834  1.00  0.00     0.004 A 
HETATM   16  C12 UNL     1      24.251   5.412  50.979  1.00  0.00     0.019 A 
HETATM   17  C13 UNL     1      25.019   4.501  50.274  1.00  0.00     0.013 A 
HETATM   18 BR1  UNL     1      26.401   5.081  49.094  1.00  0.00    -0.051 Br
HETATM   19  C14 UNL     1      24.762   3.153  50.441  1.00  0.00     0.048 A 
ENDBRANCH  11  13
ENDBRANCH   6  11
BRANCH   1  20
HETATM   20  N1  UNL     1      25.296  -0.322  53.734  1.00  0.00    -0.321 N 
HETATM   21  C2  UNL     1      26.140   0.789  53.705  1.00  0.00     0.275 C 
HETATM   22  O1  UNL     1      25.793   1.982  53.882  1.00  0.00    -0.261 OA
HETATM   23  H4  UNL     1      25.501  -1.328  53.596  1.00  0.00     0.169 HD
BRANCH  21  24
HETATM   24  S1  UNL     1      27.794   0.278  53.375  1.00  0.00    -0.126 SA
HETATM   25  C1  UNL     1      28.497   0.087  54.812  1.00  0.00     0.059 C 
HETATM   26  H3  UNL     1      28.541   1.247  52.709  1.00  0.00     0.104 HD
ENDBRANCH  21  24
ENDBRANCH   1  20
TORSDOF 4
ENDMDL
MODEL 8
REMARK VINA RESULT:      -6.9      3.042      5.383
REMARK  4 active torsions:
REMARK  status: ('A' for Active; 'I' for Inactive)
REMARK    1  A    between atoms: S1_2  and  C2_3 
REMARK       I    between atoms: C2_3  and  N1_5 
REMARK    2  A    between atoms: N1_5  and  C3_6 
REMARK    3  A    between atoms: C8_11  and  N2_12 
REMARK    4  A    between atoms: N2_12  and  C9_13 
ROOT
HETATM    1  C3  UNL     1      22.956   2.939  51.888  1.00  0.00     0.029 C 
HETATM    2  C4  UNL     1      22.058   3.977  51.694  1.00  0.00     0.009 C 
HETATM    3  C5  UNL     1      22.821   4.663  50.544  1.00  0.00     0.048 A 
HETATM    4  C6  UNL     1      23.733   5.355  51.447  1.00  0.00    -0.020 A 
HETATM    5  C7  UNL     1      24.011   4.047  51.643  1.00  0.00     0.070 A 
HETATM    6  C8  UNL     1      24.901   3.029  50.833  1.00  0.00     0.045 C 
HETATM    7  C15 UNL     1      25.211   3.927  49.811  1.00  0.00     0.047 C 
HETATM    8  C16 UNL     1      26.536   4.195  49.373  1.00  0.00     0.097 C 
HETATM    9  N3  UNL     1      27.571   4.388  49.020  1.00  0.00    -0.192 NA
HETATM   10  C17 UNL     1      23.675   4.201  49.503  1.00  0.00     0.065 C 
ENDROOT
BRANCH   6  11
HETATM   11  N2  UNL     1      25.503   1.744  50.870  1.00  0.00    -0.357 N 
HETATM   12  H8  UNL     1      25.289   0.923  50.284  1.00  0.00     0.166 HD
BRANCH  11  13
HETATM   13  C9  UNL     1      26.532   1.351  51.764  1.00  0.00     0.033 A 
HETATM   14  C10 UNL     1      27.287   2.243  52.480  1.00  0.00     0.029 A 
HETATM   15  C11 UNL     1      28.287   1.857  53.364  1.00  0.00     0.004 A 
HETATM   16  C12 UNL     1      28.523   0.502  53.521  1.00  0.00     0.019 A 
HETATM   17  C13 UNL     1      27.784  -0.435  52.819  1.00  0.00     0.013 A 
HETATM   18 BR1  UNL     1      28.103  -2.303  53.029  1.00  0.00    -0.051 Br
HETATM   19  C14 UNL     1      26.803   0.015  51.954  1.00  0.00     0.048 A 
ENDBRANCH  11  13
ENDBRANCH   6  11
BRANCH   1  20
HETATM   20  N1  UNL     1      22.472   1.651  52.186  1.00  0.00    -0.321 N 
HETATM   21  C2  UNL     1      23.073   0.811  53.125  1.00  0.00     0.275 C 
HETATM   22  O1  UNL     1      24.092   1.079  53.807  1.00  0.00    -0.261 OA
HETATM   23  H4  UNL     1      21.641   1.505  51.586  1.00  0.00     0.169 HD
BRANCH  21  24
HETATM   24  S1  UNL     1      22.190  -0.712  53.221  1.00  0.00    -0.126 SA
HETATM   25  C1  UNL     1      21.852  -0.933  54.780  1.00  0.00     0.059 C 
HETATM   26  H3  UNL     1      22.954  -1.810  52.833  1.00  0.00     0.104 HD
ENDBRANCH  21  24
ENDBRANCH   1  20
TORSDOF 4
ENDMDL
MODEL 9
REMARK VINA RESULT:      -6.8      2.789      5.418
REMARK  4 active torsions:
REMARK  status: ('A' for Active; 'I' for Inactive)
REMARK    1  A    between atoms: S1_2  and  C2_3 
REMARK       I    between atoms: C2_3  and  N1_5 
REMARK    2  A    between atoms: N1_5  and  C3_6 
REMARK    3  A    between atoms: C8_11  and  N2_12 
REMARK    4  A    between atoms: N2_12  and  C9_13 
ROOT
HETATM    1  C3  UNL     1      21.619   4.889  51.040  1.00  0.00     0.029 C 
HETATM    2  C4  UNL     1      21.695   6.268  50.918  1.00  0.00     0.009 C 
HETATM    3  C5  UNL     1      23.064   6.313  50.213  1.00  0.00     0.048 A 
HETATM    4  C6  UNL     1      23.808   6.181  51.460  1.00  0.00    -0.020 A 
HETATM    5  C7  UNL     1      23.130   5.016  51.361  1.00  0.00     0.070 A 
HETATM    6  C8  UNL     1      23.419   3.697  50.548  1.00  0.00     0.045 C 
HETATM    7  C15 UNL     1      24.555   4.196  49.910  1.00  0.00     0.047 C 
HETATM    8  C16 UNL     1      25.807   3.526  49.892  1.00  0.00     0.097 C 
HETATM    9  N3  UNL     1      26.780   2.990  49.864  1.00  0.00    -0.192 NA
HETATM   10  C17 UNL     1      23.754   5.439  49.325  1.00  0.00     0.065 C 
ENDROOT
BRANCH   6  11
HETATM   11  N2  UNL     1      23.039   2.339  50.386  1.00  0.00    -0.357 N 
HETATM   12  H8  UNL     1      22.688   1.873  49.535  1.00  0.00     0.166 HD
BRANCH  11  13
HETATM   13  C9  UNL     1      23.065   1.356  51.409  1.00  0.00     0.033 A 
HETATM   14  C10 UNL     1      22.007   0.528  51.682  1.00  0.00     0.029 A 
HETATM   15  C11 UNL     1      22.038  -0.442  52.676  1.00  0.00     0.004 A 
HETATM   16  C12 UNL     1      23.198  -0.570  53.420  1.00  0.00     0.019 A 
HETATM   17  C13 UNL     1      24.292   0.244  53.178  1.00  0.00     0.013 A 
HETATM   18 BR1  UNL     1      25.893   0.075  54.198  1.00  0.00    -0.051 Br
HETATM   19  C14 UNL     1      24.197   1.192  52.174  1.00  0.00     0.048 A 
ENDBRANCH  11  13
ENDBRANCH   6  11
BRANCH   1  20
HETATM   20  N1  UNL     1      20.380   4.246  50.857  1.00  0.00    -0.321 N 
HETATM   21  C2  UNL     1      19.787   3.447  51.836  1.00  0.00     0.275 C 
HETATM   22  O1  UNL     1      20.260   3.201  52.972  1.00  0.00    -0.261 OA
HETATM   23  H4  UNL     1      20.060   4.493  49.904  1.00  0.00     0.169 HD
BRANCH  21  24
HETATM   24  S1  UNL     1      18.252   2.814  51.245  1.00  0.00    -0.126 SA
HETATM   25  C1  UNL     1      18.372   1.210  51.320  1.00  0.00     0.059 C 
HETATM   26  H3  UNL     1      18.016   3.119  49.906  1.00  0.00     0.104 HD
ENDBRANCH  21  24
ENDBRANCH   1  20
TORSDOF 4
ENDMDL
