MODEL 1
REMARK VINA RESULT:      -7.3      0.000      0.000
REMARK  2 active torsions:
REMARK  status: ('A' for Active; 'I' for Inactive)
REMARK    1  A    between atoms: O1_2  and  C2_3 
REMARK    2  A    between atoms: C4_5  and  O2_6 
ROOT
HETATM    1  C2  UNL     1      24.386  -0.383  53.621  1.00  0.00     0.068 C 
HETATM    2  C3  UNL     1      24.673   0.871  53.801  1.00  0.00     0.041 C 
HETATM    3  C4  UNL     1      25.360   2.149  54.022  1.00  0.00     0.144 C 
HETATM    4  C5  UNL     1      24.857   3.135  52.993  1.00  0.00     0.042 C 
HETATM    5  C6  UNL     1      25.044   2.689  51.570  1.00  0.00     0.009 C 
HETATM    6  C7  UNL     1      26.429   2.517  51.104  1.00  0.00     0.012 C 
HETATM    7  C8  UNL     1      24.301   3.692  50.710  1.00  0.00     0.144 C 
HETATM    8 CL1  UNL     1      22.583   3.793  51.263  1.00  0.00    -0.117 Cl
HETATM    9  C9  UNL     1      24.270   3.266  49.267  1.00  0.00     0.099 C 
HETATM   10  F1  UNL     1      25.614   3.469  48.949  1.00  0.00    -0.213 F 
HETATM   11  C10 UNL     1      23.057   2.863  48.830  1.00  0.00     0.083 C 
HETATM   12  C11 UNL     1      22.338   2.365  47.676  1.00  0.00     0.003 C 
HETATM   13  C12 UNL     1      21.071   2.207  48.124  1.00  0.00     0.085 C 
HETATM   14  N1  UNL     1      20.299   2.371  49.298  1.00  0.00    -0.361 N 
HETATM   15  C13 UNL     1      20.052   1.370  50.284  1.00  0.00     0.208 C 
HETATM   16  N2  UNL     1      19.917   0.543  51.251  1.00  0.00    -0.237 NA
HETATM   17  C14 UNL     1      20.602   0.762  52.476  1.00  0.00     0.233 C 
HETATM   18  N3  UNL     1      21.418   0.328  53.368  1.00  0.00    -0.254 NA
HETATM   19  C15 UNL     1      22.047  -0.934  53.297  1.00  0.00     0.120 C 
HETATM   20  C16 UNL     1      23.301  -1.286  53.397  1.00  0.00     0.055 C 
HETATM   21  H17 UNL     1      19.786   3.199  49.669  1.00  0.00     0.166 HD
ENDROOT
BRANCH   1  22
HETATM   22  O1  UNL     1      25.742  -0.557  53.738  1.00  0.00    -0.356 OA
HETATM   23  C1  UNL     1      26.526  -1.219  52.752  1.00  0.00     0.210 C 
ENDBRANCH   1  22
BRANCH   3  24
HETATM   24  O2  UNL     1      26.717   1.979  54.059  1.00  0.00    -0.392 OA
HETATM   25  H6  UNL     1      27.172   2.306  53.243  1.00  0.00     0.210 HD
ENDBRANCH   3  24
TORSDOF 2
ENDMDL
MODEL 2
REMARK VINA RESULT:      -6.9      3.059      5.520
REMARK  2 active torsions:
REMARK  status: ('A' for Active; 'I' for Inactive)
REMARK    1  A    between atoms: O1_2  and  C2_3 
REMARK    2  A    between atoms: C4_5  and  O2_6 
ROOT
HETATM    1  C2  UNL     1      23.925   3.822  51.436  1.00  0.00     0.068 C 
HETATM    2  C3  UNL     1      24.917   3.129  50.965  1.00  0.00     0.041 C 
HETATM    3  C4  UNL     1      26.227   2.685  50.473  1.00  0.00     0.144 C 
HETATM    4  C5  UNL     1      26.587   1.404  51.191  1.00  0.00     0.042 C 
HETATM    5  C6  UNL     1      26.615   1.525  52.688  1.00  0.00     0.009 C 
HETATM    6  C7  UNL     1      27.619   2.433  53.263  1.00  0.00     0.012 C 
HETATM    7  C8  UNL     1      26.782   0.117  53.224  1.00  0.00     0.144 C 
HETATM    8 CL1  UNL     1      25.467  -0.932  52.562  1.00  0.00    -0.117 Cl
HETATM    9  C9  UNL     1      26.657   0.078  54.723  1.00  0.00     0.099 C 
HETATM   10  F1  UNL     1      27.851   0.719  55.059  1.00  0.00    -0.213 F 
HETATM   11  C10 UNL     1      25.525  -0.505  55.175  1.00  0.00     0.083 C 
HETATM   12  C11 UNL     1      24.795  -0.865  56.372  1.00  0.00     0.003 C 
HETATM   13  C12 UNL     1      23.673  -1.459  55.903  1.00  0.00     0.085 C 
HETATM   14  N1  UNL     1      23.049  -1.806  54.682  1.00  0.00    -0.361 N 
HETATM   15  C13 UNL     1      22.111  -1.005  53.965  1.00  0.00     0.208 C 
HETATM   16  N2  UNL     1      21.371  -0.265  53.229  1.00  0.00    -0.237 NA
HETATM   17  C14 UNL     1      21.890   0.295  52.031  1.00  0.00     0.233 C 
HETATM   18  N3  UNL     1      22.135   1.340  51.327  1.00  0.00    -0.254 NA
HETATM   19  C15 UNL     1      21.824   2.651  51.749  1.00  0.00     0.120 C 
HETATM   20  C16 UNL     1      22.549   3.736  51.814  1.00  0.00     0.055 C 
HETATM   21  H17 UNL     1      23.138  -2.657  54.085  1.00  0.00     0.166 HD
ENDROOT
BRANCH   1  22
HETATM   22  O1  UNL     1      24.838   4.846  51.447  1.00  0.00    -0.356 OA
HETATM   23  C1  UNL     1      24.588   6.115  50.855  1.00  0.00     0.210 C 
ENDBRANCH   1  22
BRANCH   3  24
HETATM   24  O2  UNL     1      27.152   3.688  50.560  1.00  0.00    -0.392 OA
HETATM   25  H6  UNL     1      27.663   3.821  49.723  1.00  0.00     0.210 HD
ENDBRANCH   3  24
TORSDOF 2
ENDMDL
MODEL 3
REMARK VINA RESULT:      -6.7      2.078      2.940
REMARK  2 active torsions:
REMARK  status: ('A' for Active; 'I' for Inactive)
REMARK    1  A    between atoms: O1_2  and  C2_3 
REMARK    2  A    between atoms: C4_5  and  O2_6 
ROOT
HETATM    1  C2  UNL     1      24.394   0.530  52.829  1.00  0.00     0.068 C 
HETATM    2  C3  UNL     1      24.159   1.805  52.909  1.00  0.00     0.041 C 
HETATM    3  C4  UNL     1      24.224   3.267  52.793  1.00  0.00     0.144 C 
HETATM    4  C5  UNL     1      22.872   3.759  52.327  1.00  0.00     0.042 C 
HETATM    5  C6  UNL     1      22.413   3.160  51.029  1.00  0.00     0.009 C 
HETATM    6  C7  UNL     1      23.221   3.460  49.836  1.00  0.00     0.012 C 
HETATM    7  C8  UNL     1      20.976   3.606  50.840  1.00  0.00     0.144 C 
HETATM    8 CL1  UNL     1      20.011   3.127  52.291  1.00  0.00    -0.117 Cl
HETATM    9  C9  UNL     1      20.341   2.934  49.653  1.00  0.00     0.099 C 
HETATM   10  F1  UNL     1      21.040   3.584  48.633  1.00  0.00    -0.213 F 
HETATM   11  C10 UNL     1      19.406   2.011  49.967  1.00  0.00     0.083 C 
HETATM   12  C11 UNL     1      18.470   1.060  49.406  1.00  0.00     0.003 C 
HETATM   13  C12 UNL     1      17.879   0.506  50.490  1.00  0.00     0.085 C 
HETATM   14  N1  UNL     1      17.904   0.575  51.903  1.00  0.00    -0.361 N 
HETATM   15  C13 UNL     1      18.702  -0.234  52.766  1.00  0.00     0.208 C 
HETATM   16  N2  UNL     1      19.494  -0.846  53.563  1.00  0.00    -0.237 NA
HETATM   17  C14 UNL     1      20.566  -0.145  54.179  1.00  0.00     0.233 C 
HETATM   18  N3  UNL     1      21.826  -0.045  54.396  1.00  0.00    -0.254 NA
HETATM   19  C15 UNL     1      22.779  -0.947  53.874  1.00  0.00     0.120 C 
HETATM   20  C16 UNL     1      23.883  -0.751  53.202  1.00  0.00     0.055 C 
HETATM   21  H17 UNL     1      17.386   1.189  52.567  1.00  0.00     0.166 HD
ENDROOT
BRANCH   1  22
HETATM   22  O1  UNL     1      25.502   0.929  52.126  1.00  0.00    -0.356 OA
HETATM   23  C1  UNL     1      26.746   0.240  52.182  1.00  0.00     0.210 C 
ENDBRANCH   1  22
BRANCH   3  24
HETATM   24  O2  UNL     1      25.287   3.654  52.025  1.00  0.00    -0.392 OA
HETATM   25  H6  UNL     1      25.431   3.071  51.238  1.00  0.00     0.210 HD
ENDBRANCH   3  24
TORSDOF 2
ENDMDL
MODEL 4
REMARK VINA RESULT:      -6.7      3.803      6.502
REMARK  2 active torsions:
REMARK  status: ('A' for Active; 'I' for Inactive)
REMARK    1  A    between atoms: O1_2  and  C2_3 
REMARK    2  A    between atoms: C4_5  and  O2_6 
ROOT
HETATM    1  C2  UNL     1      20.776   3.504  48.742  1.00  0.00     0.068 C 
HETATM    2  C3  UNL     1      20.486   3.679  49.996  1.00  0.00     0.041 C 
HETATM    3  C4  UNL     1      19.856   3.650  51.322  1.00  0.00     0.144 C 
HETATM    4  C5  UNL     1      20.922   3.313  52.339  1.00  0.00     0.042 C 
HETATM    5  C6  UNL     1      21.633   2.015  52.079  1.00  0.00     0.009 C 
HETATM    6  C7  UNL     1      20.822   0.789  52.141  1.00  0.00     0.012 C 
HETATM    7  C8  UNL     1      22.784   1.957  53.063  1.00  0.00     0.144 C 
HETATM    8 CL1  UNL     1      23.800   3.441  52.878  1.00  0.00    -0.117 Cl
HETATM    9  C9  UNL     1      23.681   0.779  52.795  1.00  0.00     0.099 C 
HETATM   10  F1  UNL     1      22.825  -0.246  53.206  1.00  0.00    -0.213 F 
HETATM   11  C10 UNL     1      24.890   1.100  52.287  1.00  0.00     0.083 C 
HETATM   12  C11 UNL     1      26.148   0.550  51.827  1.00  0.00     0.003 C 
HETATM   13  C12 UNL     1      26.864   1.637  51.457  1.00  0.00     0.085 C 
HETATM   14  N1  UNL     1      26.756   3.045  51.391  1.00  0.00    -0.361 N 
HETATM   15  C13 UNL     1      26.307   3.798  50.265  1.00  0.00     0.208 C 
HETATM   16  N2  UNL     1      25.788   4.498  49.327  1.00  0.00    -0.237 NA
HETATM   17  C14 UNL     1      24.503   5.078  49.500  1.00  0.00     0.233 C 
HETATM   18  N3  UNL     1      23.296   5.211  49.082  1.00  0.00    -0.254 NA
HETATM   19  C15 UNL     1      22.798   4.567  47.928  1.00  0.00     0.120 C 
HETATM   20  C16 UNL     1      21.735   3.832  47.735  1.00  0.00     0.055 C 
HETATM   21  H17 UNL     1      26.963   3.782  52.100  1.00  0.00     0.166 HD
ENDROOT
BRANCH   1  22
HETATM   22  O1  UNL     1      19.631   2.749  48.736  1.00  0.00    -0.356 OA
HETATM   23  C1  UNL     1      18.518   3.038  47.898  1.00  0.00     0.210 C 
ENDBRANCH   1  22
BRANCH   3  24
HETATM   24  O2  UNL     1      18.759   2.833  51.327  1.00  0.00    -0.392 OA
HETATM   25  H6  UNL     1      18.328   2.767  52.215  1.00  0.00     0.210 HD
ENDBRANCH   3  24
TORSDOF 2
ENDMDL
MODEL 5
REMARK VINA RESULT:      -6.6      9.645     11.795
REMARK  2 active torsions:
REMARK  status: ('A' for Active; 'I' for Inactive)
REMARK    1  A    between atoms: O1_2  and  C2_3 
REMARK    2  A    between atoms: C4_5  and  O2_6 
ROOT
HETATM    1  C2  UNL     1      29.392   6.697  47.881  1.00  0.00     0.068 C 
HETATM    2  C3  UNL     1      30.545   6.672  48.479  1.00  0.00     0.041 C 
HETATM    3  C4  UNL     1      31.682   6.352  49.351  1.00  0.00     0.144 C 
HETATM    4  C5  UNL     1      32.915   6.229  48.485  1.00  0.00     0.042 C 
HETATM    5  C6  UNL     1      32.800   5.205  47.392  1.00  0.00     0.009 C 
HETATM    6  C7  UNL     1      32.639   3.803  47.808  1.00  0.00     0.012 C 
HETATM    7  C8  UNL     1      34.029   5.376  46.520  1.00  0.00     0.144 C 
HETATM    8 CL1  UNL     1      34.125   7.092  45.959  1.00  0.00    -0.117 Cl
HETATM    9  C9  UNL     1      33.954   4.518  45.286  1.00  0.00     0.099 C 
HETATM   10  F1  UNL     1      34.125   3.266  45.879  1.00  0.00    -0.213 F 
HETATM   11  C10 UNL     1      33.756   5.204  44.139  1.00  0.00     0.083 C 
HETATM   12  C11 UNL     1      33.595   5.063  42.707  1.00  0.00     0.003 C 
HETATM   13  C12 UNL     1      33.431   6.334  42.271  1.00  0.00     0.085 C 
HETATM   14  N1  UNL     1      33.374   7.659  42.763  1.00  0.00    -0.361 N 
HETATM   15  C13 UNL     1      32.192   8.358  43.149  1.00  0.00     0.208 C 
HETATM   16  N2  UNL     1      31.175   8.970  43.627  1.00  0.00    -0.237 NA
HETATM   17  C14 UNL     1      31.051   9.158  45.030  1.00  0.00     0.233 C 
HETATM   18  N3  UNL     1      30.362   8.992  46.100  1.00  0.00    -0.254 NA
HETATM   19  C15 UNL     1      29.108   8.344  46.123  1.00  0.00     0.120 C 
HETATM   20  C16 UNL     1      28.650   7.366  46.859  1.00  0.00     0.055 C 
HETATM   21  H17 UNL     1      34.129   8.357  42.939  1.00  0.00     0.166 HD
ENDROOT
BRANCH   1  22
HETATM   22  O1  UNL     1      29.096   5.661  48.730  1.00  0.00    -0.356 OA
HETATM   23  C1  UNL     1      27.888   4.914  48.649  1.00  0.00     0.210 C 
ENDBRANCH   1  22
BRANCH   3  24
HETATM   24  O2  UNL     1      31.407   5.268  50.139  1.00  0.00    -0.392 OA
HETATM   25  H6  UNL     1      31.696   5.387  51.078  1.00  0.00     0.210 HD
ENDBRANCH   3  24
TORSDOF 2
ENDMDL
MODEL 6
REMARK VINA RESULT:      -6.6      2.874      5.300
REMARK  2 active torsions:
REMARK  status: ('A' for Active; 'I' for Inactive)
REMARK    1  A    between atoms: O1_2  and  C2_3 
REMARK    2  A    between atoms: C4_5  and  O2_6 
ROOT
HETATM    1  C2  UNL     1      22.868   5.885  50.866  1.00  0.00     0.068 C 
HETATM    2  C3  UNL     1      23.653   4.993  50.342  1.00  0.00     0.041 C 
HETATM    3  C4  UNL     1      24.815   4.205  49.916  1.00  0.00     0.144 C 
HETATM    4  C5  UNL     1      24.546   2.755  50.250  1.00  0.00     0.042 C 
HETATM    5  C6  UNL     1      24.257   2.501  51.702  1.00  0.00     0.009 C 
HETATM    6  C7  UNL     1      25.341   2.786  52.656  1.00  0.00     0.012 C 
HETATM    7  C8  UNL     1      23.812   1.055  51.800  1.00  0.00     0.144 C 
HETATM    8 CL1  UNL     1      22.419   0.785  50.681  1.00  0.00    -0.117 Cl
HETATM    9  C9  UNL     1      23.330   0.718  53.185  1.00  0.00     0.099 C 
HETATM   10  F1  UNL     1      24.554   0.748  53.857  1.00  0.00    -0.213 F 
HETATM   11  C10 UNL     1      21.996   0.531  53.283  1.00  0.00     0.083 C 
HETATM   12  C11 UNL     1      20.926   0.212  54.204  1.00  0.00     0.003 C 
HETATM   13  C12 UNL     1      19.815   0.227  53.431  1.00  0.00     0.085 C 
HETATM   14  N1  UNL     1      19.419   0.446  52.091  1.00  0.00    -0.361 N 
HETATM   15  C13 UNL     1      19.000   1.692  51.535  1.00  0.00     0.208 C 
HETATM   16  N2  UNL     1      18.747   2.811  50.969  1.00  0.00    -0.237 NA
HETATM   17  C14 UNL     1      19.691   3.389  50.079  1.00  0.00     0.233 C 
HETATM   18  N3  UNL     1      20.430   4.391  49.767  1.00  0.00    -0.254 NA
HETATM   19  C15 UNL     1      20.486   5.582  50.524  1.00  0.00     0.120 C 
HETATM   20  C16 UNL     1      21.495   6.253  51.013  1.00  0.00     0.055 C 
HETATM   21  H17 UNL     1      19.356  -0.207  51.281  1.00  0.00     0.166 HD
ENDROOT
BRANCH   1  22
HETATM   22  O1  UNL     1      24.040   6.441  51.311  1.00  0.00    -0.356 OA
HETATM   23  C1  UNL     1      24.456   7.756  50.962  1.00  0.00     0.210 C 
ENDBRANCH   1  22
BRANCH   3  24
HETATM   24  O2  UNL     1      25.974   4.720  50.428  1.00  0.00    -0.392 OA
HETATM   25  H6  UNL     1      26.162   5.640  50.117  1.00  0.00     0.210 HD
ENDBRANCH   3  24
TORSDOF 2
ENDMDL
MODEL 7
REMARK VINA RESULT:      -6.3     10.713     12.788
REMARK  2 active torsions:
REMARK  status: ('A' for Active; 'I' for Inactive)
REMARK    1  A    between atoms: O1_2  and  C2_3 
REMARK    2  A    between atoms: C4_5  and  O2_6 
ROOT
HETATM    1  C2  UNL     1      34.062   4.437  46.767  1.00  0.00     0.068 C 
HETATM    2  C3  UNL     1      32.852   4.706  47.157  1.00  0.00     0.041 C 
HETATM    3  C4  UNL     1      31.643   4.959  47.949  1.00  0.00     0.144 C 
HETATM    4  C5  UNL     1      31.018   6.242  47.452  1.00  0.00     0.042 C 
HETATM    5  C6  UNL     1      31.930   7.434  47.510  1.00  0.00     0.009 C 
HETATM    6  C7  UNL     1      32.375   7.866  48.845  1.00  0.00     0.012 C 
HETATM    7  C8  UNL     1      31.210   8.555  46.787  1.00  0.00     0.144 C 
HETATM    8 CL1  UNL     1      30.772   8.003  45.122  1.00  0.00    -0.117 Cl
HETATM    9  C9  UNL     1      32.090   9.765  46.627  1.00  0.00     0.099 C 
HETATM   10  F1  UNL     1      32.130  10.184  47.959  1.00  0.00    -0.213 F 
HETATM   11  C10 UNL     1      32.503   9.993  45.362  1.00  0.00     0.083 C 
HETATM   12  C11 UNL     1      33.292  10.880  44.533  1.00  0.00     0.003 C 
HETATM   13  C12 UNL     1      33.173  10.357  43.291  1.00  0.00     0.085 C 
HETATM   14  N1  UNL     1      32.555   9.280  42.613  1.00  0.00    -0.361 N 
HETATM   15  C13 UNL     1      33.140   8.003  42.360  1.00  0.00     0.208 C 
HETATM   16  N2  UNL     1      33.579   6.808  42.230  1.00  0.00    -0.237 NA
HETATM   17  C14 UNL     1      33.025   5.758  43.010  1.00  0.00     0.233 C 
HETATM   18  N3  UNL     1      33.208   4.804  43.849  1.00  0.00    -0.254 NA
HETATM   19  C15 UNL     1      34.473   4.466  44.377  1.00  0.00     0.120 C 
HETATM   20  C16 UNL     1      34.884   4.300  45.606  1.00  0.00     0.055 C 
HETATM   21  H17 UNL     1      31.607   9.193  42.188  1.00  0.00     0.166 HD
ENDROOT
BRANCH   1  22
HETATM   22  O1  UNL     1      34.310   4.321  48.111  1.00  0.00    -0.356 OA
HETATM   23  C1  UNL     1      35.230   5.156  48.805  1.00  0.00     0.210 C 
ENDBRANCH   1  22
BRANCH   3  24
HETATM   24  O2  UNL     1      31.915   4.918  49.289  1.00  0.00    -0.392 OA
HETATM   25  H6  UNL     1      32.568   4.215  49.532  1.00  0.00     0.210 HD
ENDBRANCH   3  24
TORSDOF 2
ENDMDL
MODEL 8
REMARK VINA RESULT:      -6.2     10.261     12.724
REMARK  2 active torsions:
REMARK  status: ('A' for Active; 'I' for Inactive)
REMARK    1  A    between atoms: O1_2  and  C2_3 
REMARK    2  A    between atoms: C4_5  and  O2_6 
ROOT
HETATM    1  C2  UNL     1      29.581  10.178  46.790  1.00  0.00     0.068 C 
HETATM    2  C3  UNL     1      30.063   9.679  47.888  1.00  0.00     0.041 C 
HETATM    3  C4  UNL     1      30.230   9.061  49.209  1.00  0.00     0.144 C 
HETATM    4  C5  UNL     1      31.258   7.960  49.084  1.00  0.00     0.042 C 
HETATM    5  C6  UNL     1      30.916   6.911  48.065  1.00  0.00     0.009 C 
HETATM    6  C7  UNL     1      29.710   6.107  48.316  1.00  0.00     0.012 C 
HETATM    7  C8  UNL     1      32.142   6.028  47.936  1.00  0.00     0.144 C 
HETATM    8 CL1  UNL     1      33.574   7.055  47.532  1.00  0.00    -0.117 Cl
HETATM    9  C9  UNL     1      31.991   5.032  46.818  1.00  0.00     0.099 C 
HETATM   10  F1  UNL     1      31.028   4.202  47.394  1.00  0.00    -0.213 F 
HETATM   11  C10 UNL     1      32.768   5.278  45.742  1.00  0.00     0.083 C 
HETATM   12  C11 UNL     1      33.122   4.798  44.422  1.00  0.00     0.003 C 
HETATM   13  C12 UNL     1      34.042   5.689  43.987  1.00  0.00     0.085 C 
HETATM   14  N1  UNL     1      34.710   6.863  44.405  1.00  0.00    -0.361 N 
HETATM   15  C13 UNL     1      34.286   8.202  44.154  1.00  0.00     0.208 C 
HETATM   16  N2  UNL     1      33.872   9.410  44.063  1.00  0.00    -0.237 NA
HETATM   17  C14 UNL     1      33.382  10.083  45.214  1.00  0.00     0.233 C 
HETATM   18  N3  UNL     1      32.424  10.718  45.785  1.00  0.00    -0.254 NA
HETATM   19  C15 UNL     1      31.186  10.984  45.160  1.00  0.00     0.120 C 
HETATM   20  C16 UNL     1      29.956  10.773  45.546  1.00  0.00     0.055 C 
HETATM   21  H17 UNL     1      35.589   6.993  44.952  1.00  0.00     0.166 HD
ENDROOT
BRANCH   1  22
HETATM   22  O1  UNL     1      28.370   9.867  47.354  1.00  0.00    -0.356 OA
HETATM   23  C1  UNL     1      27.374   9.107  46.680  1.00  0.00     0.210 C 
ENDBRANCH   1  22
BRANCH   3  24
HETATM   24  O2  UNL     1      29.024   8.681  49.731  1.00  0.00    -0.392 OA
HETATM   25  H6  UNL     1      28.281   9.283  49.473  1.00  0.00     0.210 HD
ENDBRANCH   3  24
TORSDOF 2
ENDMDL
MODEL 9
REMARK VINA RESULT:      -6.1      3.166      5.613
REMARK  2 active torsions:
REMARK  status: ('A' for Active; 'I' for Inactive)
REMARK    1  A    between atoms: O1_2  and  C2_3 
REMARK    2  A    between atoms: C4_5  and  O2_6 
ROOT
HETATM    1  C2  UNL     1      24.189   5.898  49.180  1.00  0.00     0.068 C 
HETATM    2  C3  UNL     1      24.728   4.728  49.348  1.00  0.00     0.041 C 
HETATM    3  C4  UNL     1      25.544   3.598  49.808  1.00  0.00     0.144 C 
HETATM    4  C5  UNL     1      24.619   2.435  50.085  1.00  0.00     0.042 C 
HETATM    5  C6  UNL     1      23.540   2.732  51.088  1.00  0.00     0.009 C 
HETATM    6  C7  UNL     1      23.974   3.047  52.458  1.00  0.00     0.012 C 
HETATM    7  C8  UNL     1      22.606   1.538  51.073  1.00  0.00     0.144 C 
HETATM    8 CL1  UNL     1      22.029   1.256  49.383  1.00  0.00    -0.117 Cl
HETATM    9  C9  UNL     1      21.384   1.782  51.916  1.00  0.00     0.099 C 
HETATM   10  F1  UNL     1      21.977   1.739  53.179  1.00  0.00    -0.213 F 
HETATM   11  C10 UNL     1      20.244   1.951  51.211  1.00  0.00     0.083 C 
HETATM   12  C11 UNL     1      18.823   2.200  51.332  1.00  0.00     0.003 C 
HETATM   13  C12 UNL     1      18.386   2.225  50.052  1.00  0.00     0.085 C 
HETATM   14  N1  UNL     1      18.870   2.091  48.729  1.00  0.00    -0.361 N 
HETATM   15  C13 UNL     1      19.310   3.156  47.887  1.00  0.00     0.208 C 
HETATM   16  N2  UNL     1      19.834   4.062  47.152  1.00  0.00    -0.237 NA
HETATM   17  C14 UNL     1      21.240   4.091  46.949  1.00  0.00     0.233 C 
HETATM   18  N3  UNL     1      22.344   4.740  47.026  1.00  0.00    -0.254 NA
HETATM   19  C15 UNL     1      22.436   6.063  47.512  1.00  0.00     0.120 C 
HETATM   20  C16 UNL     1      23.201   6.601  48.424  1.00  0.00     0.055 C 
HETATM   21  H17 UNL     1      19.003   1.247  48.132  1.00  0.00     0.166 HD
ENDROOT
BRANCH   1  22
HETATM   22  O1  UNL     1      25.059   6.278  50.169  1.00  0.00    -0.356 OA
HETATM   23  C1  UNL     1      25.841   7.465  50.100  1.00  0.00     0.210 C 
ENDBRANCH   1  22
BRANCH   3  24
HETATM   24  O2  UNL     1      26.353   3.966  50.848  1.00  0.00    -0.392 OA
HETATM   25  H6  UNL     1      26.096   4.831  51.254  1.00  0.00     0.210 HD
ENDBRANCH   3  24
TORSDOF 2
ENDMDL
