MODEL 1
REMARK VINA RESULT:      -8.7      0.000      0.000
REMARK  4 active torsions:
REMARK  status: ('A' for Active; 'I' for Inactive)
REMARK    1  A    between atoms: O1_2  and  C2_3 
REMARK    2  A    between atoms: C2_3  and  C3_4 
REMARK    3  A    between atoms: C3_4  and  O2_6 
REMARK    4  A    between atoms: O2_6  and  C5_7 
ROOT
HETATM    1  C5  UNL     1      26.414   0.330  52.461  1.00  0.00     0.107 A 
HETATM    2  C6  UNL     1      26.841   1.412  51.685  1.00  0.00     0.072 A 
HETATM    3  C7  UNL     1      25.956   2.352  51.137  1.00  0.00     0.070 A 
HETATM    4  C8  UNL     1      24.641   2.081  51.451  1.00  0.00     0.016 A 
HETATM    5  C9  UNL     1      24.236   1.020  52.210  1.00  0.00     0.114 A 
HETATM    6  C10 UNL     1      25.105   0.107  52.742  1.00  0.00     0.136 A 
HETATM    7  O3  UNL     1      24.435  -0.841  53.450  1.00  0.00    -0.344 OA
HETATM    8  C11 UNL     1      23.255  -0.678  54.173  1.00  0.00     0.202 C 
HETATM    9  C12 UNL     1      22.296   0.296  53.530  1.00  0.00     0.202 C 
HETATM   10  O4  UNL     1      22.876   0.933  52.405  1.00  0.00    -0.345 OA
HETATM   11  C13 UNL     1      24.005   3.046  50.870  1.00  0.00     0.066 C 
HETATM   12  C14 UNL     1      23.120   4.022  50.307  1.00  0.00    -0.065 C 
HETATM   13  C15 UNL     1      22.790   5.231  50.872  1.00  0.00    -0.002 C 
HETATM   14  C16 UNL     1      23.720   6.171  50.107  1.00  0.00     0.174 C 
HETATM   15  N1  UNL     1      24.350   5.422  49.039  1.00  0.00    -0.281 N 
HETATM   16  N2  UNL     1      25.748   5.284  49.155  1.00  0.00    -0.169 NA
HETATM   17  C17 UNL     1      26.240   4.276  49.801  1.00  0.00     0.255 C 
HETATM   18  N3  UNL     1      26.692   3.177  50.503  1.00  0.00    -0.240 NA
HETATM   19  C18 UNL     1      23.263   4.974  48.135  1.00  0.00     0.208 C 
HETATM   20 CL1  UNL     1      22.312   6.408  47.730  1.00  0.00    -0.100 Cl
HETATM   21  C19 UNL     1      22.424   3.948  48.942  1.00  0.00     0.050 C 
HETATM   22  C20 UNL     1      22.464   2.587  48.358  1.00  0.00     0.018 C 
ENDROOT
BRANCH   1  23
HETATM   23  O2  UNL     1      27.330  -0.532  52.956  1.00  0.00    -0.341 OA
BRANCH  23  24
HETATM   24  C3  UNL     1      28.590  -0.417  53.440  1.00  0.00     0.148 C 
HETATM   25  C4  UNL     1      29.391  -1.720  53.368  1.00  0.00     0.042 C 
BRANCH  24  26
HETATM   26  C2  UNL     1      28.639  -0.037  54.927  1.00  0.00     0.199 C 
BRANCH  26  27
HETATM   27  O1  UNL     1      28.424   1.337  55.006  1.00  0.00    -0.393 OA
HETATM   28  C1  UNL     1      29.425   1.989  54.300  1.00  0.00     0.201 C 
ENDBRANCH  26  27
ENDBRANCH  24  26
ENDBRANCH  23  24
ENDBRANCH   1  23
TORSDOF 4
ENDMDL
MODEL 2
REMARK VINA RESULT:      -8.5      1.516      1.768
REMARK  4 active torsions:
REMARK  status: ('A' for Active; 'I' for Inactive)
REMARK    1  A    between atoms: O1_2  and  C2_3 
REMARK    2  A    between atoms: C2_3  and  C3_4 
REMARK    3  A    between atoms: C3_4  and  O2_6 
REMARK    4  A    between atoms: O2_6  and  C5_7 
ROOT
HETATM    1  C5  UNL     1      25.736  -0.022  53.255  1.00  0.00     0.107 A 
HETATM    2  C6  UNL     1      25.862   1.008  52.317  1.00  0.00     0.072 A 
HETATM    3  C7  UNL     1      24.762   1.710  51.805  1.00  0.00     0.070 A 
HETATM    4  C8  UNL     1      23.566   1.267  52.329  1.00  0.00     0.016 A 
HETATM    5  C9  UNL     1      23.455   0.258  53.244  1.00  0.00     0.114 A 
HETATM    6  C10 UNL     1      24.533  -0.422  53.740  1.00  0.00     0.136 A 
HETATM    7  O3  UNL     1      24.138  -1.370  54.631  1.00  0.00    -0.344 OA
HETATM    8  C11 UNL     1      23.044  -1.314  55.492  1.00  0.00     0.202 C 
HETATM    9  C12 UNL     1      21.854  -0.604  54.894  1.00  0.00     0.202 C 
HETATM   10  O4  UNL     1      22.168  -0.028  53.638  1.00  0.00    -0.345 OA
HETATM   11  C13 UNL     1      22.699   2.030  51.747  1.00  0.00     0.066 C 
HETATM   12  C14 UNL     1      21.590   2.766  51.216  1.00  0.00    -0.065 C 
HETATM   13  C15 UNL     1      21.117   3.965  51.692  1.00  0.00    -0.002 C 
HETATM   14  C16 UNL     1      21.761   4.941  50.710  1.00  0.00     0.174 C 
HETATM   15  N1  UNL     1      22.382   4.178  49.647  1.00  0.00    -0.281 N 
HETATM   16  N2  UNL     1      23.786   4.290  49.578  1.00  0.00    -0.169 NA
HETATM   17  C17 UNL     1      24.527   3.468  50.249  1.00  0.00     0.255 C 
HETATM   18  N3  UNL     1      25.253   2.558  50.991  1.00  0.00    -0.240 NA
HETATM   19  C18 UNL     1      21.293   3.443  48.958  1.00  0.00     0.208 C 
HETATM   20 CL1  UNL     1      20.056   4.636  48.544  1.00  0.00    -0.100 Cl
HETATM   21  C19 UNL     1      20.758   2.404  49.978  1.00  0.00     0.050 C 
HETATM   22  C20 UNL     1      20.975   1.005  49.539  1.00  0.00     0.018 C 
ENDROOT
BRANCH   1  23
HETATM   23  O2  UNL     1      26.847  -0.650  53.702  1.00  0.00    -0.341 OA
BRANCH  23  24
HETATM   24  C3  UNL     1      28.177  -0.515  53.483  1.00  0.00     0.148 C 
HETATM   25  C4  UNL     1      28.888  -1.845  53.217  1.00  0.00     0.042 C 
BRANCH  24  26
HETATM   26  C2  UNL     1      28.935   0.074  54.683  1.00  0.00     0.199 C 
BRANCH  26  27
HETATM   27  O1  UNL     1      28.442   1.360  54.887  1.00  0.00    -0.393 OA
HETATM   28  C1  UNL     1      28.973   2.204  53.920  1.00  0.00     0.201 C 
ENDBRANCH  26  27
ENDBRANCH  24  26
ENDBRANCH  23  24
ENDBRANCH   1  23
TORSDOF 4
ENDMDL
MODEL 3
REMARK VINA RESULT:      -8.0      3.319      4.706
REMARK  4 active torsions:
REMARK  status: ('A' for Active; 'I' for Inactive)
REMARK    1  A    between atoms: O1_2  and  C2_3 
REMARK    2  A    between atoms: C2_3  and  C3_4 
REMARK    3  A    between atoms: C3_4  and  O2_6 
REMARK    4  A    between atoms: O2_6  and  C5_7 
ROOT
HETATM    1  C5  UNL     1      26.046   1.288  52.366  1.00  0.00     0.107 A 
HETATM    2  C6  UNL     1      24.921   0.575  52.791  1.00  0.00     0.072 A 
HETATM    3  C7  UNL     1      23.630   0.834  52.311  1.00  0.00     0.070 A 
HETATM    4  C8  UNL     1      23.608   1.859  51.388  1.00  0.00     0.016 A 
HETATM    5  C9  UNL     1      24.715   2.549  50.981  1.00  0.00     0.114 A 
HETATM    6  C10 UNL     1      25.971   2.291  51.454  1.00  0.00     0.136 A 
HETATM    7  O3  UNL     1      26.882   3.123  50.883  1.00  0.00    -0.344 OA
HETATM    8  C11 UNL     1      26.848   3.656  49.596  1.00  0.00     0.202 C 
HETATM    9  C12 UNL     1      25.450   3.980  49.126  1.00  0.00     0.202 C 
HETATM   10  O4  UNL     1      24.473   3.534  50.051  1.00  0.00    -0.345 OA
HETATM   11  C13 UNL     1      22.356   1.932  51.072  1.00  0.00     0.066 C 
HETATM   12  C14 UNL     1      21.029   2.174  50.590  1.00  0.00    -0.065 C 
HETATM   13  C15 UNL     1      20.413   1.507  49.557  1.00  0.00    -0.002 C 
HETATM   14  C16 UNL     1      19.554   0.508  50.329  1.00  0.00     0.174 C 
HETATM   15  N1  UNL     1      19.620   0.839  51.737  1.00  0.00    -0.281 N 
HETATM   16  N2  UNL     1      20.229  -0.138  52.549  1.00  0.00    -0.169 NA
HETATM   17  C17 UNL     1      21.508  -0.100  52.747  1.00  0.00     0.255 C 
HETATM   18  N3  UNL     1      22.874   0.004  52.913  1.00  0.00    -0.240 NA
HETATM   19  C18 UNL     1      19.035   2.195  51.883  1.00  0.00     0.208 C 
HETATM   20 CL1  UNL     1      17.459   2.159  51.085  1.00  0.00    -0.100 Cl
HETATM   21  C19 UNL     1      20.010   3.166  51.167  1.00  0.00     0.050 C 
HETATM   22  C20 UNL     1      20.632   4.142  52.093  1.00  0.00     0.018 C 
ENDROOT
BRANCH   1  23
HETATM   23  O2  UNL     1      27.259   0.977  52.876  1.00  0.00    -0.341 OA
BRANCH  23  24
HETATM   24  C3  UNL     1      27.920   1.268  54.022  1.00  0.00     0.148 C 
HETATM   25  C4  UNL     1      28.998   2.341  53.847  1.00  0.00     0.042 C 
BRANCH  24  26
HETATM   26  C2  UNL     1      28.684   0.070  54.605  1.00  0.00     0.199 C 
BRANCH  26  27
HETATM   27  O1  UNL     1      28.295  -1.055  53.883  1.00  0.00    -0.393 OA
HETATM   28  C1  UNL     1      29.430  -1.684  53.387  1.00  0.00     0.201 C 
ENDBRANCH  26  27
ENDBRANCH  24  26
ENDBRANCH  23  24
ENDBRANCH   1  23
TORSDOF 4
ENDMDL
MODEL 4
REMARK VINA RESULT:      -7.6      4.098      7.607
REMARK  4 active torsions:
REMARK  status: ('A' for Active; 'I' for Inactive)
REMARK    1  A    between atoms: O1_2  and  C2_3 
REMARK    2  A    between atoms: C2_3  and  C3_4 
REMARK    3  A    between atoms: C3_4  and  O2_6 
REMARK    4  A    between atoms: O2_6  and  C5_7 
ROOT
HETATM    1  C5  UNL     1      20.711   2.167  52.414  1.00  0.00     0.107 A 
HETATM    2  C6  UNL     1      21.323   1.055  53.001  1.00  0.00     0.072 A 
HETATM    3  C7  UNL     1      22.710   0.956  53.179  1.00  0.00     0.070 A 
HETATM    4  C8  UNL     1      23.381   2.067  52.711  1.00  0.00     0.016 A 
HETATM    5  C9  UNL     1      22.771   3.148  52.138  1.00  0.00     0.114 A 
HETATM    6  C10 UNL     1      21.417   3.237  51.969  1.00  0.00     0.136 A 
HETATM    7  O3  UNL     1      21.082   4.413  51.375  1.00  0.00    -0.344 OA
HETATM    8  C11 UNL     1      21.729   5.640  51.508  1.00  0.00     0.202 C 
HETATM    9  C12 UNL     1      23.228   5.508  51.639  1.00  0.00     0.202 C 
HETATM   10  O4  UNL     1      23.624   4.151  51.740  1.00  0.00    -0.345 OA
HETATM   11  C13 UNL     1      24.616   1.785  52.970  1.00  0.00     0.066 C 
HETATM   12  C14 UNL     1      26.030   1.666  53.169  1.00  0.00    -0.065 C 
HETATM   13  C15 UNL     1      26.712   1.992  54.317  1.00  0.00    -0.002 C 
HETATM   14  C16 UNL     1      26.878   0.616  54.957  1.00  0.00     0.174 C 
HETATM   15  N1  UNL     1      26.442  -0.386  54.007  1.00  0.00    -0.281 N 
HETATM   16  N2  UNL     1      25.308  -1.125  54.401  1.00  0.00    -0.169 NA
HETATM   17  C17 UNL     1      24.126  -0.694  54.095  1.00  0.00     0.255 C 
HETATM   18  N3  UNL     1      22.899  -0.174  53.735  1.00  0.00    -0.240 NA
HETATM   19  C18 UNL     1      27.346  -0.284  52.835  1.00  0.00     0.208 C 
HETATM   20 CL1  UNL     1      28.999  -0.358  53.458  1.00  0.00    -0.100 Cl
HETATM   21  C19 UNL     1      27.050   1.090  52.177  1.00  0.00     0.050 C 
HETATM   22  C20 UNL     1      26.499   0.964  50.808  1.00  0.00     0.018 C 
ENDROOT
BRANCH   1  23
HETATM   23  O2  UNL     1      19.366   2.187  52.280  1.00  0.00    -0.341 OA
BRANCH  23  24
HETATM   24  C3  UNL     1      18.459   1.439  51.607  1.00  0.00     0.148 C 
HETATM   25  C4  UNL     1      18.941   0.998  50.222  1.00  0.00     0.042 C 
BRANCH  24  26
HETATM   26  C2  UNL     1      17.147   2.185  51.320  1.00  0.00     0.199 C 
BRANCH  26  27
HETATM   27  O1  UNL     1      17.252   3.441  51.910  1.00  0.00    -0.393 OA
HETATM   28  C1  UNL     1      17.091   4.412  50.931  1.00  0.00     0.201 C 
ENDBRANCH  26  27
ENDBRANCH  24  26
ENDBRANCH  23  24
ENDBRANCH   1  23
TORSDOF 4
ENDMDL
MODEL 5
REMARK VINA RESULT:      -7.6      3.716      7.389
REMARK  4 active torsions:
REMARK  status: ('A' for Active; 'I' for Inactive)
REMARK    1  A    between atoms: O1_2  and  C2_3 
REMARK    2  A    between atoms: C2_3  and  C3_4 
REMARK    3  A    between atoms: C3_4  and  O2_6 
REMARK    4  A    between atoms: O2_6  and  C5_7 
ROOT
HETATM    1  C5  UNL     1      21.119   2.248  52.533  1.00  0.00     0.107 A 
HETATM    2  C6  UNL     1      22.380   2.716  52.151  1.00  0.00     0.072 A 
HETATM    3  C7  UNL     1      23.563   2.011  52.408  1.00  0.00     0.070 A 
HETATM    4  C8  UNL     1      23.334   0.823  53.071  1.00  0.00     0.016 A 
HETATM    5  C9  UNL     1      22.096   0.377  53.440  1.00  0.00     0.114 A 
HETATM    6  C10 UNL     1      20.946   1.071  53.186  1.00  0.00     0.136 A 
HETATM    7  O3  UNL     1      19.863   0.400  53.660  1.00  0.00    -0.344 OA
HETATM    8  C11 UNL     1      19.697  -0.981  53.747  1.00  0.00     0.202 C 
HETATM    9  C12 UNL     1      20.975  -1.712  54.082  1.00  0.00     0.202 C 
HETATM   10  O4  UNL     1      22.089  -0.835  54.093  1.00  0.00    -0.345 OA
HETATM   11  C13 UNL     1      24.525   0.335  53.202  1.00  0.00     0.066 C 
HETATM   12  C14 UNL     1      25.746  -0.373  53.447  1.00  0.00    -0.065 C 
HETATM   13  C15 UNL     1      26.374  -1.224  52.569  1.00  0.00    -0.002 C 
HETATM   14  C16 UNL     1      27.451  -0.305  51.997  1.00  0.00     0.174 C 
HETATM   15  N1  UNL     1      27.452   0.928  52.755  1.00  0.00    -0.281 N 
HETATM   16  N2  UNL     1      27.087   2.076  52.023  1.00  0.00    -0.169 NA
HETATM   17  C17 UNL     1      25.842   2.423  51.954  1.00  0.00     0.255 C 
HETATM   18  N3  UNL     1      24.497   2.731  51.925  1.00  0.00    -0.240 NA
HETATM   19  C18 UNL     1      27.811   0.571  54.149  1.00  0.00     0.208 C 
HETATM   20 CL1  UNL     1      29.297  -0.383  54.065  1.00  0.00    -0.100 Cl
HETATM   21  C19 UNL     1      26.629  -0.272  54.698  1.00  0.00     0.050 C 
HETATM   22  C20 UNL     1      25.933   0.385  55.831  1.00  0.00     0.018 C 
ENDROOT
BRANCH   1  23
HETATM   23  O2  UNL     1      20.024   2.987  52.247  1.00  0.00    -0.341 OA
BRANCH  23  24
HETATM   24  C3  UNL     1      19.201   3.105  51.177  1.00  0.00     0.148 C 
HETATM   25  C4  UNL     1      19.238   4.493  50.530  1.00  0.00     0.042 C 
BRANCH  24  26
HETATM   26  C2  UNL     1      17.718   2.900  51.524  1.00  0.00     0.199 C 
BRANCH  26  27
HETATM   27  O1  UNL     1      17.307   4.019  52.244  1.00  0.00    -0.393 OA
HETATM   28  C1  UNL     1      15.926   4.128  52.154  1.00  0.00     0.201 C 
ENDBRANCH  26  27
ENDBRANCH  24  26
ENDBRANCH  23  24
ENDBRANCH   1  23
TORSDOF 4
ENDMDL
MODEL 6
REMARK VINA RESULT:      -7.4      5.161      7.411
REMARK  4 active torsions:
REMARK  status: ('A' for Active; 'I' for Inactive)
REMARK    1  A    between atoms: O1_2  and  C2_3 
REMARK    2  A    between atoms: C2_3  and  C3_4 
REMARK    3  A    between atoms: C3_4  and  O2_6 
REMARK    4  A    between atoms: O2_6  and  C5_7 
ROOT
HETATM    1  C5  UNL     1      29.333   6.476  47.824  1.00  0.00     0.107 A 
HETATM    2  C6  UNL     1      28.758   5.333  48.387  1.00  0.00     0.072 A 
HETATM    3  C7  UNL     1      27.389   5.229  48.668  1.00  0.00     0.070 A 
HETATM    4  C8  UNL     1      26.694   6.371  48.327  1.00  0.00     0.016 A 
HETATM    5  C9  UNL     1      27.268   7.483  47.778  1.00  0.00     0.114 A 
HETATM    6  C10 UNL     1      28.605   7.577  47.507  1.00  0.00     0.136 A 
HETATM    7  O3  UNL     1      28.904   8.788  46.966  1.00  0.00    -0.344 OA
HETATM    8  C11 UNL     1      28.092   9.569  46.146  1.00  0.00     0.202 C 
HETATM    9  C12 UNL     1      26.628   9.484  46.507  1.00  0.00     0.202 C 
HETATM   10  O4  UNL     1      26.396   8.514  47.513  1.00  0.00    -0.345 OA
HETATM   11  C13 UNL     1      25.478   6.073  48.651  1.00  0.00     0.066 C 
HETATM   12  C14 UNL     1      24.081   5.942  48.939  1.00  0.00    -0.065 C 
HETATM   13  C15 UNL     1      23.139   5.373  48.116  1.00  0.00    -0.002 C 
HETATM   14  C16 UNL     1      23.020   3.981  48.731  1.00  0.00     0.174 C 
HETATM   15  N1  UNL     1      23.768   3.963  49.971  1.00  0.00    -0.281 N 
HETATM   16  N2  UNL     1      24.880   3.096  49.982  1.00  0.00    -0.169 NA
HETATM   17  C17 UNL     1      26.035   3.533  49.594  1.00  0.00     0.255 C 
HETATM   18  N3  UNL     1      27.234   4.067  49.166  1.00  0.00    -0.240 NA
HETATM   19  C18 UNL     1      23.122   4.948  50.872  1.00  0.00     0.208 C 
HETATM   20 CL1  UNL     1      21.399   4.555  50.906  1.00  0.00    -0.100 Cl
HETATM   21  C19 UNL     1      23.371   6.343  50.239  1.00  0.00     0.050 C 
HETATM   22  C20 UNL     1      24.206   7.220  51.093  1.00  0.00     0.018 C 
ENDROOT
BRANCH   1  23
HETATM   23  O2  UNL     1      30.663   6.498  47.582  1.00  0.00    -0.341 OA
BRANCH  23  24
HETATM   24  C3  UNL     1      31.777   6.410  48.347  1.00  0.00     0.148 C 
HETATM   25  C4  UNL     1      32.611   7.694  48.358  1.00  0.00     0.042 C 
BRANCH  24  26
HETATM   26  C2  UNL     1      32.764   5.335  47.865  1.00  0.00     0.199 C 
BRANCH  26  27
HETATM   27  O1  UNL     1      32.256   4.103  48.269  1.00  0.00    -0.393 OA
HETATM   28  C1  UNL     1      32.894   3.099  47.554  1.00  0.00     0.201 C 
ENDBRANCH  26  27
ENDBRANCH  24  26
ENDBRANCH  23  24
ENDBRANCH   1  23
TORSDOF 4
ENDMDL
MODEL 7
REMARK VINA RESULT:      -7.3      3.970      6.013
REMARK  4 active torsions:
REMARK  status: ('A' for Active; 'I' for Inactive)
REMARK    1  A    between atoms: O1_2  and  C2_3 
REMARK    2  A    between atoms: C2_3  and  C3_4 
REMARK    3  A    between atoms: C3_4  and  O2_6 
REMARK    4  A    between atoms: O2_6  and  C5_7 
ROOT
HETATM    1  C5  UNL     1      24.880   3.919  49.854  1.00  0.00     0.107 A 
HETATM    2  C6  UNL     1      26.202   3.886  49.401  1.00  0.00     0.072 A 
HETATM    3  C7  UNL     1      26.900   5.035  49.004  1.00  0.00     0.070 A 
HETATM    4  C8  UNL     1      26.135   6.178  49.112  1.00  0.00     0.016 A 
HETATM    5  C9  UNL     1      24.843   6.198  49.556  1.00  0.00     0.114 A 
HETATM    6  C10 UNL     1      24.169   5.072  49.942  1.00  0.00     0.136 A 
HETATM    7  O3  UNL     1      22.904   5.379  50.336  1.00  0.00    -0.344 OA
HETATM    8  C11 UNL     1      22.474   6.550  50.955  1.00  0.00     0.202 C 
HETATM    9  C12 UNL     1      23.201   7.780  50.467  1.00  0.00     0.202 C 
HETATM   10  O4  UNL     1      24.260   7.444  49.588  1.00  0.00    -0.345 OA
HETATM   11  C13 UNL     1      26.947   7.104  48.714  1.00  0.00     0.066 C 
HETATM   12  C14 UNL     1      27.681   8.266  48.311  1.00  0.00    -0.065 C 
HETATM   13  C15 UNL     1      28.524   9.002  49.108  1.00  0.00    -0.002 C 
HETATM   14  C16 UNL     1      29.882   8.449  48.683  1.00  0.00     0.174 C 
HETATM   15  N1  UNL     1      29.686   7.584  47.538  1.00  0.00    -0.281 N 
HETATM   16  N2  UNL     1      29.998   6.228  47.758  1.00  0.00    -0.169 NA
HETATM   17  C17 UNL     1      29.082   5.423  48.194  1.00  0.00     0.255 C 
HETATM   18  N3  UNL     1      28.056   4.626  48.659  1.00  0.00    -0.240 NA
HETATM   19  C18 UNL     1      29.148   8.436  46.449  1.00  0.00     0.208 C 
HETATM   20 CL1  UNL     1      30.236   9.822  46.300  1.00  0.00    -0.100 Cl
HETATM   21  C19 UNL     1      27.731   8.876  46.904  1.00  0.00     0.050 C 
HETATM   22  C20 UNL     1      26.658   8.356  46.023  1.00  0.00     0.018 C 
ENDROOT
BRANCH   1  23
HETATM   23  O2  UNL     1      24.277   2.767  50.221  1.00  0.00    -0.341 OA
BRANCH  23  24
HETATM   24  C3  UNL     1      24.327   1.964  51.311  1.00  0.00     0.148 C 
HETATM   25  C4  UNL     1      22.997   1.269  51.617  1.00  0.00     0.042 C 
BRANCH  24  26
HETATM   26  C2  UNL     1      24.655   2.719  52.609  1.00  0.00     0.199 C 
BRANCH  26  27
HETATM   27  O1  UNL     1      25.603   1.963  53.293  1.00  0.00    -0.393 OA
HETATM   28  C1  UNL     1      26.804   2.014  52.599  1.00  0.00     0.201 C 
ENDBRANCH  26  27
ENDBRANCH  24  26
ENDBRANCH  23  24
ENDBRANCH   1  23
TORSDOF 4
ENDMDL
MODEL 8
REMARK VINA RESULT:      -7.3      2.925      4.673
REMARK  4 active torsions:
REMARK  status: ('A' for Active; 'I' for Inactive)
REMARK    1  A    between atoms: O1_2  and  C2_3 
REMARK    2  A    between atoms: C2_3  and  C3_4 
REMARK    3  A    between atoms: C3_4  and  O2_6 
REMARK    4  A    between atoms: O2_6  and  C5_7 
ROOT
HETATM    1  C5  UNL     1      25.162   2.833  50.792  1.00  0.00     0.107 A 
HETATM    2  C6  UNL     1      26.307   3.216  50.087  1.00  0.00     0.072 A 
HETATM    3  C7  UNL     1      26.487   4.507  49.571  1.00  0.00     0.070 A 
HETATM    4  C8  UNL     1      25.416   5.334  49.839  1.00  0.00     0.016 A 
HETATM    5  C9  UNL     1      24.301   4.947  50.529  1.00  0.00     0.114 A 
HETATM    6  C10 UNL     1      24.133   3.686  51.030  1.00  0.00     0.136 A 
HETATM    7  O3  UNL     1      22.938   3.576  51.668  1.00  0.00    -0.344 OA
HETATM    8  C11 UNL     1      22.262   4.571  52.371  1.00  0.00     0.202 C 
HETATM    9  C12 UNL     1      22.425   5.942  51.761  1.00  0.00     0.202 C 
HETATM   10  O4  UNL     1      23.349   5.928  50.686  1.00  0.00    -0.345 OA
HETATM   11  C13 UNL     1      25.776   6.452  49.297  1.00  0.00     0.066 C 
HETATM   12  C14 UNL     1      25.984   7.766  48.768  1.00  0.00    -0.065 C 
HETATM   13  C15 UNL     1      26.663   8.787  49.390  1.00  0.00    -0.002 C 
HETATM   14  C16 UNL     1      28.022   8.694  48.700  1.00  0.00     0.174 C 
HETATM   15  N1  UNL     1      27.917   7.749  47.608  1.00  0.00    -0.281 N 
HETATM   16  N2  UNL     1      28.705   6.589  47.749  1.00  0.00    -0.169 NA
HETATM   17  C17 UNL     1      28.214   5.552  48.350  1.00  0.00     0.255 C 
HETATM   18  N3  UNL     1      27.626   4.487  49.001  1.00  0.00    -0.240 NA
HETATM   19  C18 UNL     1      26.927   8.308  46.655  1.00  0.00     0.208 C 
HETATM   20 CL1  UNL     1      27.434   9.965  46.307  1.00  0.00    -0.100 Cl
HETATM   21  C19 UNL     1      25.558   8.276  47.384  1.00  0.00     0.050 C 
HETATM   22  C20 UNL     1      24.579   7.378  46.727  1.00  0.00     0.018 C 
ENDROOT
BRANCH   1  23
HETATM   23  O2  UNL     1      25.065   1.568  51.260  1.00  0.00    -0.341 OA
BRANCH  23  24
HETATM   24  C3  UNL     1      25.518   0.916  52.358  1.00  0.00     0.148 C 
HETATM   25  C4  UNL     1      26.620  -0.102  52.049  1.00  0.00     0.042 C 
BRANCH  24  26
HETATM   26  C2  UNL     1      24.436   0.084  53.062  1.00  0.00     0.199 C 
BRANCH  26  27
HETATM   27  O1  UNL     1      23.218   0.414  52.474  1.00  0.00    -0.393 OA
HETATM   28  C1  UNL     1      22.255   0.523  53.469  1.00  0.00     0.201 C 
ENDBRANCH  26  27
ENDBRANCH  24  26
ENDBRANCH  23  24
ENDBRANCH   1  23
TORSDOF 4
ENDMDL
MODEL 9
REMARK VINA RESULT:      -7.3      6.463      8.673
REMARK  4 active torsions:
REMARK  status: ('A' for Active; 'I' for Inactive)
REMARK    1  A    between atoms: O1_2  and  C2_3 
REMARK    2  A    between atoms: C2_3  and  C3_4 
REMARK    3  A    between atoms: C3_4  and  O2_6 
REMARK    4  A    between atoms: O2_6  and  C5_7 
ROOT
HETATM    1  C5  UNL     1      31.569   6.258  47.257  1.00  0.00     0.107 A 
HETATM    2  C6  UNL     1      30.547   5.468  47.794  1.00  0.00     0.072 A 
HETATM    3  C7  UNL     1      29.252   5.952  48.024  1.00  0.00     0.070 A 
HETATM    4  C8  UNL     1      29.113   7.276  47.661  1.00  0.00     0.016 A 
HETATM    5  C9  UNL     1      30.119   8.037  47.136  1.00  0.00     0.114 A 
HETATM    6  C10 UNL     1      31.381   7.558  46.916  1.00  0.00     0.136 A 
HETATM    7  O3  UNL     1      32.179   8.525  46.390  1.00  0.00    -0.344 OA
HETATM    8  C11 UNL     1      31.799   9.564  45.542  1.00  0.00     0.202 C 
HETATM    9  C12 UNL     1      30.424  10.105  45.848  1.00  0.00     0.202 C 
HETATM   10  O4  UNL     1      29.770   9.335  46.842  1.00  0.00    -0.345 OA
HETATM   11  C13 UNL     1      27.874   7.520  47.939  1.00  0.00     0.066 C 
HETATM   12  C14 UNL     1      26.541   7.991  48.174  1.00  0.00    -0.065 C 
HETATM   13  C15 UNL     1      25.477   7.858  47.314  1.00  0.00    -0.002 C 
HETATM   14  C16 UNL     1      24.763   6.652  47.921  1.00  0.00     0.174 C 
HETATM   15  N1  UNL     1      25.391   6.338  49.188  1.00  0.00    -0.281 N 
HETATM   16  N2  UNL     1      26.035   5.086  49.237  1.00  0.00    -0.169 NA
HETATM   17  C17 UNL     1      27.280   4.992  48.894  1.00  0.00     0.255 C 
HETATM   18  N3  UNL     1      28.606   4.969  48.512  1.00  0.00    -0.240 NA
HETATM   19  C18 UNL     1      25.186   7.516  50.067  1.00  0.00     0.208 C 
HETATM   20 CL1  UNL     1      23.457   7.881  50.036  1.00  0.00    -0.100 Cl
HETATM   21  C19 UNL     1      26.020   8.669  49.448  1.00  0.00     0.050 C 
HETATM   22  C20 UNL     1      27.116   9.125  50.335  1.00  0.00     0.018 C 
ENDROOT
BRANCH   1  23
HETATM   23  O2  UNL     1      32.792   5.716  47.064  1.00  0.00    -0.341 OA
BRANCH  23  24
HETATM   24  C3  UNL     1      33.724   5.147  47.865  1.00  0.00     0.148 C 
HETATM   25  C4  UNL     1      34.731   6.150  48.436  1.00  0.00     0.042 C 
BRANCH  24  26
HETATM   26  C2  UNL     1      34.603   4.116  47.140  1.00  0.00     0.199 C 
BRANCH  26  27
HETATM   27  O1  UNL     1      34.566   2.946  47.893  1.00  0.00    -0.393 OA
HETATM   28  C1  UNL     1      33.291   2.403  47.817  1.00  0.00     0.201 C 
ENDBRANCH  26  27
ENDBRANCH  24  26
ENDBRANCH  23  24
ENDBRANCH   1  23
TORSDOF 4
ENDMDL
