MODEL 1
REMARK VINA RESULT:      -7.6      0.000      0.000
REMARK  5 active torsions:
REMARK  status: ('A' for Active; 'I' for Inactive)
REMARK    1  A    between atoms: C2_2  and  C3_3 
REMARK    2  A    between atoms: C3_3  and  O1_4 
REMARK    3  A    between atoms: C6_8  and  N2_9 
REMARK    4  A    between atoms: N2_9  and  C7_10 
REMARK    5  A    between atoms: C7_10  and  C8_11 
ROOT
HETATM    1  C3  UNL     1      28.044   0.341  53.810  1.00  0.00     0.259 C 
HETATM    2  N1  UNL     1      27.048   1.105  53.050  1.00  0.00    -0.328 N 
HETATM    3  C5  UNL     1      25.814   0.495  53.407  1.00  0.00     0.132 A 
HETATM    4  C6  UNL     1      24.550   0.589  52.813  1.00  0.00     0.156 A 
HETATM    5  N3  UNL     1      23.562  -0.114  53.385  1.00  0.00    -0.222 NA
HETATM    6  C14 UNL     1      23.760  -0.876  54.474  1.00  0.00     0.238 A 
HETATM    7  N4  UNL     1      24.977  -0.982  55.064  1.00  0.00    -0.216 NA
HETATM    8  C15 UNL     1      26.003  -0.288  54.520  1.00  0.00     0.200 A 
HETATM    9  O2  UNL     1      27.333  -0.206  54.903  1.00  0.00    -0.275 OA
HETATM   10  H7  UNL     1      27.234   1.904  52.407  1.00  0.00     0.165 HD
ENDROOT
BRANCH   4  11
HETATM   11  N2  UNL     1      24.367   1.399  51.664  1.00  0.00    -0.369 N 
HETATM   12  H8  UNL     1      24.391   0.909  50.723  1.00  0.00     0.161 HD
BRANCH  11  13
HETATM   13  C7  UNL     1      24.149   2.829  51.617  1.00  0.00     0.160 C 
BRANCH  13  14
HETATM   14  C8  UNL     1      25.085   3.509  50.687  1.00  0.00    -0.041 A 
HETATM   15  C9  UNL     1      24.691   4.813  50.366  1.00  0.00     0.009 A 
HETATM   16  C10 UNL     1      25.406   5.639  49.526  1.00  0.00     0.001 A 
HETATM   17  C11 UNL     1      26.568   5.183  48.964  1.00  0.00     0.000 A 
HETATM   18  C12 UNL     1      26.964   3.903  49.273  1.00  0.00     0.001 A 
HETATM   19  C13 UNL     1      26.257   3.072  50.110  1.00  0.00     0.009 A 
ENDBRANCH  13  14
ENDBRANCH  11  13
ENDBRANCH   4  11
BRANCH   1  20
HETATM   20  C2  UNL     1      29.118   1.206  54.348  1.00  0.00     0.083 C 
HETATM   21  C1  UNL     1      28.956   2.408  53.803  1.00  0.00     0.013 C 
ENDBRANCH   1  20
BRANCH   1  22
HETATM   22  O1  UNL     1      28.540  -0.714  53.039  1.00  0.00    -0.343 OA
HETATM   23  C4  UNL     1      29.707  -1.245  53.552  1.00  0.00     0.207 C 
ENDBRANCH   1  22
TORSDOF 5
ENDMDL
MODEL 2
REMARK VINA RESULT:      -7.5      1.924      2.510
REMARK  5 active torsions:
REMARK  status: ('A' for Active; 'I' for Inactive)
REMARK    1  A    between atoms: C2_2  and  C3_3 
REMARK    2  A    between atoms: C3_3  and  O1_4 
REMARK    3  A    between atoms: C6_8  and  N2_9 
REMARK    4  A    between atoms: N2_9  and  C7_10 
REMARK    5  A    between atoms: C7_10  and  C8_11 
ROOT
HETATM    1  C3  UNL     1      27.940   0.342  53.949  1.00  0.00     0.259 C 
HETATM    2  N1  UNL     1      26.760   0.933  53.306  1.00  0.00    -0.328 N 
HETATM    3  C5  UNL     1      25.672   0.228  53.889  1.00  0.00     0.132 A 
HETATM    4  C6  UNL     1      24.332   0.140  53.495  1.00  0.00     0.156 A 
HETATM    5  N3  UNL     1      23.528  -0.613  54.258  1.00  0.00    -0.222 NA
HETATM    6  C14 UNL     1      23.972  -1.259  55.351  1.00  0.00     0.238 A 
HETATM    7  N4  UNL     1      25.266  -1.188  55.749  1.00  0.00    -0.216 NA
HETATM    8  C15 UNL     1      26.113  -0.437  55.008  1.00  0.00     0.200 A 
HETATM    9  O2  UNL     1      27.466  -0.185  55.173  1.00  0.00    -0.275 OA
HETATM   10  H7  UNL     1      26.756   1.691  52.591  1.00  0.00     0.165 HD
ENDROOT
BRANCH   4  11
HETATM   11  N2  UNL     1      23.889   0.829  52.338  1.00  0.00    -0.369 N 
HETATM   12  H8  UNL     1      24.628   1.093  51.624  1.00  0.00     0.161 HD
BRANCH  11  13
HETATM   13  C7  UNL     1      22.536   1.221  52.008  1.00  0.00     0.160 C 
BRANCH  13  14
HETATM   14  C8  UNL     1      22.370   1.500  50.559  1.00  0.00    -0.041 A 
HETATM   15  C9  UNL     1      23.222   2.507  50.092  1.00  0.00     0.009 A 
HETATM   16  C10 UNL     1      23.251   2.930  48.780  1.00  0.00     0.001 A 
HETATM   17  C11 UNL     1      22.413   2.350  47.868  1.00  0.00     0.000 A 
HETATM   18  C12 UNL     1      21.572   1.359  48.317  1.00  0.00     0.001 A 
HETATM   19  C13 UNL     1      21.536   0.930  49.622  1.00  0.00     0.009 A 
ENDBRANCH  13  14
ENDBRANCH  11  13
ENDBRANCH   4  11
BRANCH   1  20
HETATM   20  C2  UNL     1      28.974   1.356  54.256  1.00  0.00     0.083 C 
HETATM   21  C1  UNL     1      28.625   2.469  53.618  1.00  0.00     0.013 C 
ENDBRANCH   1  20
BRANCH   1  22
HETATM   22  O1  UNL     1      28.435  -0.714  53.181  1.00  0.00    -0.343 OA
HETATM   23  C4  UNL     1      29.690  -1.126  53.587  1.00  0.00     0.207 C 
ENDBRANCH   1  22
TORSDOF 5
ENDMDL
MODEL 3
REMARK VINA RESULT:      -7.4      3.748      6.420
REMARK  5 active torsions:
REMARK  status: ('A' for Active; 'I' for Inactive)
REMARK    1  A    between atoms: C2_2  and  C3_3 
REMARK    2  A    between atoms: C3_3  and  O1_4 
REMARK    3  A    between atoms: C6_8  and  N2_9 
REMARK    4  A    between atoms: N2_9  and  C7_10 
REMARK    5  A    between atoms: C7_10  and  C8_11 
ROOT
HETATM    1  C3  UNL     1      20.521   0.709  52.368  1.00  0.00     0.259 C 
HETATM    2  N1  UNL     1      21.936   0.562  52.005  1.00  0.00    -0.328 N 
HETATM    3  C5  UNL     1      22.504  -0.094  53.131  1.00  0.00     0.132 A 
HETATM    4  C6  UNL     1      23.843  -0.259  53.505  1.00  0.00     0.156 A 
HETATM    5  N3  UNL     1      24.072  -0.937  54.639  1.00  0.00    -0.222 NA
HETATM    6  C14 UNL     1      23.076  -1.437  55.391  1.00  0.00     0.238 A 
HETATM    7  N4  UNL     1      21.773  -1.287  55.048  1.00  0.00    -0.216 NA
HETATM    8  C15 UNL     1      21.495  -0.610  53.909  1.00  0.00     0.200 A 
HETATM    9  O2  UNL     1      20.278  -0.308  53.320  1.00  0.00    -0.275 OA
HETATM   10  H7  UNL     1      22.387   0.878  51.120  1.00  0.00     0.165 HD
ENDROOT
BRANCH   4  11
HETATM   11  N2  UNL     1      24.874   0.279  52.696  1.00  0.00    -0.369 N 
HETATM   12  H8  UNL     1      24.801   0.112  51.650  1.00  0.00     0.161 HD
BRANCH  11  13
HETATM   13  C7  UNL     1      26.029   1.039  53.126  1.00  0.00     0.160 C 
BRANCH  13  14
HETATM   14  C8  UNL     1      27.253   0.202  53.205  1.00  0.00    -0.041 A 
HETATM   15  C9  UNL     1      28.390   0.927  53.578  1.00  0.00     0.009 A 
HETATM   16  C10 UNL     1      29.639   0.361  53.724  1.00  0.00     0.001 A 
HETATM   17  C11 UNL     1      29.800  -0.979  53.497  1.00  0.00     0.000 A 
HETATM   18  C12 UNL     1      28.688  -1.700  53.130  1.00  0.00     0.001 A 
HETATM   19  C13 UNL     1      27.439  -1.144  52.983  1.00  0.00     0.009 A 
ENDBRANCH  13  14
ENDBRANCH  11  13
ENDBRANCH   4  11
BRANCH   1  20
HETATM   20  C2  UNL     1      19.623   0.482  51.214  1.00  0.00     0.083 C 
HETATM   21  C1  UNL     1      18.564  -0.180  51.671  1.00  0.00     0.013 C 
ENDBRANCH   1  20
BRANCH   1  22
HETATM   22  O1  UNL     1      20.302   1.945  52.983  1.00  0.00    -0.343 OA
HETATM   23  C4  UNL     1      20.644   3.010  52.172  1.00  0.00     0.207 C 
ENDBRANCH   1  22
TORSDOF 5
ENDMDL
MODEL 4
REMARK VINA RESULT:      -7.2      1.686      2.600
REMARK  5 active torsions:
REMARK  status: ('A' for Active; 'I' for Inactive)
REMARK    1  A    between atoms: C2_2  and  C3_3 
REMARK    2  A    between atoms: C3_3  and  O1_4 
REMARK    3  A    between atoms: C6_8  and  N2_9 
REMARK    4  A    between atoms: N2_9  and  C7_10 
REMARK    5  A    between atoms: C7_10  and  C8_11 
ROOT
HETATM    1  C3  UNL     1      27.130   0.072  53.190  1.00  0.00     0.259 C 
HETATM    2  N1  UNL     1      27.251   1.402  52.582  1.00  0.00    -0.328 N 
HETATM    3  C5  UNL     1      25.903   1.812  52.400  1.00  0.00     0.132 A 
HETATM    4  C6  UNL     1      25.366   2.848  51.626  1.00  0.00     0.156 A 
HETATM    5  N3  UNL     1      24.033   2.993  51.657  1.00  0.00    -0.222 NA
HETATM    6  C14 UNL     1      23.239   2.192  52.387  1.00  0.00     0.238 A 
HETATM    7  N4  UNL     1      23.739   1.182  53.142  1.00  0.00    -0.216 NA
HETATM    8  C15 UNL     1      25.080   1.000  53.143  1.00  0.00     0.200 A 
HETATM    9  O2  UNL     1      25.858   0.065  53.808  1.00  0.00    -0.275 OA
HETATM   10  H7  UNL     1      28.137   1.901  52.350  1.00  0.00     0.165 HD
ENDROOT
BRANCH   4  11
HETATM   11  N2  UNL     1      26.224   3.679  50.864  1.00  0.00    -0.369 N 
HETATM   12  H8  UNL     1      26.652   4.513  51.361  1.00  0.00     0.161 HD
BRANCH  11  13
HETATM   13  C7  UNL     1      26.594   3.526  49.473  1.00  0.00     0.160 C 
BRANCH  13  14
HETATM   14  C8  UNL     1      27.121   4.786  48.891  1.00  0.00    -0.041 A 
HETATM   15  C9  UNL     1      26.161   5.802  48.818  1.00  0.00     0.009 A 
HETATM   16  C10 UNL     1      26.422   7.060  48.320  1.00  0.00     0.001 A 
HETATM   17  C11 UNL     1      27.679   7.357  47.867  1.00  0.00     0.000 A 
HETATM   18  C12 UNL     1      28.629   6.366  47.935  1.00  0.00     0.001 A 
HETATM   19  C13 UNL     1      28.379   5.108  48.431  1.00  0.00     0.009 A 
ENDBRANCH  13  14
ENDBRANCH  11  13
ENDBRANCH   4  11
BRANCH   1  20
HETATM   20  C2  UNL     1      28.150  -0.158  54.237  1.00  0.00     0.083 C 
HETATM   21  C1  UNL     1      29.162   0.665  53.978  1.00  0.00     0.013 C 
ENDBRANCH   1  20
BRANCH   1  22
HETATM   22  O1  UNL     1      27.142  -0.917  52.203  1.00  0.00    -0.343 OA
HETATM   23  C4  UNL     1      27.085  -2.194  52.729  1.00  0.00     0.207 C 
ENDBRANCH   1  22
TORSDOF 5
ENDMDL
MODEL 5
REMARK VINA RESULT:      -7.0      2.193      5.128
REMARK  5 active torsions:
REMARK  status: ('A' for Active; 'I' for Inactive)
REMARK    1  A    between atoms: C2_2  and  C3_3 
REMARK    2  A    between atoms: C3_3  and  O1_4 
REMARK    3  A    between atoms: C6_8  and  N2_9 
REMARK    4  A    between atoms: N2_9  and  C7_10 
REMARK    5  A    between atoms: C7_10  and  C8_11 
ROOT
HETATM    1  C3  UNL     1      27.102   1.338  53.204  1.00  0.00     0.259 C 
HETATM    2  N1  UNL     1      25.649   1.530  53.136  1.00  0.00    -0.328 N 
HETATM    3  C5  UNL     1      25.482   2.461  52.075  1.00  0.00     0.132 A 
HETATM    4  C6  UNL     1      24.374   3.238  51.715  1.00  0.00     0.156 A 
HETATM    5  N3  UNL     1      24.521   4.036  50.648  1.00  0.00    -0.222 NA
HETATM    6  C14 UNL     1      25.668   4.099  49.949  1.00  0.00     0.238 A 
HETATM    7  N4  UNL     1      26.752   3.356  50.282  1.00  0.00    -0.216 NA
HETATM    8  C15 UNL     1      26.649   2.535  51.352  1.00  0.00     0.200 A 
HETATM    9  O2  UNL     1      27.578   1.674  51.915  1.00  0.00    -0.275 OA
HETATM   10  H7  UNL     1      24.932   1.073  53.741  1.00  0.00     0.165 HD
ENDROOT
BRANCH   4  11
HETATM   11  N2  UNL     1      23.177   3.154  52.468  1.00  0.00    -0.369 N 
HETATM   12  H8  UNL     1      23.154   3.674  53.393  1.00  0.00     0.161 HD
BRANCH  11  13
HETATM   13  C7  UNL     1      21.967   2.437  52.127  1.00  0.00     0.160 C 
BRANCH  13  14
HETATM   14  C8  UNL     1      21.905   1.102  52.773  1.00  0.00    -0.041 A 
HETATM   15  C9  UNL     1      20.899   1.006  53.742  1.00  0.00     0.009 A 
HETATM   16  C10 UNL     1      20.648  -0.138  54.468  1.00  0.00     0.001 A 
HETATM   17  C11 UNL     1      21.409  -1.254  54.249  1.00  0.00     0.000 A 
HETATM   18  C12 UNL     1      22.400  -1.170  53.299  1.00  0.00     0.001 A 
HETATM   19  C13 UNL     1      22.657  -0.034  52.569  1.00  0.00     0.009 A 
ENDBRANCH  13  14
ENDBRANCH  11  13
ENDBRANCH   4  11
BRANCH   1  20
HETATM   20  C2  UNL     1      27.467  -0.070  53.475  1.00  0.00     0.083 C 
HETATM   21  C1  UNL     1      26.740  -0.823  52.654  1.00  0.00     0.013 C 
ENDBRANCH   1  20
BRANCH   1  22
HETATM   22  O1  UNL     1      27.667   2.226  54.123  1.00  0.00    -0.343 OA
HETATM   23  C4  UNL     1      29.048   2.180  54.127  1.00  0.00     0.207 C 
ENDBRANCH   1  22
TORSDOF 5
ENDMDL
MODEL 6
REMARK VINA RESULT:      -6.9      2.517      5.735
REMARK  5 active torsions:
REMARK  status: ('A' for Active; 'I' for Inactive)
REMARK    1  A    between atoms: C2_2  and  C3_3 
REMARK    2  A    between atoms: C3_3  and  O1_4 
REMARK    3  A    between atoms: C6_8  and  N2_9 
REMARK    4  A    between atoms: N2_9  and  C7_10 
REMARK    5  A    between atoms: C7_10  and  C8_11 
ROOT
HETATM    1  C3  UNL     1      24.471   3.463  50.637  1.00  0.00     0.259 C 
HETATM    2  N1  UNL     1      25.060   2.380  51.435  1.00  0.00    -0.328 N 
HETATM    3  C5  UNL     1      23.952   1.540  51.730  1.00  0.00     0.132 A 
HETATM    4  C6  UNL     1      23.817   0.512  52.672  1.00  0.00     0.156 A 
HETATM    5  N3  UNL     1      22.631  -0.111  52.716  1.00  0.00    -0.222 NA
HETATM    6  C14 UNL     1      21.613   0.222  51.904  1.00  0.00     0.238 A 
HETATM    7  N4  UNL     1      21.722   1.214  50.986  1.00  0.00    -0.216 NA
HETATM    8  C15 UNL     1      22.903   1.870  50.905  1.00  0.00     0.200 A 
HETATM    9  O2  UNL     1      23.297   2.909  50.077  1.00  0.00    -0.275 OA
HETATM   10  H7  UNL     1      26.062   2.281  51.705  1.00  0.00     0.165 HD
ENDROOT
BRANCH   4  11
HETATM   11  N2  UNL     1      24.905   0.182  53.517  1.00  0.00    -0.369 N 
HETATM   12  H8  UNL     1      25.066   0.806  54.359  1.00  0.00     0.161 HD
BRANCH  11  13
HETATM   13  C7  UNL     1      25.835  -0.918  53.370  1.00  0.00     0.160 C 
BRANCH  13  14
HETATM   14  C8  UNL     1      27.248  -0.477  53.483  1.00  0.00    -0.041 A 
HETATM   15  C9  UNL     1      28.166  -1.505  53.239  1.00  0.00     0.009 A 
HETATM   16  C10 UNL     1      29.532  -1.330  53.280  1.00  0.00     0.001 A 
HETATM   17  C11 UNL     1      30.043  -0.095  53.574  1.00  0.00     0.000 A 
HETATM   18  C12 UNL     1      29.149   0.922  53.816  1.00  0.00     0.001 A 
HETATM   19  C13 UNL     1      27.785   0.757  53.776  1.00  0.00     0.009 A 
ENDBRANCH  13  14
ENDBRANCH  11  13
ENDBRANCH   4  11
BRANCH   1  20
HETATM   20  C2  UNL     1      25.356   3.883  49.528  1.00  0.00     0.083 C 
HETATM   21  C1  UNL     1      26.521   3.268  49.709  1.00  0.00     0.013 C 
ENDBRANCH   1  20
BRANCH   1  22
HETATM   22  O1  UNL     1      24.101   4.528  51.462  1.00  0.00    -0.343 OA
HETATM   23  C4  UNL     1      23.616   5.608  50.750  1.00  0.00     0.207 C 
ENDBRANCH   1  22
TORSDOF 5
ENDMDL
MODEL 7
REMARK VINA RESULT:      -6.9      3.130      6.205
REMARK  5 active torsions:
REMARK  status: ('A' for Active; 'I' for Inactive)
REMARK    1  A    between atoms: C2_2  and  C3_3 
REMARK    2  A    between atoms: C3_3  and  O1_4 
REMARK    3  A    between atoms: C6_8  and  N2_9 
REMARK    4  A    between atoms: N2_9  and  C7_10 
REMARK    5  A    between atoms: C7_10  and  C8_11 
ROOT
HETATM    1  C3  UNL     1      25.850   5.508  49.609  1.00  0.00     0.259 C 
HETATM    2  N1  UNL     1      26.090   4.253  50.331  1.00  0.00    -0.328 N 
HETATM    3  C5  UNL     1      24.841   3.578  50.255  1.00  0.00     0.132 A 
HETATM    4  C6  UNL     1      24.358   2.479  50.976  1.00  0.00     0.156 A 
HETATM    5  N3  UNL     1      23.120   2.060  50.675  1.00  0.00    -0.222 NA
HETATM    6  C14 UNL     1      22.368   2.655  49.733  1.00  0.00     0.238 A 
HETATM    7  N4  UNL     1      22.817   3.720  49.025  1.00  0.00    -0.216 NA
HETATM    8  C15 UNL     1      24.062   4.177  49.294  1.00  0.00     0.200 A 
HETATM    9  O2  UNL     1      24.771   5.230  48.738  1.00  0.00    -0.275 OA
HETATM   10  H7  UNL     1      26.981   3.956  50.784  1.00  0.00     0.165 HD
ENDROOT
BRANCH   4  11
HETATM   11  N2  UNL     1      25.169   1.870  51.965  1.00  0.00    -0.369 N 
HETATM   12  H8  UNL     1      25.114   2.272  52.945  1.00  0.00     0.161 HD
BRANCH  11  13
HETATM   13  C7  UNL     1      26.075   0.753  51.799  1.00  0.00     0.160 C 
BRANCH  13  14
HETATM   14  C8  UNL     1      27.230   0.826  52.729  1.00  0.00    -0.041 A 
HETATM   15  C9  UNL     1      27.710   2.128  52.909  1.00  0.00     0.009 A 
HETATM   16  C10 UNL     1      28.771   2.441  53.731  1.00  0.00     0.001 A 
HETATM   17  C11 UNL     1      29.406   1.442  54.419  1.00  0.00     0.000 A 
HETATM   18  C12 UNL     1      28.942   0.159  54.249  1.00  0.00     0.001 A 
HETATM   19  C13 UNL     1      27.884  -0.162  53.432  1.00  0.00     0.009 A 
ENDBRANCH  13  14
ENDBRANCH  11  13
ENDBRANCH   4  11
BRANCH   1  20
HETATM   20  C2  UNL     1      27.013   5.909  48.787  1.00  0.00     0.083 C 
HETATM   21  C1  UNL     1      27.768   4.825  48.629  1.00  0.00     0.013 C 
ENDBRANCH   1  20
BRANCH   1  22
HETATM   22  O1  UNL     1      25.448   6.510  50.497  1.00  0.00    -0.343 OA
HETATM   23  C4  UNL     1      25.629   7.779  49.982  1.00  0.00     0.207 C 
ENDBRANCH   1  22
TORSDOF 5
ENDMDL
MODEL 8
REMARK VINA RESULT:      -6.7      3.254      6.269
REMARK  5 active torsions:
REMARK  status: ('A' for Active; 'I' for Inactive)
REMARK    1  A    between atoms: C2_2  and  C3_3 
REMARK    2  A    between atoms: C3_3  and  O1_4 
REMARK    3  A    between atoms: C6_8  and  N2_9 
REMARK    4  A    between atoms: N2_9  and  C7_10 
REMARK    5  A    between atoms: C7_10  and  C8_11 
ROOT
HETATM    1  C3  UNL     1      21.347   1.149  52.883  1.00  0.00     0.259 C 
HETATM    2  N1  UNL     1      22.760   1.495  53.086  1.00  0.00    -0.328 N 
HETATM    3  C5  UNL     1      22.877   2.783  52.496  1.00  0.00     0.132 A 
HETATM    4  C6  UNL     1      24.015   3.512  52.128  1.00  0.00     0.156 A 
HETATM    5  N3  UNL     1      23.805   4.720  51.585  1.00  0.00    -0.222 NA
HETATM    6  C14 UNL     1      22.572   5.219  51.396  1.00  0.00     0.238 A 
HETATM    7  N4  UNL     1      21.458   4.529  51.744  1.00  0.00    -0.216 NA
HETATM    8  C15 UNL     1      21.622   3.305  52.297  1.00  0.00     0.200 A 
HETATM    9  O2  UNL     1      20.682   2.389  52.743  1.00  0.00    -0.275 OA
HETATM   10  H7  UNL     1      23.482   0.910  53.557  1.00  0.00     0.165 HD
ENDROOT
BRANCH   4  11
HETATM   11  N2  UNL     1      25.304   2.963  52.336  1.00  0.00    -0.369 N 
HETATM   12  H8  UNL     1      25.887   3.387  53.115  1.00  0.00     0.161 HD
BRANCH  11  13
HETATM   13  C7  UNL     1      25.931   1.881  51.608  1.00  0.00     0.160 C 
BRANCH  13  14
HETATM   14  C8  UNL     1      26.998   1.217  52.399  1.00  0.00    -0.041 A 
HETATM   15  C9  UNL     1      26.934  -0.180  52.346  1.00  0.00     0.009 A 
HETATM   16  C10 UNL     1      27.824  -1.008  52.995  1.00  0.00     0.001 A 
HETATM   17  C11 UNL     1      28.834  -0.458  53.738  1.00  0.00     0.000 A 
HETATM   18  C12 UNL     1      28.905   0.914  53.797  1.00  0.00     0.001 A 
HETATM   19  C13 UNL     1      28.023   1.747  53.152  1.00  0.00     0.009 A 
ENDBRANCH  13  14
ENDBRANCH  11  13
ENDBRANCH   4  11
BRANCH   1  20
HETATM   20  C2  UNL     1      20.772   0.449  54.053  1.00  0.00     0.083 C 
HETATM   21  C1  UNL     1      21.720  -0.355  54.528  1.00  0.00     0.013 C 
ENDBRANCH   1  20
BRANCH   1  22
HETATM   22  O1  UNL     1      21.189   0.431  51.696  1.00  0.00    -0.343 OA
HETATM   23  C4  UNL     1      19.871   0.368  51.285  1.00  0.00     0.207 C 
ENDBRANCH   1  22
TORSDOF 5
ENDMDL
MODEL 9
REMARK VINA RESULT:      -6.7      3.948      6.798
REMARK  5 active torsions:
REMARK  status: ('A' for Active; 'I' for Inactive)
REMARK    1  A    between atoms: C2_2  and  C3_3 
REMARK    2  A    between atoms: C3_3  and  O1_4 
REMARK    3  A    between atoms: C6_8  and  N2_9 
REMARK    4  A    between atoms: N2_9  and  C7_10 
REMARK    5  A    between atoms: C7_10  and  C8_11 
ROOT
HETATM    1  C3  UNL     1      26.171   6.565  49.346  1.00  0.00     0.259 C 
HETATM    2  N1  UNL     1      25.818   5.552  50.348  1.00  0.00    -0.328 N 
HETATM    3  C5  UNL     1      24.410   5.691  50.483  1.00  0.00     0.132 A 
HETATM    4  C6  UNL     1      23.541   5.209  51.470  1.00  0.00     0.156 A 
HETATM    5  N3  UNL     1      22.242   5.506  51.324  1.00  0.00    -0.222 NA
HETATM    6  C14 UNL     1      21.781   6.229  50.289  1.00  0.00     0.238 A 
HETATM    7  N4  UNL     1      22.606   6.706  49.324  1.00  0.00    -0.216 NA
HETATM    8  C15 UNL     1      23.926   6.429  49.430  1.00  0.00     0.200 A 
HETATM    9  O2  UNL     1      24.985   6.779  48.607  1.00  0.00    -0.275 OA
HETATM   10  H7  UNL     1      26.473   4.900  50.831  1.00  0.00     0.165 HD
ENDROOT
BRANCH   4  11
HETATM   11  N2  UNL     1      24.052   4.450  52.552  1.00  0.00    -0.369 N 
HETATM   12  H8  UNL     1      24.766   4.924  53.176  1.00  0.00     0.161 HD
BRANCH  11  13
HETATM   13  C7  UNL     1      23.713   3.090  52.914  1.00  0.00     0.160 C 
BRANCH  13  14
HETATM   14  C8  UNL     1      24.794   2.132  52.571  1.00  0.00    -0.041 A 
HETATM   15  C9  UNL     1      24.604   0.864  53.133  1.00  0.00     0.009 A 
HETATM   16  C10 UNL     1      25.474  -0.188  52.946  1.00  0.00     0.001 A 
HETATM   17  C11 UNL     1      26.590  -0.010  52.175  1.00  0.00     0.000 A 
HETATM   18  C12 UNL     1      26.785   1.232  51.617  1.00  0.00     0.001 A 
HETATM   19  C13 UNL     1      25.923   2.288  51.797  1.00  0.00     0.009 A 
ENDBRANCH  13  14
ENDBRANCH  11  13
ENDBRANCH   4  11
BRANCH   1  20
HETATM   20  C2  UNL     1      27.214   6.084  48.412  1.00  0.00     0.083 C 
HETATM   21  C1  UNL     1      27.442   4.808  48.710  1.00  0.00     0.013 C 
ENDBRANCH   1  20
BRANCH   1  22
HETATM   22  O1  UNL     1      26.521   7.765  49.969  1.00  0.00    -0.343 OA
HETATM   23  C4  UNL     1      27.406   8.516  49.219  1.00  0.00     0.207 C 
ENDBRANCH   1  22
TORSDOF 5
ENDMDL
