MODEL 1
REMARK VINA RESULT:      -9.2      0.000      0.000
REMARK  3 active torsions:
REMARK  status: ('A' for Active; 'I' for Inactive)
REMARK    1  A    between atoms: O1_1  and  C1_2 
REMARK    2  A    between atoms: C4_5  and  C5_6 
REMARK    3  A    between atoms: N1_8  and  C7_9 
ROOT
HETATM    1  C5  UNL     1      26.011   1.175  52.269  1.00  0.00     0.076 C 
HETATM    2  C6  UNL     1      26.224   1.936  51.219  1.00  0.00     0.130 C 
HETATM    3  N1  UNL     1      25.478   3.070  50.845  1.00  0.00    -0.314 N 
HETATM    4  C13 UNL     1      24.115   3.136  51.256  1.00  0.00     0.215 C 
HETATM    5  N2  UNL     1      23.597   2.591  50.206  1.00  0.00    -0.237 NA
HETATM    6  C14 UNL     1      22.157   2.481  50.260  1.00  0.00     0.235 C 
HETATM    7  N3  UNL     1      21.809   1.716  51.266  1.00  0.00    -0.233 NA
HETATM    8  C15 UNL     1      22.824   1.137  52.108  1.00  0.00     0.256 C 
HETATM    9  N4  UNL     1      23.804   0.747  52.846  1.00  0.00    -0.168 NA
HETATM   10  N5  UNL     1      24.931   1.473  53.160  1.00  0.00    -0.275 N 
HETATM   11  H12 UNL     1      25.485   2.160  53.714  1.00  0.00     0.189 HD
ENDROOT
BRANCH   1  12
HETATM   12  C4  UNL     1      26.829   0.026  52.579  1.00  0.00    -0.006 A 
HETATM   13  C3  UNL     1      28.051   0.083  53.209  1.00  0.00     0.016 A 
HETATM   14  C2  UNL     1      28.824  -1.022  53.500  1.00  0.00     0.037 A 
HETATM   15  C1  UNL     1      28.386  -2.267  53.160  1.00  0.00     0.065 A 
HETATM   16  C17 UNL     1      27.173  -2.378  52.530  1.00  0.00     0.037 A 
HETATM   17  C16 UNL     1      26.447  -1.262  52.263  1.00  0.00     0.016 A 
BRANCH  15  18
HETATM   18  O1  UNL     1      29.101  -3.426  53.416  1.00  0.00    -0.361 OA
HETATM   19  H1  UNL     1      29.984  -3.602  52.942  1.00  0.00     0.217 HD
ENDBRANCH  15  18
ENDBRANCH   1  12
BRANCH   3  20
HETATM   20  C7  UNL     1      25.980   4.140  50.097  1.00  0.00     0.041 A 
HETATM   21  C8  UNL     1      27.086   4.021  49.249  1.00  0.00     0.030 A 
HETATM   22  C9  UNL     1      27.583   5.090  48.507  1.00  0.00     0.004 A 
HETATM   23  C10 UNL     1      26.999   6.323  48.577  1.00  0.00     0.024 A 
HETATM   24  C11 UNL     1      25.910   6.486  49.397  1.00  0.00     0.036 A 
HETATM   25 CL1  UNL     1      25.133   8.047  49.515  1.00  0.00    -0.084 Cl
HETATM   26  C12 UNL     1      25.451   5.389  50.119  1.00  0.00     0.053 A 
ENDBRANCH   3  20
TORSDOF 3
ENDMDL
MODEL 2
REMARK VINA RESULT:      -9.1      3.710      6.255
REMARK  3 active torsions:
REMARK  status: ('A' for Active; 'I' for Inactive)
REMARK    1  A    between atoms: O1_1  and  C1_2 
REMARK    2  A    between atoms: C4_5  and  C5_6 
REMARK    3  A    between atoms: N1_8  and  C7_9 
ROOT
HETATM    1  C5  UNL     1      23.726   1.292  52.984  1.00  0.00     0.076 C 
HETATM    2  C6  UNL     1      24.865   0.657  52.828  1.00  0.00     0.130 C 
HETATM    3  N1  UNL     1      26.126   1.246  52.620  1.00  0.00    -0.314 N 
HETATM    4  C13 UNL     1      26.169   2.530  52.004  1.00  0.00     0.215 C 
HETATM    5  N2  UNL     1      26.283   2.127  50.782  1.00  0.00    -0.237 NA
HETATM    6  C14 UNL     1      26.358   3.202  49.820  1.00  0.00     0.235 C 
HETATM    7  N3  UNL     1      25.255   3.908  49.859  1.00  0.00    -0.233 NA
HETATM    8  C15 UNL     1      24.205   3.546  50.776  1.00  0.00     0.256 C 
HETATM    9  N4  UNL     1      23.375   3.188  51.693  1.00  0.00    -0.168 NA
HETATM   10  N5  UNL     1      23.693   2.723  52.949  1.00  0.00    -0.275 N 
HETATM   11  H12 UNL     1      23.939   2.823  53.957  1.00  0.00     0.189 HD
ENDROOT
BRANCH   1  12
HETATM   12  C4  UNL     1      22.472   0.606  53.194  1.00  0.00    -0.006 A 
HETATM   13  C3  UNL     1      21.291   0.924  52.563  1.00  0.00     0.016 A 
HETATM   14  C2  UNL     1      20.099   0.262  52.772  1.00  0.00     0.037 A 
HETATM   15  C1  UNL     1      20.044  -0.780  53.650  1.00  0.00     0.065 A 
HETATM   16  C17 UNL     1      21.196  -1.137  54.304  1.00  0.00     0.037 A 
HETATM   17  C16 UNL     1      22.345  -0.456  54.067  1.00  0.00     0.016 A 
BRANCH  15  18
HETATM   18  O1  UNL     1      18.889  -1.497  53.916  1.00  0.00    -0.361 OA
HETATM   19  H1  UNL     1      18.025  -1.282  53.423  1.00  0.00     0.217 HD
ENDBRANCH  15  18
ENDBRANCH   1  12
BRANCH   3  20
HETATM   20  C7  UNL     1      27.345   0.660  52.976  1.00  0.00     0.041 A 
HETATM   21  C8  UNL     1      28.446   1.402  53.417  1.00  0.00     0.030 A 
HETATM   22  C9  UNL     1      29.657   0.813  53.770  1.00  0.00     0.004 A 
HETATM   23  C10 UNL     1      29.825  -0.541  53.700  1.00  0.00     0.024 A 
HETATM   24  C11 UNL     1      28.770  -1.310  53.273  1.00  0.00     0.036 A 
HETATM   25 CL1  UNL     1      28.943  -3.046  53.169  1.00  0.00    -0.084 Cl
HETATM   26  C12 UNL     1      27.581  -0.676  52.930  1.00  0.00     0.053 A 
ENDBRANCH   3  20
TORSDOF 3
ENDMDL
MODEL 3
REMARK VINA RESULT:      -9.0      1.149      1.480
REMARK  3 active torsions:
REMARK  status: ('A' for Active; 'I' for Inactive)
REMARK    1  A    between atoms: O1_1  and  C1_2 
REMARK    2  A    between atoms: C4_5  and  C5_6 
REMARK    3  A    between atoms: N1_8  and  C7_9 
ROOT
HETATM    1  C5  UNL     1      25.941   1.306  52.100  1.00  0.00     0.076 C 
HETATM    2  C6  UNL     1      26.197   2.050  51.049  1.00  0.00     0.130 C 
HETATM    3  N1  UNL     1      25.472   3.183  50.633  1.00  0.00    -0.314 N 
HETATM    4  C13 UNL     1      24.096   3.263  50.992  1.00  0.00     0.215 C 
HETATM    5  N2  UNL     1      23.612   2.706  49.932  1.00  0.00    -0.237 NA
HETATM    6  C14 UNL     1      22.171   2.605  49.935  1.00  0.00     0.235 C 
HETATM    7  N3  UNL     1      21.782   1.856  50.937  1.00  0.00    -0.233 NA
HETATM    8  C15 UNL     1      22.762   1.283  51.824  1.00  0.00     0.256 C 
HETATM    9  N4  UNL     1      23.713   0.897  52.602  1.00  0.00    -0.168 NA
HETATM   10  N5  UNL     1      24.831   1.621  52.948  1.00  0.00    -0.275 N 
HETATM   11  H12 UNL     1      25.369   2.313  53.512  1.00  0.00     0.189 HD
ENDROOT
BRANCH   1  12
HETATM   12  C4  UNL     1      26.740   0.156  52.456  1.00  0.00    -0.006 A 
HETATM   13  C3  UNL     1      27.947   0.217  53.114  1.00  0.00     0.016 A 
HETATM   14  C2  UNL     1      28.703  -0.889  53.448  1.00  0.00     0.037 A 
HETATM   15  C1  UNL     1      28.261  -2.138  53.125  1.00  0.00     0.065 A 
HETATM   16  C17 UNL     1      27.062  -2.251  52.469  1.00  0.00     0.037 A 
HETATM   17  C16 UNL     1      26.354  -1.135  52.160  1.00  0.00     0.016 A 
BRANCH  15  18
HETATM   18  O1  UNL     1      28.958  -3.297  53.424  1.00  0.00    -0.361 OA
HETATM   19  H1  UNL     1      29.153  -3.546  54.392  1.00  0.00     0.217 HD
ENDBRANCH  15  18
ENDBRANCH   1  12
BRANCH   3  20
HETATM   20  C7  UNL     1      26.008   4.240  49.889  1.00  0.00     0.041 A 
HETATM   21  C8  UNL     1      25.315   5.432  49.654  1.00  0.00     0.030 A 
HETATM   22  C9  UNL     1      25.854   6.481  48.913  1.00  0.00     0.004 A 
HETATM   23  C10 UNL     1      27.106   6.389  48.375  1.00  0.00     0.024 A 
HETATM   24  C11 UNL     1      27.823   5.236  48.581  1.00  0.00     0.036 A 
HETATM   25 CL1  UNL     1      29.429   5.077  47.909  1.00  0.00    -0.084 Cl
HETATM   26  C12 UNL     1      27.243   4.215  49.327  1.00  0.00     0.053 A 
ENDBRANCH   3  20
TORSDOF 3
ENDMDL
MODEL 4
REMARK VINA RESULT:      -8.9      2.885      4.619
REMARK  3 active torsions:
REMARK  status: ('A' for Active; 'I' for Inactive)
REMARK    1  A    between atoms: O1_1  and  C1_2 
REMARK    2  A    between atoms: C4_5  and  C5_6 
REMARK    3  A    between atoms: N1_8  and  C7_9 
ROOT
HETATM    1  C5  UNL     1      24.521   0.357  52.630  1.00  0.00     0.076 C 
HETATM    2  C6  UNL     1      24.657   1.596  52.215  1.00  0.00     0.130 C 
HETATM    3  N1  UNL     1      25.844   2.194  51.752  1.00  0.00    -0.314 N 
HETATM    4  C13 UNL     1      27.082   1.677  52.231  1.00  0.00     0.215 C 
HETATM    5  N2  UNL     1      27.214   2.468  53.243  1.00  0.00    -0.237 NA
HETATM    6  C14 UNL     1      28.415   2.232  54.011  1.00  0.00     0.235 C 
HETATM    7  N3  UNL     1      28.392   1.020  54.508  1.00  0.00    -0.233 NA
HETATM    8  C15 UNL     1      27.267   0.160  54.245  1.00  0.00     0.256 C 
HETATM    9  N4  UNL     1      26.259  -0.549  53.873  1.00  0.00    -0.168 NA
HETATM   10  N5  UNL     1      25.651  -0.524  52.639  1.00  0.00    -0.275 N 
HETATM   11  H12 UNL     1      25.533  -0.797  51.640  1.00  0.00     0.189 HD
ENDROOT
BRANCH   1  12
HETATM   12  C4  UNL     1      23.261  -0.179  53.091  1.00  0.00    -0.006 A 
HETATM   13  C3  UNL     1      23.102  -0.936  54.228  1.00  0.00     0.016 A 
HETATM   14  C2  UNL     1      21.893  -1.443  54.658  1.00  0.00     0.037 A 
HETATM   15  C1  UNL     1      20.760  -1.200  53.940  1.00  0.00     0.065 A 
HETATM   16  C17 UNL     1      20.865  -0.449  52.798  1.00  0.00     0.037 A 
HETATM   17  C16 UNL     1      22.076   0.028  52.413  1.00  0.00     0.016 A 
BRANCH  15  18
HETATM   18  O1  UNL     1      19.509  -1.672  54.303  1.00  0.00    -0.361 OA
HETATM   19  H1  UNL     1      18.710  -1.042  54.337  1.00  0.00     0.217 HD
ENDBRANCH  15  18
ENDBRANCH   1  12
BRANCH   3  20
HETATM   20  C7  UNL     1      25.895   3.264  50.852  1.00  0.00     0.041 A 
HETATM   21  C8  UNL     1      26.887   3.389  49.874  1.00  0.00     0.030 A 
HETATM   22  C9  UNL     1      26.933   4.456  48.981  1.00  0.00     0.004 A 
HETATM   23  C10 UNL     1      25.992   5.445  49.022  1.00  0.00     0.024 A 
HETATM   24  C11 UNL     1      24.998   5.364  49.966  1.00  0.00     0.036 A 
HETATM   25 CL1  UNL     1      23.775   6.609  50.053  1.00  0.00    -0.084 Cl
HETATM   26  C12 UNL     1      24.995   4.280  50.837  1.00  0.00     0.053 A 
ENDBRANCH   3  20
TORSDOF 3
ENDMDL
MODEL 5
REMARK VINA RESULT:      -8.6      4.197      6.949
REMARK  3 active torsions:
REMARK  status: ('A' for Active; 'I' for Inactive)
REMARK    1  A    between atoms: O1_1  and  C1_2 
REMARK    2  A    between atoms: C4_5  and  C5_6 
REMARK    3  A    between atoms: N1_8  and  C7_9 
ROOT
HETATM    1  C5  UNL     1      23.051   1.839  52.292  1.00  0.00     0.076 C 
HETATM    2  C6  UNL     1      24.205   1.540  52.845  1.00  0.00     0.130 C 
HETATM    3  N1  UNL     1      24.672   0.248  53.152  1.00  0.00    -0.314 N 
HETATM    4  C13 UNL     1      23.706  -0.768  53.405  1.00  0.00     0.215 C 
HETATM    5  N2  UNL     1      23.632  -0.615  54.685  1.00  0.00    -0.237 NA
HETATM    6  C14 UNL     1      22.703  -1.518  55.325  1.00  0.00     0.235 C 
HETATM    7  N3  UNL     1      21.493  -1.302  54.872  1.00  0.00    -0.233 NA
HETATM    8  C15 UNL     1      21.271  -0.280  53.882  1.00  0.00     0.256 C 
HETATM    9  N4  UNL     1      21.203   0.593  52.938  1.00  0.00    -0.168 NA
HETATM   10  N5  UNL     1      22.133   0.797  51.944  1.00  0.00    -0.275 N 
HETATM   11  H12 UNL     1      22.580   0.617  51.020  1.00  0.00     0.189 HD
ENDROOT
BRANCH   1  12
HETATM   12  C4  UNL     1      22.650   3.198  52.011  1.00  0.00    -0.006 A 
HETATM   13  C3  UNL     1      21.432   3.559  51.481  1.00  0.00     0.016 A 
HETATM   14  C2  UNL     1      21.059   4.861  51.216  1.00  0.00     0.037 A 
HETATM   15  C1  UNL     1      21.922   5.883  51.481  1.00  0.00     0.065 A 
HETATM   16  C17 UNL     1      23.149   5.575  52.011  1.00  0.00     0.037 A 
HETATM   17  C16 UNL     1      23.472   4.279  52.254  1.00  0.00     0.016 A 
BRANCH  15  18
HETATM   18  O1  UNL     1      21.625   7.216  51.244  1.00  0.00    -0.361 OA
HETATM   19  H1  UNL     1      21.830   7.637  50.341  1.00  0.00     0.217 HD
ENDBRANCH  15  18
ENDBRANCH   1  12
BRANCH   3  20
HETATM   20  C7  UNL     1      26.022  -0.111  53.226  1.00  0.00     0.041 A 
HETATM   21  C8  UNL     1      26.508  -1.341  52.770  1.00  0.00     0.030 A 
HETATM   22  C9  UNL     1      27.853  -1.693  52.846  1.00  0.00     0.004 A 
HETATM   23  C10 UNL     1      28.773  -0.836  53.381  1.00  0.00     0.024 A 
HETATM   24  C11 UNL     1      28.340   0.383  53.842  1.00  0.00     0.036 A 
HETATM   25 CL1  UNL     1      29.485   1.509  54.533  1.00  0.00    -0.084 Cl
HETATM   26  C12 UNL     1      26.987   0.690  53.745  1.00  0.00     0.053 A 
ENDBRANCH   3  20
TORSDOF 3
ENDMDL
MODEL 6
REMARK VINA RESULT:      -8.6      3.742      7.096
REMARK  3 active torsions:
REMARK  status: ('A' for Active; 'I' for Inactive)
REMARK    1  A    between atoms: O1_1  and  C1_2 
REMARK    2  A    between atoms: C4_5  and  C5_6 
REMARK    3  A    between atoms: N1_8  and  C7_9 
ROOT
HETATM    1  C5  UNL     1      25.502   2.593  51.907  1.00  0.00     0.076 C 
HETATM    2  C6  UNL     1      24.532   1.706  51.921  1.00  0.00     0.130 C 
HETATM    3  N1  UNL     1      24.360   0.673  52.862  1.00  0.00    -0.314 N 
HETATM    4  C13 UNL     1      25.519   0.173  53.521  1.00  0.00     0.215 C 
HETATM    5  N2  UNL     1      25.785  -0.782  52.693  1.00  0.00    -0.237 NA
HETATM    6  C14 UNL     1      26.955  -1.551  53.049  1.00  0.00     0.235 C 
HETATM    7  N3  UNL     1      28.011  -0.776  53.048  1.00  0.00    -0.233 NA
HETATM    8  C15 UNL     1      27.874   0.619  52.718  1.00  0.00     0.256 C 
HETATM    9  N4  UNL     1      27.624   1.863  52.497  1.00  0.00    -0.168 NA
HETATM   10  N5  UNL     1      26.515   2.561  52.918  1.00  0.00    -0.275 N 
HETATM   11  H12 UNL     1      25.953   3.119  53.597  1.00  0.00     0.189 HD
ENDROOT
BRANCH   1  12
HETATM   12  C4  UNL     1      25.602   3.624  50.900  1.00  0.00    -0.006 A 
HETATM   13  C3  UNL     1      26.594   3.693  49.949  1.00  0.00     0.016 A 
HETATM   14  C2  UNL     1      26.681   4.683  48.992  1.00  0.00     0.037 A 
HETATM   15  C1  UNL     1      25.745   5.674  48.951  1.00  0.00     0.065 A 
HETATM   16  C17 UNL     1      24.734   5.649  49.878  1.00  0.00     0.037 A 
HETATM   17  C16 UNL     1      24.690   4.655  50.801  1.00  0.00     0.016 A 
BRANCH  15  18
HETATM   18  O1  UNL     1      25.759   6.703  48.023  1.00  0.00    -0.361 OA
HETATM   19  H1  UNL     1      25.852   7.669  48.327  1.00  0.00     0.217 HD
ENDBRANCH  15  18
ENDBRANCH   1  12
BRANCH   3  20
HETATM   20  C7  UNL     1      23.128   0.102  53.197  1.00  0.00     0.041 A 
HETATM   21  C8  UNL     1      22.954  -0.737  54.302  1.00  0.00     0.030 A 
HETATM   22  C9  UNL     1      21.726  -1.304  54.631  1.00  0.00     0.004 A 
HETATM   23  C10 UNL     1      20.616  -1.059  53.873  1.00  0.00     0.024 A 
HETATM   24  C11 UNL     1      20.739  -0.240  52.777  1.00  0.00     0.036 A 
HETATM   25 CL1  UNL     1      19.344   0.098  51.781  1.00  0.00    -0.084 Cl
HETATM   26  C12 UNL     1      21.987   0.302  52.489  1.00  0.00     0.053 A 
ENDBRANCH   3  20
TORSDOF 3
ENDMDL
MODEL 7
REMARK VINA RESULT:      -8.4      3.283      5.771
REMARK  3 active torsions:
REMARK  status: ('A' for Active; 'I' for Inactive)
REMARK    1  A    between atoms: O1_1  and  C1_2 
REMARK    2  A    between atoms: C4_5  and  C5_6 
REMARK    3  A    between atoms: N1_8  and  C7_9 
ROOT
HETATM    1  C5  UNL     1      24.359   1.151  52.158  1.00  0.00     0.076 C 
HETATM    2  C6  UNL     1      23.157   0.872  52.609  1.00  0.00     0.130 C 
HETATM    3  N1  UNL     1      21.937   1.300  52.052  1.00  0.00    -0.314 N 
HETATM    4  C13 UNL     1      21.934   2.514  51.307  1.00  0.00     0.215 C 
HETATM    5  N2  UNL     1      21.635   3.308  52.280  1.00  0.00    -0.237 NA
HETATM    6  C14 UNL     1      21.539   4.696  51.889  1.00  0.00     0.235 C 
HETATM    7  N3  UNL     1      22.697   5.109  51.437  1.00  0.00    -0.233 NA
HETATM    8  C15 UNL     1      23.815   4.201  51.395  1.00  0.00     0.256 C 
HETATM    9  N4  UNL     1      24.716   3.285  51.320  1.00  0.00    -0.168 NA
HETATM   10  N5  UNL     1      24.514   1.964  50.990  1.00  0.00    -0.275 N 
HETATM   11  H12 UNL     1      24.403   1.163  50.332  1.00  0.00     0.189 HD
ENDROOT
BRANCH   1  12
HETATM   12  C4  UNL     1      25.562   0.668  52.794  1.00  0.00    -0.006 A 
HETATM   13  C3  UNL     1      26.020   1.089  54.022  1.00  0.00     0.016 A 
HETATM   14  C2  UNL     1      27.172   0.621  54.621  1.00  0.00     0.037 A 
HETATM   15  C1  UNL     1      27.934  -0.318  53.989  1.00  0.00     0.065 A 
HETATM   16  C17 UNL     1      27.519  -0.770  52.762  1.00  0.00     0.037 A 
HETATM   17  C16 UNL     1      26.379  -0.280  52.212  1.00  0.00     0.016 A 
BRANCH  15  18
HETATM   18  O1  UNL     1      29.102  -0.838  54.521  1.00  0.00    -0.361 OA
HETATM   19  H1  UNL     1      29.973  -0.315  54.463  1.00  0.00     0.217 HD
ENDBRANCH  15  18
ENDBRANCH   1  12
BRANCH   3  20
HETATM   20  C7  UNL     1      20.723   0.615  52.177  1.00  0.00     0.041 A 
HETATM   21  C8  UNL     1      20.387  -0.135  53.309  1.00  0.00     0.030 A 
HETATM   22  C9  UNL     1      19.178  -0.814  53.428  1.00  0.00     0.004 A 
HETATM   23  C10 UNL     1      18.250  -0.776  52.426  1.00  0.00     0.024 A 
HETATM   24  C11 UNL     1      18.538  -0.051  51.296  1.00  0.00     0.036 A 
HETATM   25 CL1  UNL     1      17.378   0.023  49.990  1.00  0.00    -0.084 Cl
HETATM   26  C12 UNL     1      19.759   0.610  51.222  1.00  0.00     0.053 A 
ENDBRANCH   3  20
TORSDOF 3
ENDMDL
MODEL 8
REMARK VINA RESULT:      -8.3      3.785      6.842
REMARK  3 active torsions:
REMARK  status: ('A' for Active; 'I' for Inactive)
REMARK    1  A    between atoms: O1_1  and  C1_2 
REMARK    2  A    between atoms: C4_5  and  C5_6 
REMARK    3  A    between atoms: N1_8  and  C7_9 
ROOT
HETATM    1  C5  UNL     1      25.952   3.775  49.872  1.00  0.00     0.076 C 
HETATM    2  C6  UNL     1      26.518   3.250  50.935  1.00  0.00     0.130 C 
HETATM    3  N1  UNL     1      26.125   2.069  51.592  1.00  0.00    -0.314 N 
HETATM    4  C13 UNL     1      24.760   1.674  51.494  1.00  0.00     0.215 C 
HETATM    5  N2  UNL     1      24.336   2.270  52.557  1.00  0.00    -0.237 NA
HETATM    6  C14 UNL     1      22.923   2.089  52.801  1.00  0.00     0.235 C 
HETATM    7  N3  UNL     1      22.235   2.600  51.809  1.00  0.00    -0.233 NA
HETATM    8  C15 UNL     1      22.922   3.221  50.706  1.00  0.00     0.256 C 
HETATM    9  N4  UNL     1      23.638   3.669  49.735  1.00  0.00    -0.168 NA
HETATM   10  N5  UNL     1      24.819   3.134  49.274  1.00  0.00    -0.275 N 
HETATM   11  H12 UNL     1      25.401   2.487  48.700  1.00  0.00     0.189 HD
ENDROOT
BRANCH   1  12
HETATM   12  C4  UNL     1      26.422   4.996  49.259  1.00  0.00    -0.006 A 
HETATM   13  C3  UNL     1      27.621   5.126  48.597  1.00  0.00     0.016 A 
HETATM   14  C2  UNL     1      28.060   6.298  48.015  1.00  0.00     0.037 A 
HETATM   15  C1  UNL     1      27.287   7.420  48.078  1.00  0.00     0.065 A 
HETATM   16  C17 UNL     1      26.082   7.341  48.727  1.00  0.00     0.037 A 
HETATM   17  C16 UNL     1      25.692   6.167  49.285  1.00  0.00     0.016 A 
BRANCH  15  18
HETATM   18  O1  UNL     1      27.655   8.634  47.520  1.00  0.00    -0.361 OA
HETATM   19  H1  UNL     1      27.857   8.704  46.526  1.00  0.00     0.217 HD
ENDBRANCH  15  18
ENDBRANCH   1  12
BRANCH   3  20
HETATM   20  C7  UNL     1      26.983   1.252  52.336  1.00  0.00     0.041 A 
HETATM   21  C8  UNL     1      27.921   1.759  53.241  1.00  0.00     0.030 A 
HETATM   22  C9  UNL     1      28.772   0.941  53.979  1.00  0.00     0.004 A 
HETATM   23  C10 UNL     1      28.726  -0.418  53.849  1.00  0.00     0.024 A 
HETATM   24  C11 UNL     1      27.819  -0.961  52.972  1.00  0.00     0.036 A 
HETATM   25 CL1  UNL     1      27.727  -2.695  52.776  1.00  0.00    -0.084 Cl
HETATM   26  C12 UNL     1      26.991  -0.103  52.256  1.00  0.00     0.053 A 
ENDBRANCH   3  20
TORSDOF 3
ENDMDL
MODEL 9
REMARK VINA RESULT:      -8.3      3.764      6.781
REMARK  3 active torsions:
REMARK  status: ('A' for Active; 'I' for Inactive)
REMARK    1  A    between atoms: O1_1  and  C1_2 
REMARK    2  A    between atoms: C4_5  and  C5_6 
REMARK    3  A    between atoms: N1_8  and  C7_9 
ROOT
HETATM    1  C5  UNL     1      25.571   4.582  49.439  1.00  0.00     0.076 C 
HETATM    2  C6  UNL     1      25.782   3.768  50.449  1.00  0.00     0.130 C 
HETATM    3  N1  UNL     1      24.815   2.974  51.096  1.00  0.00    -0.314 N 
HETATM    4  C13 UNL     1      23.463   3.421  51.073  1.00  0.00     0.215 C 
HETATM    5  N2  UNL     1      23.488   4.089  52.178  1.00  0.00    -0.237 NA
HETATM    6  C14 UNL     1      22.229   4.718  52.505  1.00  0.00     0.235 C 
HETATM    7  N3  UNL     1      21.913   5.584  51.574  1.00  0.00    -0.233 NA
HETATM    8  C15 UNL     1      22.789   5.776  50.448  1.00  0.00     0.256 C 
HETATM    9  N4  UNL     1      23.597   5.801  49.446  1.00  0.00    -0.168 NA
HETATM   10  N5  UNL     1      24.254   4.723  48.897  1.00  0.00    -0.275 N 
HETATM   11  H12 UNL     1      24.348   3.896  48.269  1.00  0.00     0.189 HD
ENDROOT
BRANCH   1  12
HETATM   12  C4  UNL     1      26.625   5.361  48.832  1.00  0.00    -0.006 A 
HETATM   13  C3  UNL     1      26.474   6.644  48.358  1.00  0.00     0.016 A 
HETATM   14  C2  UNL     1      27.488   7.380  47.780  1.00  0.00     0.037 A 
HETATM   15  C1  UNL     1      28.733   6.839  47.652  1.00  0.00     0.065 A 
HETATM   16  C17 UNL     1      28.935   5.562  48.110  1.00  0.00     0.037 A 
HETATM   17  C16 UNL     1      27.907   4.876  48.671  1.00  0.00     0.016 A 
BRANCH  15  18
HETATM   18  O1  UNL     1      29.804   7.510  47.084  1.00  0.00    -0.361 OA
HETATM   19  H1  UNL     1      30.758   7.278  47.351  1.00  0.00     0.217 HD
ENDBRANCH  15  18
ENDBRANCH   1  12
BRANCH   3  20
HETATM   20  C7  UNL     1      25.089   1.774  51.761  1.00  0.00     0.041 A 
HETATM   21  C8  UNL     1      26.340   1.150  51.720  1.00  0.00     0.030 A 
HETATM   22  C9  UNL     1      26.607  -0.044  52.383  1.00  0.00     0.004 A 
HETATM   23  C10 UNL     1      25.640  -0.669  53.119  1.00  0.00     0.024 A 
HETATM   24  C11 UNL     1      24.396  -0.092  53.188  1.00  0.00     0.036 A 
HETATM   25 CL1  UNL     1      23.130  -0.859  54.118  1.00  0.00    -0.084 Cl
HETATM   26  C12 UNL     1      24.177   1.101  52.507  1.00  0.00     0.053 A 
ENDBRANCH   3  20
TORSDOF 3
ENDMDL
