MODEL 1
REMARK VINA RESULT:      -7.8      0.000      0.000
REMARK  4 active torsions:
REMARK  status: ('A' for Active; 'I' for Inactive)
REMARK    1  A    between atoms: O1_2  and  C2_3 
REMARK    2  A    between atoms: C7_10  and  C8_11 
REMARK    3  A    between atoms: C8_11  and  N3_12 
REMARK    4  A    between atoms: C15_19  and  O2_20 
ROOT
HETATM    1  C2  UNL     1      22.703   0.218  53.456  1.00  0.00     0.066 A 
HETATM    2  C3  UNL     1      23.566   0.998  52.662  1.00  0.00     0.001 A 
HETATM    3  C4  UNL     1      24.532   1.747  51.896  1.00  0.00     0.025 A 
HETATM    4  C5  UNL     1      24.305   2.429  50.695  1.00  0.00     0.055 A 
HETATM    5  N1  UNL     1      25.366   3.071  50.139  1.00  0.00    -0.245 NA
HETATM    6  C6  UNL     1      26.567   3.017  50.771  1.00  0.00     0.233 A 
HETATM    7  N2  UNL     1      26.790   2.357  51.935  1.00  0.00    -0.244 NA
HETATM    8  C7  UNL     1      25.755   1.695  52.532  1.00  0.00     0.066 A 
HETATM    9  C14 UNL     1      23.089   2.600  49.869  1.00  0.00     0.124 C 
HETATM   10  C15 UNL     1      22.175   1.456  50.107  1.00  0.00     0.046 C 
HETATM   11  C16 UNL     1      21.712   0.809  51.155  1.00  0.00     0.022 C 
HETATM   12  C17 UNL     1      22.078   1.156  52.564  1.00  0.00     0.104 A 
ENDROOT
BRANCH   8  13
HETATM   13  C8  UNL     1      25.902   0.944  53.810  1.00  0.00     0.182 C 
BRANCH  13  14
HETATM   14  N3  UNL     1      26.968  -0.034  53.590  1.00  0.00    -0.381 N 
HETATM   15  C9  UNL     1      26.535  -1.191  52.899  1.00  0.00     0.086 A 
HETATM   16  C10 UNL     1      27.400  -2.154  52.636  1.00  0.00     0.017 A 
HETATM   17  C11 UNL     1      28.800  -2.081  53.030  1.00  0.00    -0.001 A 
HETATM   18  C12 UNL     1      29.144  -0.976  53.672  1.00  0.00    -0.007 A 
HETATM   19  C13 UNL     1      28.316   0.198  54.050  1.00  0.00     0.149 A 
ENDBRANCH  13  14
ENDBRANCH   8  13
BRANCH   1  20
HETATM   20  O1  UNL     1      22.801  -0.784  54.428  1.00  0.00    -0.359 OA
HETATM   21  C1  UNL     1      21.730  -1.698  54.649  1.00  0.00     0.209 C 
ENDBRANCH   1  20
BRANCH  10  22
HETATM   22  O2  UNL     1      21.649   0.894  48.931  1.00  0.00    -0.365 OA
HETATM   23  H15 UNL     1      22.050   1.189  48.067  1.00  0.00     0.217 HD
ENDBRANCH  10  22
TORSDOF 4
ENDMDL
MODEL 2
REMARK VINA RESULT:      -7.6      2.074      3.913
REMARK  4 active torsions:
REMARK  status: ('A' for Active; 'I' for Inactive)
REMARK    1  A    between atoms: O1_2  and  C2_3 
REMARK    2  A    between atoms: C7_10  and  C8_11 
REMARK    3  A    between atoms: C8_11  and  N3_12 
REMARK    4  A    between atoms: C15_19  and  O2_20 
ROOT
HETATM    1  C2  UNL     1      24.426   2.361  51.338  1.00  0.00     0.066 A 
HETATM    2  C3  UNL     1      24.119   1.391  52.312  1.00  0.00     0.001 A 
HETATM    3  C4  UNL     1      23.900   0.420  53.356  1.00  0.00     0.025 A 
HETATM    4  C5  UNL     1      22.670  -0.117  53.758  1.00  0.00     0.055 A 
HETATM    5  N1  UNL     1      22.694  -1.023  54.771  1.00  0.00    -0.245 NA
HETATM    6  C6  UNL     1      23.890  -1.353  55.325  1.00  0.00     0.233 A 
HETATM    7  N2  UNL     1      25.082  -0.834  54.937  1.00  0.00    -0.244 NA
HETATM    8  C7  UNL     1      25.110   0.081  53.924  1.00  0.00     0.066 A 
HETATM    9  C14 UNL     1      21.287   0.113  53.285  1.00  0.00     0.124 C 
HETATM   10  C15 UNL     1      21.199   1.467  52.684  1.00  0.00     0.046 C 
HETATM   11  C16 UNL     1      21.907   2.181  51.836  1.00  0.00     0.022 C 
HETATM   12  C17 UNL     1      23.166   1.685  51.194  1.00  0.00     0.104 A 
ENDROOT
BRANCH   8  13
HETATM   13  C8  UNL     1      26.369   0.704  53.428  1.00  0.00     0.182 C 
BRANCH  13  14
HETATM   14  N3  UNL     1      27.350  -0.377  53.331  1.00  0.00    -0.381 N 
HETATM   15  C9  UNL     1      28.607  -0.047  53.892  1.00  0.00     0.086 A 
HETATM   16  C10 UNL     1      29.584  -0.935  53.869  1.00  0.00     0.017 A 
HETATM   17  C11 UNL     1      29.427  -2.260  53.285  1.00  0.00    -0.001 A 
HETATM   18  C12 UNL     1      28.230  -2.510  52.777  1.00  0.00    -0.007 A 
HETATM   19  C13 UNL     1      27.026  -1.641  52.715  1.00  0.00     0.149 A 
ENDBRANCH  13  14
ENDBRANCH   8  13
BRANCH   1  20
HETATM   20  O1  UNL     1      25.466   3.249  51.043  1.00  0.00    -0.359 OA
HETATM   21  C1  UNL     1      26.461   2.919  50.077  1.00  0.00     0.209 C 
ENDBRANCH   1  20
BRANCH  10  22
HETATM   22  O2  UNL     1      20.081   2.205  53.109  1.00  0.00    -0.365 OA
HETATM   23  H15 UNL     1      19.721   2.004  54.017  1.00  0.00     0.217 HD
ENDBRANCH  10  22
TORSDOF 4
ENDMDL
MODEL 3
REMARK VINA RESULT:      -7.3      1.920      5.444
REMARK  4 active torsions:
REMARK  status: ('A' for Active; 'I' for Inactive)
REMARK    1  A    between atoms: O1_2  and  C2_3 
REMARK    2  A    between atoms: C7_10  and  C8_11 
REMARK    3  A    between atoms: C8_11  and  N3_12 
REMARK    4  A    between atoms: C15_19  and  O2_20 
ROOT
HETATM    1  C2  UNL     1      22.732   0.265  53.476  1.00  0.00     0.066 A 
HETATM    2  C3  UNL     1      23.812   0.872  52.806  1.00  0.00     0.001 A 
HETATM    3  C4  UNL     1      24.858   1.583  52.112  1.00  0.00     0.025 A 
HETATM    4  C5  UNL     1      26.222   1.265  52.098  1.00  0.00     0.055 A 
HETATM    5  N1  UNL     1      27.037   2.078  51.376  1.00  0.00    -0.245 NA
HETATM    6  C6  UNL     1      26.491   3.134  50.717  1.00  0.00     0.233 A 
HETATM    7  N2  UNL     1      25.171   3.444  50.730  1.00  0.00    -0.244 NA
HETATM    8  C7  UNL     1      24.311   2.658  51.443  1.00  0.00     0.066 A 
HETATM    9  C14 UNL     1      26.992   0.176  52.739  1.00  0.00     0.124 C 
HETATM   10  C15 UNL     1      26.268  -0.281  53.950  1.00  0.00     0.046 C 
HETATM   11  C16 UNL     1      25.029  -0.597  54.258  1.00  0.00     0.022 C 
HETATM   12  C17 UNL     1      23.900  -0.549  53.275  1.00  0.00     0.104 A 
ENDROOT
BRANCH   8  13
HETATM   13  C8  UNL     1      22.846   2.917  51.516  1.00  0.00     0.182 C 
BRANCH  13  14
HETATM   14  N3  UNL     1      22.371   2.978  50.134  1.00  0.00    -0.381 N 
HETATM   15  C9  UNL     1      22.263   1.706  49.520  1.00  0.00     0.086 A 
HETATM   16  C10 UNL     1      21.845   1.620  48.270  1.00  0.00     0.017 A 
HETATM   17  C11 UNL     1      21.486   2.789  47.480  1.00  0.00    -0.001 A 
HETATM   18  C12 UNL     1      21.608   3.948  48.108  1.00  0.00    -0.007 A 
HETATM   19  C13 UNL     1      22.057   4.233  49.495  1.00  0.00     0.149 A 
ENDBRANCH  13  14
ENDBRANCH   8  13
BRANCH   1  20
HETATM   20  O1  UNL     1      21.442   0.605  53.897  1.00  0.00    -0.359 OA
HETATM   21  C1  UNL     1      20.366  -0.323  53.787  1.00  0.00     0.209 C 
ENDBRANCH   1  20
BRANCH  10  22
HETATM   22  O2  UNL     1      27.089  -0.426  55.082  1.00  0.00    -0.365 OA
HETATM   23  H15 UNL     1      27.182  -1.343  55.464  1.00  0.00     0.217 HD
ENDBRANCH  10  22
TORSDOF 4
ENDMDL
MODEL 4
REMARK VINA RESULT:      -7.2      3.311      5.264
REMARK  4 active torsions:
REMARK  status: ('A' for Active; 'I' for Inactive)
REMARK    1  A    between atoms: O1_2  and  C2_3 
REMARK    2  A    between atoms: C7_10  and  C8_11 
REMARK    3  A    between atoms: C8_11  and  N3_12 
REMARK    4  A    between atoms: C15_19  and  O2_20 
ROOT
HETATM    1  C2  UNL     1      26.689   4.811  49.184  1.00  0.00     0.066 A 
HETATM    2  C3  UNL     1      25.682   4.361  50.060  1.00  0.00     0.001 A 
HETATM    3  C4  UNL     1      24.721   3.828  50.995  1.00  0.00     0.025 A 
HETATM    4  C5  UNL     1      23.571   4.468  51.474  1.00  0.00     0.055 A 
HETATM    5  N1  UNL     1      22.802   3.777  52.356  1.00  0.00    -0.245 NA
HETATM    6  C6  UNL     1      23.185   2.524  52.716  1.00  0.00     0.233 A 
HETATM    7  N2  UNL     1      24.298   1.902  52.252  1.00  0.00    -0.244 NA
HETATM    8  C7  UNL     1      25.105   2.556  51.365  1.00  0.00     0.066 A 
HETATM    9  C14 UNL     1      22.997   5.805  51.204  1.00  0.00     0.124 C 
HETATM   10  C15 UNL     1      24.085   6.725  50.791  1.00  0.00     0.046 C 
HETATM   11  C16 UNL     1      25.103   6.685  49.958  1.00  0.00     0.022 C 
HETATM   12  C17 UNL     1      25.426   5.493  49.111  1.00  0.00     0.104 A 
ENDROOT
BRANCH   8  13
HETATM   13  C8  UNL     1      26.345   1.955  50.801  1.00  0.00     0.182 C 
BRANCH  13  14
HETATM   14  N3  UNL     1      27.027   1.300  51.918  1.00  0.00    -0.381 N 
HETATM   15  C9  UNL     1      27.776   2.194  52.720  1.00  0.00     0.086 A 
HETATM   16  C10 UNL     1      28.442   1.731  53.762  1.00  0.00     0.017 A 
HETATM   17  C11 UNL     1      28.442   0.323  54.131  1.00  0.00    -0.001 A 
HETATM   18  C12 UNL     1      27.724  -0.463  53.344  1.00  0.00    -0.007 A 
HETATM   19  C13 UNL     1      26.920  -0.121  52.142  1.00  0.00     0.149 A 
ENDBRANCH  13  14
ENDBRANCH   8  13
BRANCH   1  20
HETATM   20  O1  UNL     1      28.018   4.502  48.877  1.00  0.00    -0.359 OA
HETATM   21  C1  UNL     1      28.882   5.475  48.296  1.00  0.00     0.209 C 
ENDBRANCH   1  20
BRANCH  10  22
HETATM   22  O2  UNL     1      24.050   7.973  51.437  1.00  0.00    -0.365 OA
HETATM   23  H15 UNL     1      23.228   8.526  51.316  1.00  0.00     0.217 HD
ENDBRANCH  10  22
TORSDOF 4
ENDMDL
MODEL 5
REMARK VINA RESULT:      -7.1      2.698      5.573
REMARK  4 active torsions:
REMARK  status: ('A' for Active; 'I' for Inactive)
REMARK    1  A    between atoms: O1_2  and  C2_3 
REMARK    2  A    between atoms: C7_10  and  C8_11 
REMARK    3  A    between atoms: C8_11  and  N3_12 
REMARK    4  A    between atoms: C15_19  and  O2_20 
ROOT
HETATM    1  C2  UNL     1      20.022   2.165  52.327  1.00  0.00     0.066 A 
HETATM    2  C3  UNL     1      21.364   1.824  52.587  1.00  0.00     0.001 A 
HETATM    3  C4  UNL     1      22.757   1.580  52.871  1.00  0.00     0.025 A 
HETATM    4  C5  UNL     1      23.337   0.359  53.236  1.00  0.00     0.055 A 
HETATM    5  N1  UNL     1      24.678   0.356  53.461  1.00  0.00    -0.245 NA
HETATM    6  C6  UNL     1      25.367   1.518  53.321  1.00  0.00     0.233 A 
HETATM    7  N2  UNL     1      24.807   2.702  52.968  1.00  0.00    -0.244 NA
HETATM    8  C7  UNL     1      23.462   2.757  52.732  1.00  0.00     0.066 A 
HETATM    9  C14 UNL     1      22.763  -0.990  53.435  1.00  0.00     0.124 C 
HETATM   10  C15 UNL     1      21.331  -0.859  53.800  1.00  0.00     0.046 C 
HETATM   11  C16 UNL     1      20.295  -0.175  53.364  1.00  0.00     0.022 C 
HETATM   12  C17 UNL     1      20.364   0.774  52.208  1.00  0.00     0.104 A 
ENDROOT
BRANCH   8  13
HETATM   13  C8  UNL     1      22.758   4.009  52.340  1.00  0.00     0.182 C 
BRANCH  13  14
HETATM   14  N3  UNL     1      23.400   4.472  51.109  1.00  0.00    -0.381 N 
HETATM   15  C9  UNL     1      24.037   5.729  51.246  1.00  0.00     0.086 A 
HETATM   16  C10 UNL     1      24.655   6.262  50.208  1.00  0.00     0.017 A 
HETATM   17  C11 UNL     1      24.714   5.608  48.908  1.00  0.00    -0.001 A 
HETATM   18  C12 UNL     1      24.101   4.436  48.843  1.00  0.00    -0.007 A 
HETATM   19  C13 UNL     1      23.363   3.691  49.896  1.00  0.00     0.149 A 
ENDBRANCH  13  14
ENDBRANCH   8  13
BRANCH   1  20
HETATM   20  O1  UNL     1      19.223   3.313  52.307  1.00  0.00    -0.359 OA
HETATM   21  C1  UNL     1      18.079   3.395  51.460  1.00  0.00     0.209 C 
ENDBRANCH   1  20
BRANCH  10  22
HETATM   22  O2  UNL     1      20.947  -1.657  54.892  1.00  0.00    -0.365 OA
HETATM   23  H15 UNL     1      21.267  -1.377  55.795  1.00  0.00     0.217 HD
ENDBRANCH  10  22
TORSDOF 4
ENDMDL
MODEL 6
REMARK VINA RESULT:      -7.0      2.060      3.806
REMARK  4 active torsions:
REMARK  status: ('A' for Active; 'I' for Inactive)
REMARK    1  A    between atoms: O1_2  and  C2_3 
REMARK    2  A    between atoms: C7_10  and  C8_11 
REMARK    3  A    between atoms: C8_11  and  N3_12 
REMARK    4  A    between atoms: C15_19  and  O2_20 
ROOT
HETATM    1  C2  UNL     1      23.884   2.662  50.248  1.00  0.00     0.066 A 
HETATM    2  C3  UNL     1      23.686   1.775  51.325  1.00  0.00     0.001 A 
HETATM    3  C4  UNL     1      23.588   0.881  52.452  1.00  0.00     0.025 A 
HETATM    4  C5  UNL     1      22.420   0.509  53.129  1.00  0.00     0.055 A 
HETATM    5  N1  UNL     1      22.559  -0.351  54.173  1.00  0.00    -0.245 NA
HETATM    6  C6  UNL     1      23.803  -0.795  54.494  1.00  0.00     0.233 A 
HETATM    7  N2  UNL     1      24.935  -0.435  53.839  1.00  0.00    -0.244 NA
HETATM    8  C7  UNL     1      24.848   0.428  52.784  1.00  0.00     0.066 A 
HETATM    9  C14 UNL     1      21.001   0.877  52.931  1.00  0.00     0.124 C 
HETATM   10  C15 UNL     1      20.932   2.206  52.274  1.00  0.00     0.046 C 
HETATM   11  C16 UNL     1      21.519   2.797  51.256  1.00  0.00     0.022 C 
HETATM   12  C17 UNL     1      22.557   2.132  50.406  1.00  0.00     0.104 A 
ENDROOT
BRANCH   8  13
HETATM   13  C8  UNL     1      26.034   0.879  52.005  1.00  0.00     0.182 C 
BRANCH  13  14
HETATM   14  N3  UNL     1      27.208   0.525  52.803  1.00  0.00    -0.381 N 
HETATM   15  C9  UNL     1      27.604  -0.825  52.651  1.00  0.00     0.086 A 
HETATM   16  C10 UNL     1      28.651  -1.276  53.318  1.00  0.00     0.017 A 
HETATM   17  C11 UNL     1      29.430  -0.436  54.217  1.00  0.00    -0.001 A 
HETATM   18  C12 UNL     1      29.011   0.816  54.317  1.00  0.00    -0.007 A 
HETATM   19  C13 UNL     1      27.866   1.489  53.651  1.00  0.00     0.149 A 
ENDBRANCH  13  14
ENDBRANCH   8  13
BRANCH   1  20
HETATM   20  O1  UNL     1      24.927   3.410  49.692  1.00  0.00    -0.359 OA
HETATM   21  C1  UNL     1      25.105   4.784  50.030  1.00  0.00     0.209 C 
ENDBRANCH   1  20
BRANCH  10  22
HETATM   22  O2  UNL     1      20.011   3.086  52.868  1.00  0.00    -0.365 OA
HETATM   23  H15 UNL     1      19.172   3.276  52.364  1.00  0.00     0.217 HD
ENDBRANCH  10  22
TORSDOF 4
ENDMDL
MODEL 7
REMARK VINA RESULT:      -7.0      2.733      6.576
REMARK  4 active torsions:
REMARK  status: ('A' for Active; 'I' for Inactive)
REMARK    1  A    between atoms: O1_2  and  C2_3 
REMARK    2  A    between atoms: C7_10  and  C8_11 
REMARK    3  A    between atoms: C8_11  and  N3_12 
REMARK    4  A    between atoms: C15_19  and  O2_20 
ROOT
HETATM    1  C2  UNL     1      26.900   2.392  51.565  1.00  0.00     0.066 A 
HETATM    2  C3  UNL     1      26.252   1.526  52.467  1.00  0.00     0.001 A 
HETATM    3  C4  UNL     1      25.515   0.620  53.313  1.00  0.00     0.025 A 
HETATM    4  C5  UNL     1      25.994  -0.043  54.449  1.00  0.00     0.055 A 
HETATM    5  N1  UNL     1      25.122  -0.858  55.101  1.00  0.00    -0.245 NA
HETATM    6  C6  UNL     1      23.857  -0.979  54.622  1.00  0.00     0.233 A 
HETATM    7  N2  UNL     1      23.391  -0.337  53.521  1.00  0.00    -0.244 NA
HETATM    8  C7  UNL     1      24.229   0.492  52.831  1.00  0.00     0.066 A 
HETATM    9  C14 UNL     1      27.315  -0.039  55.116  1.00  0.00     0.124 C 
HETATM   10  C15 UNL     1      28.360   0.301  54.119  1.00  0.00     0.046 C 
HETATM   11  C16 UNL     1      28.519   1.205  53.176  1.00  0.00     0.022 C 
HETATM   12  C17 UNL     1      27.500   2.257  52.864  1.00  0.00     0.104 A 
ENDROOT
BRANCH   8  13
HETATM   13  C8  UNL     1      23.809   1.239  51.613  1.00  0.00     0.182 C 
BRANCH  13  14
HETATM   14  N3  UNL     1      22.349   1.307  51.658  1.00  0.00    -0.381 N 
HETATM   15  C9  UNL     1      21.859   2.400  52.412  1.00  0.00     0.086 A 
HETATM   16  C10 UNL     1      20.556   2.577  52.533  1.00  0.00     0.017 A 
HETATM   17  C11 UNL     1      19.583   1.686  51.917  1.00  0.00    -0.001 A 
HETATM   18  C12 UNL     1      20.101   0.684  51.225  1.00  0.00    -0.007 A 
HETATM   19  C13 UNL     1      21.524   0.333  50.984  1.00  0.00     0.149 A 
ENDBRANCH  13  14
ENDBRANCH   8  13
BRANCH   1  20
HETATM   20  O1  UNL     1      26.733   2.847  50.252  1.00  0.00    -0.359 OA
HETATM   21  C1  UNL     1      26.087   4.089  49.983  1.00  0.00     0.209 C 
ENDBRANCH   1  20
BRANCH  10  22
HETATM   22  O2  UNL     1      29.485  -0.540  54.165  1.00  0.00    -0.365 OA
HETATM   23  H15 UNL     1      29.394  -1.445  53.757  1.00  0.00     0.217 HD
ENDBRANCH  10  22
TORSDOF 4
ENDMDL
MODEL 8
REMARK VINA RESULT:      -6.8      2.736      6.664
REMARK  4 active torsions:
REMARK  status: ('A' for Active; 'I' for Inactive)
REMARK    1  A    between atoms: O1_2  and  C2_3 
REMARK    2  A    between atoms: C7_10  and  C8_11 
REMARK    3  A    between atoms: C8_11  and  N3_12 
REMARK    4  A    between atoms: C15_19  and  O2_20 
ROOT
HETATM    1  C2  UNL     1      26.555   2.467  50.913  1.00  0.00     0.066 A 
HETATM    2  C3  UNL     1      25.414   1.843  51.454  1.00  0.00     0.001 A 
HETATM    3  C4  UNL     1      24.197   1.219  51.912  1.00  0.00     0.025 A 
HETATM    4  C5  UNL     1      24.060   0.341  52.994  1.00  0.00     0.055 A 
HETATM    5  N1  UNL     1      22.812  -0.133  53.250  1.00  0.00    -0.245 NA
HETATM    6  C6  UNL     1      21.785   0.267  52.455  1.00  0.00     0.233 A 
HETATM    7  N2  UNL     1      21.916   1.118  51.407  1.00  0.00    -0.244 NA
HETATM    8  C7  UNL     1      23.150   1.620  51.108  1.00  0.00     0.066 A 
HETATM    9  C14 UNL     1      25.041  -0.202  53.960  1.00  0.00     0.124 C 
HETATM   10  C15 UNL     1      26.386  -0.205  53.334  1.00  0.00     0.046 C 
HETATM   11  C16 UNL     1      27.116   0.641  52.639  1.00  0.00     0.022 C 
HETATM   12  C17 UNL     1      26.656   2.018  52.275  1.00  0.00     0.104 A 
ENDROOT
BRANCH   8  13
HETATM   13  C8  UNL     1      23.392   2.559  49.978  1.00  0.00     0.182 C 
BRANCH  13  14
HETATM   14  N3  UNL     1      22.595   3.753  50.260  1.00  0.00    -0.381 N 
HETATM   15  C9  UNL     1      21.563   3.975  49.317  1.00  0.00     0.086 A 
HETATM   16  C10 UNL     1      20.769   5.021  49.454  1.00  0.00     0.017 A 
HETATM   17  C11 UNL     1      20.906   5.972  50.549  1.00  0.00    -0.001 A 
HETATM   18  C12 UNL     1      21.887   5.711  51.398  1.00  0.00    -0.007 A 
HETATM   19  C13 UNL     1      22.868   4.595  51.400  1.00  0.00     0.149 A 
ENDBRANCH  13  14
ENDBRANCH   8  13
BRANCH   1  20
HETATM   20  O1  UNL     1      26.952   3.048  49.704  1.00  0.00    -0.359 OA
HETATM   21  C1  UNL     1      26.571   4.380  49.371  1.00  0.00     0.209 C 
ENDBRANCH   1  20
BRANCH  10  22
HETATM   22  O2  UNL     1      27.092  -1.408  53.509  1.00  0.00    -0.365 OA
HETATM   23  H15 UNL     1      27.708  -1.686  52.775  1.00  0.00     0.217 HD
ENDBRANCH  10  22
TORSDOF 4
ENDMDL
MODEL 9
REMARK VINA RESULT:      -6.7      2.307      4.129
REMARK  4 active torsions:
REMARK  status: ('A' for Active; 'I' for Inactive)
REMARK    1  A    between atoms: O1_2  and  C2_3 
REMARK    2  A    between atoms: C7_10  and  C8_11 
REMARK    3  A    between atoms: C8_11  and  N3_12 
REMARK    4  A    between atoms: C15_19  and  O2_20 
ROOT
HETATM    1  C2  UNL     1      24.454   3.702  49.993  1.00  0.00     0.066 A 
HETATM    2  C3  UNL     1      23.688   2.676  50.578  1.00  0.00     0.001 A 
HETATM    3  C4  UNL     1      22.943   1.654  51.274  1.00  0.00     0.025 A 
HETATM    4  C5  UNL     1      21.806   0.983  50.810  1.00  0.00     0.055 A 
HETATM    5  N1  UNL     1      21.259   0.052  51.636  1.00  0.00    -0.245 NA
HETATM    6  C6  UNL     1      21.839  -0.171  52.845  1.00  0.00     0.233 A 
HETATM    7  N2  UNL     1      22.941   0.478  53.295  1.00  0.00    -0.244 NA
HETATM    8  C7  UNL     1      23.526   1.424  52.502  1.00  0.00     0.066 A 
HETATM    9  C14 UNL     1      21.042   1.084  49.547  1.00  0.00     0.124 C 
HETATM   10  C15 UNL     1      21.229   2.440  48.974  1.00  0.00     0.046 C 
HETATM   11  C16 UNL     1      22.242   3.250  48.755  1.00  0.00     0.022 C 
HETATM   12  C17 UNL     1      23.659   2.906  49.097  1.00  0.00     0.104 A 
ENDROOT
BRANCH   8  13
HETATM   13  C8  UNL     1      24.738   2.188  52.910  1.00  0.00     0.182 C 
BRANCH  13  14
HETATM   14  N3  UNL     1      25.805   1.202  53.083  1.00  0.00    -0.381 N 
HETATM   15  C9  UNL     1      26.308   1.144  54.405  1.00  0.00     0.086 A 
HETATM   16  C10 UNL     1      27.276   0.295  54.696  1.00  0.00     0.017 A 
HETATM   17  C11 UNL     1      27.861  -0.599  53.706  1.00  0.00    -0.001 A 
HETATM   18  C12 UNL     1      27.349  -0.499  52.490  1.00  0.00    -0.007 A 
HETATM   19  C13 UNL     1      26.270   0.389  51.985  1.00  0.00     0.149 A 
ENDBRANCH  13  14
ENDBRANCH   8  13
BRANCH   1  20
HETATM   20  O1  UNL     1      25.344   4.702  50.401  1.00  0.00    -0.359 OA
HETATM   21  C1  UNL     1      25.862   5.647  49.468  1.00  0.00     0.209 C 
ENDBRANCH   1  20
BRANCH  10  22
HETATM   22  O2  UNL     1      20.036   3.047  48.546  1.00  0.00    -0.365 OA
HETATM   23  H15 UNL     1      19.493   3.521  49.236  1.00  0.00     0.217 HD
ENDBRANCH  10  22
TORSDOF 4
ENDMDL
