MODEL 1
REMARK VINA RESULT:      -8.5      0.000      0.000
REMARK  5 active torsions:
REMARK  status: ('A' for Active; 'I' for Inactive)
REMARK    1  A    between atoms: C5_7  and  N3_8 
REMARK    2  A    between atoms: N3_8  and  C6_9 
REMARK    3  A    between atoms: C10_16  and  C11_17 
REMARK    4  A    between atoms: C11_17  and  N7_18 
REMARK    5  A    between atoms: C14_21  and  N8_22 
ROOT
HETATM    1  C6  UNL     1      24.871   3.301  51.436  1.00  0.00     0.159 A 
HETATM    2  N4  UNL     1      26.052   3.574  50.837  1.00  0.00    -0.220 NA
HETATM    3  C7  UNL     1      26.037   3.991  49.558  1.00  0.00     0.258 A 
HETATM    4  N5  UNL     1      24.891   4.142  48.862  1.00  0.00    -0.161 NA
HETATM    5  N6  UNL     1      23.713   3.874  49.443  1.00  0.00    -0.240 N 
HETATM    6  C8  UNL     1      22.435   3.936  49.029  1.00  0.00     0.119 A 
HETATM    7  C9  UNL     1      21.657   3.539  50.096  1.00  0.00     0.030 A 
HETATM    8  C10 UNL     1      22.447   3.225  51.189  1.00  0.00    -0.007 A 
HETATM    9  C17 UNL     1      23.710   3.459  50.711  1.00  0.00     0.112 A 
ENDROOT
BRANCH   1  10
HETATM   10  N3  UNL     1      25.013   2.901  52.794  1.00  0.00    -0.339 N 
HETATM   11  H6  UNL     1      24.617   3.196  53.708  1.00  0.00     0.167 HD
BRANCH  10  12
HETATM   12  C5  UNL     1      25.941   1.798  52.911  1.00  0.00     0.034 A 
HETATM   13  C4  UNL     1      27.210   1.923  53.467  1.00  0.00     0.044 A 
HETATM   14  C3  UNL     1      28.070   0.849  53.565  1.00  0.00     0.013 A 
HETATM   15  C2  UNL     1      29.351   0.732  54.066  1.00  0.00     0.152 A 
HETATM   16  C20 UNL     1      27.702  -0.399  53.113  1.00  0.00     0.064 A 
HETATM   17  N2  UNL     1      29.745  -0.567  53.918  1.00  0.00    -0.184 NA
HETATM   18  N1  UNL     1      28.738  -1.237  53.340  1.00  0.00    -0.274 N 
HETATM   19  C1  UNL     1      28.785  -2.665  53.018  1.00  0.00     0.180 C 
HETATM   20  C19 UNL     1      26.458  -0.591  52.552  1.00  0.00     0.034 A 
HETATM   21  C18 UNL     1      25.640   0.512  52.478  1.00  0.00     0.032 A 
ENDBRANCH  10  12
ENDBRANCH   1  10
BRANCH   8  22
HETATM   22  C11 UNL     1      21.824   2.715  52.429  1.00  0.00     0.158 C 
BRANCH  22  23
HETATM   23  N7  UNL     1      21.216   1.455  52.364  1.00  0.00    -0.408 N 
HETATM   24  C12 UNL     1      19.845   1.271  52.365  1.00  0.00     0.119 C 
HETATM   25  C13 UNL     1      19.519  -0.166  52.794  1.00  0.00     0.055 C 
HETATM   26  C14 UNL     1      20.594  -0.681  53.736  1.00  0.00     0.221 C 
HETATM   27  C15 UNL     1      21.942  -0.709  53.090  1.00  0.00     0.055 C 
HETATM   28  C16 UNL     1      22.039   0.349  52.012  1.00  0.00     0.119 C 
BRANCH  26  29
HETATM   29  N8  UNL     1      20.654   0.159  54.918  1.00  0.00     0.083 N 
HETATM   30  H17 UNL     1      21.458   0.810  54.800  1.00  0.00     0.313 HD
HETATM   31  H18 UNL     1      19.788   0.748  55.047  1.00  0.00     0.313 HD
ENDBRANCH  26  29
ENDBRANCH  22  23
ENDBRANCH   8  22
TORSDOF 5
ENDMDL
MODEL 2
REMARK VINA RESULT:      -8.5      1.888      4.900
REMARK  5 active torsions:
REMARK  status: ('A' for Active; 'I' for Inactive)
REMARK    1  A    between atoms: C5_7  and  N3_8 
REMARK    2  A    between atoms: N3_8  and  C6_9 
REMARK    3  A    between atoms: C10_16  and  C11_17 
REMARK    4  A    between atoms: C11_17  and  N7_18 
REMARK    5  A    between atoms: C14_21  and  N8_22 
ROOT
HETATM    1  C6  UNL     1      23.194   1.753  52.308  1.00  0.00     0.159 A 
HETATM    2  N4  UNL     1      22.474   0.883  53.051  1.00  0.00    -0.220 NA
HETATM    3  C7  UNL     1      21.487   0.195  52.449  1.00  0.00     0.258 A 
HETATM    4  N5  UNL     1      21.198   0.346  51.140  1.00  0.00    -0.161 NA
HETATM    5  N6  UNL     1      21.903   1.206  50.391  1.00  0.00    -0.240 N 
HETATM    6  C8  UNL     1      21.865   1.561  49.095  1.00  0.00     0.119 A 
HETATM    7  C9  UNL     1      22.862   2.497  48.915  1.00  0.00     0.030 A 
HETATM    8  C10 UNL     1      23.532   2.735  50.102  1.00  0.00    -0.007 A 
HETATM    9  C17 UNL     1      22.885   1.897  50.973  1.00  0.00     0.112 A 
ENDROOT
BRANCH   1  10
HETATM   10  N3  UNL     1      24.227   2.396  53.047  1.00  0.00    -0.339 N 
HETATM   11  H6  UNL     1      24.347   3.308  53.531  1.00  0.00     0.167 HD
BRANCH  10  12
HETATM   12  C5  UNL     1      25.393   1.548  53.145  1.00  0.00     0.034 A 
HETATM   13  C4  UNL     1      25.387   0.198  52.808  1.00  0.00     0.044 A 
HETATM   14  C3  UNL     1      26.520  -0.582  52.914  1.00  0.00     0.013 A 
HETATM   15  C2  UNL     1      26.753  -1.917  52.645  1.00  0.00     0.152 A 
HETATM   16  C20 UNL     1      27.710  -0.051  53.359  1.00  0.00     0.064 A 
HETATM   17  N2  UNL     1      28.063  -2.181  52.924  1.00  0.00    -0.184 NA
HETATM   18  N1  UNL     1      28.627  -1.045  53.354  1.00  0.00    -0.274 N 
HETATM   19  C1  UNL     1      30.032  -0.929  53.752  1.00  0.00     0.180 C 
HETATM   20  C19 UNL     1      27.784   1.280  53.709  1.00  0.00     0.034 A 
HETATM   21  C18 UNL     1      26.627   2.013  53.586  1.00  0.00     0.032 A 
ENDBRANCH  10  12
ENDBRANCH   1  10
BRANCH   8  22
HETATM   22  C11 UNL     1      24.603   3.752  50.156  1.00  0.00     0.158 C 
BRANCH  22  23
HETATM   23  N7  UNL     1      24.251   5.066  49.819  1.00  0.00    -0.408 N 
HETATM   24  C12 UNL     1      24.665   5.691  48.657  1.00  0.00     0.119 C 
HETATM   25  C13 UNL     1      24.555   7.213  48.823  1.00  0.00     0.055 C 
HETATM   26  C14 UNL     1      24.753   7.588  50.282  1.00  0.00     0.221 C 
HETATM   27  C15 UNL     1      23.718   6.972  51.167  1.00  0.00     0.055 C 
HETATM   28  C16 UNL     1      23.210   5.677  50.572  1.00  0.00     0.119 C 
BRANCH  26  29
HETATM   29  N8  UNL     1      26.067   7.163  50.725  1.00  0.00     0.083 N 
HETATM   30  H17 UNL     1      26.262   6.239  50.288  1.00  0.00     0.313 HD
HETATM   31  H18 UNL     1      26.836   7.822  50.424  1.00  0.00     0.313 HD
ENDBRANCH  26  29
ENDBRANCH  22  23
ENDBRANCH   8  22
TORSDOF 5
ENDMDL
MODEL 3
REMARK VINA RESULT:      -8.2      1.701      2.714
REMARK  5 active torsions:
REMARK  status: ('A' for Active; 'I' for Inactive)
REMARK    1  A    between atoms: C5_7  and  N3_8 
REMARK    2  A    between atoms: N3_8  and  C6_9 
REMARK    3  A    between atoms: C10_16  and  C11_17 
REMARK    4  A    between atoms: C11_17  and  N7_18 
REMARK    5  A    between atoms: C14_21  and  N8_22 
ROOT
HETATM    1  C6  UNL     1      23.338   2.874  51.092  1.00  0.00     0.159 A 
HETATM    2  N4  UNL     1      24.163   3.909  50.818  1.00  0.00    -0.220 NA
HETATM    3  C7  UNL     1      24.238   4.346  49.548  1.00  0.00     0.258 A 
HETATM    4  N5  UNL     1      23.522   3.787  48.550  1.00  0.00    -0.161 NA
HETATM    5  N6  UNL     1      22.701   2.760  48.807  1.00  0.00    -0.240 N 
HETATM    6  C8  UNL     1      21.872   2.019  48.051  1.00  0.00     0.119 A 
HETATM    7  C9  UNL     1      21.282   1.104  48.897  1.00  0.00     0.030 A 
HETATM    8  C10 UNL     1      21.740   1.267  50.193  1.00  0.00    -0.007 A 
HETATM    9  C17 UNL     1      22.615   2.314  50.061  1.00  0.00     0.112 A 
ENDROOT
BRANCH   1  10
HETATM   10  N3  UNL     1      23.321   2.524  52.471  1.00  0.00    -0.339 N 
HETATM   11  H6  UNL     1      22.664   2.643  53.267  1.00  0.00     0.167 HD
BRANCH  10  12
HETATM   12  C5  UNL     1      24.526   1.815  52.837  1.00  0.00     0.034 A 
HETATM   13  C4  UNL     1      24.782   0.499  52.465  1.00  0.00     0.044 A 
HETATM   14  C3  UNL     1      25.945  -0.147  52.831  1.00  0.00     0.013 A 
HETATM   15  C2  UNL     1      26.411  -1.423  52.586  1.00  0.00     0.152 A 
HETATM   16  C20 UNL     1      26.905   0.491  53.585  1.00  0.00     0.064 A 
HETATM   17  N2  UNL     1      27.632  -1.549  53.184  1.00  0.00    -0.184 NA
HETATM   18  N1  UNL     1      27.917  -0.384  53.783  1.00  0.00    -0.274 N 
HETATM   19  C1  UNL     1      29.150  -0.129  54.531  1.00  0.00     0.180 C 
HETATM   20  C19 UNL     1      26.713   1.796  53.986  1.00  0.00     0.034 A 
HETATM   21  C18 UNL     1      25.538   2.393  53.595  1.00  0.00     0.032 A 
ENDBRANCH  10  12
ENDBRANCH   1  10
BRANCH   8  22
HETATM   22  C11 UNL     1      21.285   0.349  51.259  1.00  0.00     0.158 C 
BRANCH  22  23
HETATM   23  N7  UNL     1      19.982   0.527  51.739  1.00  0.00    -0.408 N 
HETATM   24  C12 UNL     1      19.164  -0.519  52.127  1.00  0.00     0.119 C 
HETATM   25  C13 UNL     1      17.698  -0.062  52.105  1.00  0.00     0.055 C 
HETATM   26  C14 UNL     1      17.508   1.013  51.048  1.00  0.00     0.221 C 
HETATM   27  C15 UNL     1      18.343   2.223  51.320  1.00  0.00     0.055 C 
HETATM   28  C16 UNL     1      19.589   1.848  52.092  1.00  0.00     0.119 C 
BRANCH  26  29
HETATM   29  N8  UNL     1      17.854   0.485  49.742  1.00  0.00     0.083 N 
HETATM   30  H17 UNL     1      18.099   1.291  49.132  1.00  0.00     0.313 HD
HETATM   31  H18 UNL     1      18.692  -0.158  49.767  1.00  0.00     0.313 HD
ENDBRANCH  26  29
ENDBRANCH  22  23
ENDBRANCH   8  22
TORSDOF 5
ENDMDL
MODEL 4
REMARK VINA RESULT:      -7.9      2.085      5.833
REMARK  5 active torsions:
REMARK  status: ('A' for Active; 'I' for Inactive)
REMARK    1  A    between atoms: C5_7  and  N3_8 
REMARK    2  A    between atoms: N3_8  and  C6_9 
REMARK    3  A    between atoms: C10_16  and  C11_17 
REMARK    4  A    between atoms: C11_17  and  N7_18 
REMARK    5  A    between atoms: C14_21  and  N8_22 
ROOT
HETATM    1  C6  UNL     1      21.861   3.653  51.674  1.00  0.00     0.159 A 
HETATM    2  N4  UNL     1      21.024   4.392  50.912  1.00  0.00    -0.220 NA
HETATM    3  C7  UNL     1      20.083   3.751  50.194  1.00  0.00     0.258 A 
HETATM    4  N5  UNL     1      19.952   2.408  50.213  1.00  0.00    -0.161 NA
HETATM    5  N6  UNL     1      20.776   1.664  50.964  1.00  0.00    -0.240 N 
HETATM    6  C8  UNL     1      20.889   0.344  51.195  1.00  0.00     0.119 A 
HETATM    7  C9  UNL     1      21.935   0.188  52.079  1.00  0.00     0.030 A 
HETATM    8  C10 UNL     1      22.486   1.414  52.408  1.00  0.00    -0.007 A 
HETATM    9  C17 UNL     1      21.715   2.283  51.681  1.00  0.00     0.112 A 
ENDROOT
BRANCH   1  10
HETATM   10  N3  UNL     1      22.789   4.443  52.408  1.00  0.00    -0.339 N 
HETATM   11  H6  UNL     1      22.919   4.718  53.402  1.00  0.00     0.167 HD
BRANCH  10  12
HETATM   12  C5  UNL     1      23.806   4.986  51.536  1.00  0.00     0.034 A 
HETATM   13  C4  UNL     1      24.702   4.196  50.822  1.00  0.00     0.044 A 
HETATM   14  C3  UNL     1      25.659   4.748  49.997  1.00  0.00     0.013 A 
HETATM   15  C2  UNL     1      26.638   4.180  49.205  1.00  0.00     0.152 A 
HETATM   16  C20 UNL     1      25.767   6.113  49.847  1.00  0.00     0.064 A 
HETATM   17  N2  UNL     1      27.321   5.188  48.589  1.00  0.00    -0.184 NA
HETATM   18  N1  UNL     1      26.784   6.350  48.987  1.00  0.00    -0.274 N 
HETATM   19  C1  UNL     1      27.250   7.664  48.537  1.00  0.00     0.180 C 
HETATM   20  C19 UNL     1      24.910   6.952  50.527  1.00  0.00     0.034 A 
HETATM   21  C18 UNL     1      23.975   6.351  51.336  1.00  0.00     0.032 A 
ENDBRANCH  10  12
ENDBRANCH   1  10
BRANCH   8  22
HETATM   22  C11 UNL     1      23.666   1.480  53.298  1.00  0.00     0.158 C 
BRANCH  22  23
HETATM   23  N7  UNL     1      24.788   0.730  52.924  1.00  0.00    -0.408 N 
HETATM   24  C12 UNL     1      25.080  -0.516  53.450  1.00  0.00     0.119 C 
HETATM   25  C13 UNL     1      26.569  -0.826  53.241  1.00  0.00     0.055 C 
HETATM   26  C14 UNL     1      27.369   0.465  53.232  1.00  0.00     0.221 C 
HETATM   27  C15 UNL     1      26.950   1.379  52.126  1.00  0.00     0.055 C 
HETATM   28  C16 UNL     1      25.499   1.150  51.765  1.00  0.00     0.119 C 
BRANCH  26  29
HETATM   29  N8  UNL     1      27.208   1.152  54.499  1.00  0.00     0.083 N 
HETATM   30  H17 UNL     1      27.562   2.123  54.378  1.00  0.00     0.313 HD
HETATM   31  H18 UNL     1      26.198   1.221  54.803  1.00  0.00     0.313 HD
ENDBRANCH  26  29
ENDBRANCH  22  23
ENDBRANCH   8  22
TORSDOF 5
ENDMDL
MODEL 5
REMARK VINA RESULT:      -7.9      2.709      6.331
REMARK  5 active torsions:
REMARK  status: ('A' for Active; 'I' for Inactive)
REMARK    1  A    between atoms: C5_7  and  N3_8 
REMARK    2  A    between atoms: N3_8  and  C6_9 
REMARK    3  A    between atoms: C10_16  and  C11_17 
REMARK    4  A    between atoms: C11_17  and  N7_18 
REMARK    5  A    between atoms: C14_21  and  N8_22 
ROOT
HETATM    1  C6  UNL     1      26.113   2.611  50.841  1.00  0.00     0.159 A 
HETATM    2  N4  UNL     1      27.309   2.636  51.471  1.00  0.00    -0.220 NA
HETATM    3  C7  UNL     1      27.353   2.282  52.768  1.00  0.00     0.258 A 
HETATM    4  N5  UNL     1      26.252   1.907  53.451  1.00  0.00    -0.161 NA
HETATM    5  N6  UNL     1      25.060   1.877  52.839  1.00  0.00    -0.240 N 
HETATM    6  C8  UNL     1      23.818   1.548  53.234  1.00  0.00     0.119 A 
HETATM    7  C9  UNL     1      23.000   1.713  52.136  1.00  0.00     0.030 A 
HETATM    8  C10 UNL     1      23.728   2.150  51.043  1.00  0.00    -0.007 A 
HETATM    9  C17 UNL     1      24.998   2.227  51.553  1.00  0.00     0.112 A 
ENDROOT
BRANCH   1  10
HETATM   10  N3  UNL     1      26.198   2.975  49.468  1.00  0.00    -0.339 N 
HETATM   11  H6  UNL     1      26.108   2.486  48.555  1.00  0.00     0.167 HD
BRANCH  10  12
HETATM   12  C5  UNL     1      26.472   4.387  49.325  1.00  0.00     0.034 A 
HETATM   13  C4  UNL     1      25.670   5.380  49.880  1.00  0.00     0.044 A 
HETATM   14  C3  UNL     1      25.961   6.719  49.725  1.00  0.00     0.013 A 
HETATM   15  C2  UNL     1      25.327   7.862  50.173  1.00  0.00     0.152 A 
HETATM   16  C20 UNL     1      27.065   7.128  49.011  1.00  0.00     0.064 A 
HETATM   17  N2  UNL     1      26.041   8.940  49.734  1.00  0.00    -0.184 NA
HETATM   18  N1  UNL     1      27.088   8.481  49.034  1.00  0.00    -0.274 N 
HETATM   19  C1  UNL     1      28.090   9.342  48.401  1.00  0.00     0.180 C 
HETATM   20  C19 UNL     1      27.901   6.195  48.436  1.00  0.00     0.034 A 
HETATM   21  C18 UNL     1      27.565   4.875  48.620  1.00  0.00     0.032 A 
ENDBRANCH  10  12
ENDBRANCH   1  10
BRANCH   8  22
HETATM   22  C11 UNL     1      23.040   2.453  49.770  1.00  0.00     0.158 C 
BRANCH  22  23
HETATM   23  N7  UNL     1      22.243   3.604  49.736  1.00  0.00    -0.408 N 
HETATM   24  C12 UNL     1      22.622   4.774  49.101  1.00  0.00     0.119 C 
HETATM   25  C13 UNL     1      21.812   5.950  49.662  1.00  0.00     0.055 C 
HETATM   26  C14 UNL     1      21.440   5.677  51.110  1.00  0.00     0.221 C 
HETATM   27  C15 UNL     1      20.595   4.452  51.253  1.00  0.00     0.055 C 
HETATM   28  C16 UNL     1      20.885   3.472  50.137  1.00  0.00     0.119 C 
BRANCH  26  29
HETATM   29  N8  UNL     1      22.643   5.516  51.904  1.00  0.00     0.083 N 
HETATM   30  H17 UNL     1      23.435   5.363  51.247  1.00  0.00     0.313 HD
HETATM   31  H18 UNL     1      22.872   6.371  52.481  1.00  0.00     0.313 HD
ENDBRANCH  26  29
ENDBRANCH  22  23
ENDBRANCH   8  22
TORSDOF 5
ENDMDL
MODEL 6
REMARK VINA RESULT:      -7.6      2.238      6.849
REMARK  5 active torsions:
REMARK  status: ('A' for Active; 'I' for Inactive)
REMARK    1  A    between atoms: C5_7  and  N3_8 
REMARK    2  A    between atoms: N3_8  and  C6_9 
REMARK    3  A    between atoms: C10_16  and  C11_17 
REMARK    4  A    between atoms: C11_17  and  N7_18 
REMARK    5  A    between atoms: C14_21  and  N8_22 
ROOT
HETATM    1  C6  UNL     1      22.339   2.719  50.562  1.00  0.00     0.159 A 
HETATM    2  N4  UNL     1      21.764   3.491  49.613  1.00  0.00    -0.220 NA
HETATM    3  C7  UNL     1      21.856   4.828  49.738  1.00  0.00     0.258 A 
HETATM    4  N5  UNL     1      22.497   5.413  50.771  1.00  0.00    -0.161 NA
HETATM    5  N6  UNL     1      23.071   4.660  51.719  1.00  0.00    -0.240 N 
HETATM    6  C8  UNL     1      23.770   4.937  52.833  1.00  0.00     0.119 A 
HETATM    7  C9  UNL     1      24.107   3.725  53.397  1.00  0.00     0.030 A 
HETATM    8  C10 UNL     1      23.618   2.677  52.637  1.00  0.00    -0.007 A 
HETATM    9  C17 UNL     1      22.988   3.332  51.611  1.00  0.00     0.112 A 
ENDROOT
BRANCH   1  10
HETATM   10  N3  UNL     1      22.203   1.326  50.304  1.00  0.00    -0.339 N 
HETATM   11  H6  UNL     1      22.798   0.576  49.901  1.00  0.00     0.167 HD
BRANCH  10  12
HETATM   12  C5  UNL     1      20.905   0.849  50.726  1.00  0.00     0.034 A 
HETATM   13  C4  UNL     1      20.677   0.237  51.955  1.00  0.00     0.044 A 
HETATM   14  C3  UNL     1      19.425  -0.205  52.325  1.00  0.00     0.013 A 
HETATM   15  C2  UNL     1      18.964  -0.829  53.468  1.00  0.00     0.152 A 
HETATM   16  C20 UNL     1      18.342  -0.057  51.487  1.00  0.00     0.064 A 
HETATM   17  N2  UNL     1      17.626  -1.051  53.318  1.00  0.00    -0.184 NA
HETATM   18  N1  UNL     1      17.265  -0.580  52.116  1.00  0.00    -0.274 N 
HETATM   19  C1  UNL     1      15.898  -0.635  51.592  1.00  0.00     0.180 C 
HETATM   20  C19 UNL     1      18.499   0.541  50.255  1.00  0.00     0.034 A 
HETATM   21  C18 UNL     1      19.768   0.963  49.935  1.00  0.00     0.032 A 
ENDBRANCH  10  12
ENDBRANCH   1  10
BRANCH   8  22
HETATM   22  C11 UNL     1      23.810   1.282  53.089  1.00  0.00     0.158 C 
BRANCH  22  23
HETATM   23  N7  UNL     1      25.119   0.787  53.087  1.00  0.00    -0.408 N 
HETATM   24  C12 UNL     1      25.690   0.138  54.168  1.00  0.00     0.119 C 
HETATM   25  C13 UNL     1      27.219   0.183  54.047  1.00  0.00     0.055 C 
HETATM   26  C14 UNL     1      27.641   1.439  53.301  1.00  0.00     0.221 C 
HETATM   27  C15 UNL     1      27.088   1.481  51.913  1.00  0.00     0.055 C 
HETATM   28  C16 UNL     1      25.788   0.711  51.833  1.00  0.00     0.119 C 
BRANCH  26  29
HETATM   29  N8  UNL     1      27.193   2.613  54.024  1.00  0.00     0.083 N 
HETATM   30  H17 UNL     1      27.727   3.429  53.659  1.00  0.00     0.313 HD
HETATM   31  H18 UNL     1      26.167   2.818  53.880  1.00  0.00     0.313 HD
ENDBRANCH  26  29
ENDBRANCH  22  23
ENDBRANCH   8  22
TORSDOF 5
ENDMDL
MODEL 7
REMARK VINA RESULT:      -7.6      1.850      7.271
REMARK  5 active torsions:
REMARK  status: ('A' for Active; 'I' for Inactive)
REMARK    1  A    between atoms: C5_7  and  N3_8 
REMARK    2  A    between atoms: N3_8  and  C6_9 
REMARK    3  A    between atoms: C10_16  and  C11_17 
REMARK    4  A    between atoms: C11_17  and  N7_18 
REMARK    5  A    between atoms: C14_21  and  N8_22 
ROOT
HETATM    1  C6  UNL     1      22.788   2.324  52.349  1.00  0.00     0.159 A 
HETATM    2  N4  UNL     1      21.566   2.903  52.323  1.00  0.00    -0.220 NA
HETATM    3  C7  UNL     1      20.529   2.224  52.846  1.00  0.00     0.258 A 
HETATM    4  N5  UNL     1      20.669   0.997  53.389  1.00  0.00    -0.161 NA
HETATM    5  N6  UNL     1      21.874   0.411  53.420  1.00  0.00    -0.240 N 
HETATM    6  C8  UNL     1      22.327  -0.765  53.889  1.00  0.00     0.119 A 
HETATM    7  C9  UNL     1      23.682  -0.794  53.635  1.00  0.00     0.030 A 
HETATM    8  C10 UNL     1      24.088   0.368  53.003  1.00  0.00    -0.007 A 
HETATM    9  C17 UNL     1      22.914   1.070  52.905  1.00  0.00     0.112 A 
ENDROOT
BRANCH   1  10
HETATM   10  N3  UNL     1      23.807   3.149  51.797  1.00  0.00    -0.339 N 
HETATM   11  H6  UNL     1      24.744   3.485  52.096  1.00  0.00     0.167 HD
BRANCH  10  12
HETATM   12  C5  UNL     1      23.430   3.625  50.485  1.00  0.00     0.034 A 
HETATM   13  C4  UNL     1      22.983   2.788  49.468  1.00  0.00     0.044 A 
HETATM   14  C3  UNL     1      22.630   3.277  48.227  1.00  0.00     0.013 A 
HETATM   15  C2  UNL     1      22.169   2.654  47.084  1.00  0.00     0.152 A 
HETATM   16  C20 UNL     1      22.707   4.623  47.946  1.00  0.00     0.064 A 
HETATM   17  N2  UNL     1      21.972   3.612  46.132  1.00  0.00    -0.184 NA
HETATM   18  N1  UNL     1      22.301   4.796  46.667  1.00  0.00    -0.274 N 
HETATM   19  C1  UNL     1      22.220   6.070  45.948  1.00  0.00     0.180 C 
HETATM   20  C19 UNL     1      23.142   5.506  48.910  1.00  0.00     0.034 A 
HETATM   21  C18 UNL     1      23.482   4.968  50.128  1.00  0.00     0.032 A 
ENDBRANCH  10  12
ENDBRANCH   1  10
BRANCH   8  22
HETATM   22  C11 UNL     1      25.496   0.527  52.580  1.00  0.00     0.158 C 
BRANCH  22  23
HETATM   23  N7  UNL     1      26.480   0.055  53.457  1.00  0.00    -0.408 N 
HETATM   24  C12 UNL     1      26.663   0.552  54.735  1.00  0.00     0.119 C 
HETATM   25  C13 UNL     1      28.079   0.212  55.222  1.00  0.00     0.055 C 
HETATM   26  C14 UNL     1      29.028   0.135  54.038  1.00  0.00     0.221 C 
HETATM   27  C15 UNL     1      28.629  -0.929  53.066  1.00  0.00     0.055 C 
HETATM   28  C16 UNL     1      27.134  -1.161  53.113  1.00  0.00     0.119 C 
BRANCH  26  29
HETATM   29  N8  UNL     1      29.062   1.412  53.352  1.00  0.00     0.083 N 
HETATM   30  H17 UNL     1      29.440   2.116  54.018  1.00  0.00     0.313 HD
HETATM   31  H18 UNL     1      29.694   1.407  52.506  1.00  0.00     0.313 HD
ENDBRANCH  26  29
ENDBRANCH  22  23
ENDBRANCH   8  22
TORSDOF 5
ENDMDL
MODEL 8
REMARK VINA RESULT:      -7.6      2.604      6.098
REMARK  5 active torsions:
REMARK  status: ('A' for Active; 'I' for Inactive)
REMARK    1  A    between atoms: C5_7  and  N3_8 
REMARK    2  A    between atoms: N3_8  and  C6_9 
REMARK    3  A    between atoms: C10_16  and  C11_17 
REMARK    4  A    between atoms: C11_17  and  N7_18 
REMARK    5  A    between atoms: C14_21  and  N8_22 
ROOT
HETATM    1  C6  UNL     1      22.678   4.474  50.402  1.00  0.00     0.159 A 
HETATM    2  N4  UNL     1      22.180   5.215  49.387  1.00  0.00    -0.220 NA
HETATM    3  C7  UNL     1      21.321   4.630  48.532  1.00  0.00     0.258 A 
HETATM    4  N5  UNL     1      20.946   3.340  48.658  1.00  0.00    -0.161 NA
HETATM    5  N6  UNL     1      21.432   2.594  49.659  1.00  0.00    -0.240 N 
HETATM    6  C8  UNL     1      21.247   1.320  50.047  1.00  0.00     0.119 A 
HETATM    7  C9  UNL     1      22.024   1.133  51.170  1.00  0.00     0.030 A 
HETATM    8  C10 UNL     1      22.704   2.295  51.494  1.00  0.00    -0.007 A 
HETATM    9  C17 UNL     1      22.286   3.158  50.515  1.00  0.00     0.112 A 
ENDROOT
BRANCH   1  10
HETATM   10  N3  UNL     1      23.549   5.209  51.254  1.00  0.00    -0.339 N 
HETATM   11  H6  UNL     1      23.576   5.460  52.262  1.00  0.00     0.167 HD
BRANCH  10  12
HETATM   12  C5  UNL     1      24.680   5.722  50.515  1.00  0.00     0.034 A 
HETATM   13  C4  UNL     1      25.126   7.037  50.616  1.00  0.00     0.044 A 
HETATM   14  C3  UNL     1      26.211   7.493  49.896  1.00  0.00     0.013 A 
HETATM   15  C2  UNL     1      26.825   8.728  49.831  1.00  0.00     0.152 A 
HETATM   16  C20 UNL     1      26.900   6.659  49.045  1.00  0.00     0.064 A 
HETATM   17  N2  UNL     1      27.867   8.636  48.955  1.00  0.00    -0.184 NA
HETATM   18  N1  UNL     1      27.900   7.380  48.488  1.00  0.00    -0.274 N 
HETATM   19  C1  UNL     1      28.885   6.892  47.520  1.00  0.00     0.180 C 
HETATM   20  C19 UNL     1      26.510   5.345  48.900  1.00  0.00     0.034 A 
HETATM   21  C18 UNL     1      25.423   4.941  49.638  1.00  0.00     0.032 A 
ENDBRANCH  10  12
ENDBRANCH   1  10
BRANCH   8  22
HETATM   22  C11 UNL     1      23.648   2.306  52.632  1.00  0.00     0.158 C 
BRANCH  22  23
HETATM   23  N7  UNL     1      24.848   1.601  52.471  1.00  0.00    -0.408 N 
HETATM   24  C12 UNL     1      25.193   0.501  53.235  1.00  0.00     0.119 C 
HETATM   25  C13 UNL     1      26.712   0.289  53.175  1.00  0.00     0.055 C 
HETATM   26  C14 UNL     1      27.412   1.623  52.975  1.00  0.00     0.221 C 
HETATM   27  C15 UNL     1      27.009   2.283  51.696  1.00  0.00     0.055 C 
HETATM   28  C16 UNL     1      25.609   1.867  51.299  1.00  0.00     0.119 C 
BRANCH  26  29
HETATM   29  N8  UNL     1      27.105   2.509  54.082  1.00  0.00     0.083 N 
HETATM   30  H17 UNL     1      27.915   2.487  54.735  1.00  0.00     0.313 HD
HETATM   31  H18 UNL     1      26.972   3.512  53.779  1.00  0.00     0.313 HD
ENDBRANCH  26  29
ENDBRANCH  22  23
ENDBRANCH   8  22
TORSDOF 5
ENDMDL
MODEL 9
REMARK VINA RESULT:      -7.5      5.756     10.084
REMARK  5 active torsions:
REMARK  status: ('A' for Active; 'I' for Inactive)
REMARK    1  A    between atoms: C5_7  and  N3_8 
REMARK    2  A    between atoms: N3_8  and  C6_9 
REMARK    3  A    between atoms: C10_16  and  C11_17 
REMARK    4  A    between atoms: C11_17  and  N7_18 
REMARK    5  A    between atoms: C14_21  and  N8_22 
ROOT
HETATM    1  C6  UNL     1      29.094   7.898  48.134  1.00  0.00     0.159 A 
HETATM    2  N4  UNL     1      28.483   9.086  48.342  1.00  0.00    -0.220 NA
HETATM    3  C7  UNL     1      29.123  10.009  49.083  1.00  0.00     0.258 A 
HETATM    4  N5  UNL     1      30.341   9.788  49.617  1.00  0.00    -0.161 NA
HETATM    5  N6  UNL     1      30.958   8.615  49.419  1.00  0.00    -0.240 N 
HETATM    6  C8  UNL     1      32.145   8.109  49.798  1.00  0.00     0.119 A 
HETATM    7  C9  UNL     1      32.218   6.838  49.270  1.00  0.00     0.030 A 
HETATM    8  C10 UNL     1      31.073   6.538  48.554  1.00  0.00    -0.007 A 
HETATM    9  C17 UNL     1      30.338   7.687  48.687  1.00  0.00     0.112 A 
ENDROOT
BRANCH   1  10
HETATM   10  N3  UNL     1      28.335   7.018  47.312  1.00  0.00    -0.339 N 
HETATM   11  H6  UNL     1      28.327   6.749  46.308  1.00  0.00     0.167 HD
BRANCH  10  12
HETATM   12  C5  UNL     1      27.332   6.324  48.089  1.00  0.00     0.034 A 
HETATM   13  C4  UNL     1      27.530   5.061  48.638  1.00  0.00     0.044 A 
HETATM   14  C3  UNL     1      26.551   4.429  49.375  1.00  0.00     0.013 A 
HETATM   15  C2  UNL     1      26.516   3.200  50.005  1.00  0.00     0.152 A 
HETATM   16  C20 UNL     1      25.332   5.028  49.600  1.00  0.00     0.064 A 
HETATM   17  N2  UNL     1      25.294   3.065  50.599  1.00  0.00    -0.184 NA
HETATM   18  N1  UNL     1      24.590   4.176  50.345  1.00  0.00    -0.274 N 
HETATM   19  C1  UNL     1      23.223   4.406  50.820  1.00  0.00     0.180 C 
HETATM   20  C19 UNL     1      25.072   6.279  49.084  1.00  0.00     0.034 A 
HETATM   21  C18 UNL     1      26.080   6.865  48.356  1.00  0.00     0.032 A 
ENDBRANCH  10  12
ENDBRANCH   1  10
BRANCH   8  22
HETATM   22  C11 UNL     1      30.908   5.198  47.949  1.00  0.00     0.158 C 
BRANCH  22  23
HETATM   23  N7  UNL     1      31.937   4.748  47.112  1.00  0.00    -0.408 N 
HETATM   24  C12 UNL     1      32.230   3.409  46.920  1.00  0.00     0.119 C 
HETATM   25  C13 UNL     1      33.664   3.267  46.391  1.00  0.00     0.055 C 
HETATM   26  C14 UNL     1      34.521   4.412  46.907  1.00  0.00     0.221 C 
HETATM   27  C15 UNL     1      34.013   5.743  46.453  1.00  0.00     0.055 C 
HETATM   28  C16 UNL     1      32.518   5.693  46.223  1.00  0.00     0.119 C 
BRANCH  26  29
HETATM   29  N8  UNL     1      34.551   4.387  48.357  1.00  0.00     0.083 N 
HETATM   30  H17 UNL     1      33.725   3.844  48.680  1.00  0.00     0.313 HD
HETATM   31  H18 UNL     1      35.412   3.911  48.742  1.00  0.00     0.313 HD
ENDBRANCH  26  29
ENDBRANCH  22  23
ENDBRANCH   8  22
TORSDOF 5
ENDMDL
