MODEL 1
REMARK VINA RESULT:      -8.8      0.000      0.000
REMARK  4 active torsions:
REMARK  status: ('A' for Active; 'I' for Inactive)
REMARK    1  A    between atoms: C4_4  and  O1_5 
REMARK    2  A    between atoms: O1_5  and  C5_6 
REMARK    3  A    between atoms: C9_12  and  O2_13 
REMARK    4  A    between atoms: C11_15  and  O3_16 
ROOT
HETATM    1  C5  UNL     1      23.836  -0.368  53.442  1.00  0.00     0.183 A 
HETATM    2  N1  UNL     1      24.263  -0.906  54.612  1.00  0.00    -0.217 NA
HETATM    3  C6  UNL     1      23.355  -1.359  55.505  1.00  0.00     0.236 A 
HETATM    4  N2  UNL     1      22.036  -1.284  55.249  1.00  0.00    -0.241 NA
HETATM    5  C7  UNL     1      21.626  -0.746  54.078  1.00  0.00     0.075 A 
HETATM    6  C8  UNL     1      20.256  -0.689  53.855  1.00  0.00     0.072 A 
HETATM    7  C9  UNL     1      19.738  -0.157  52.691  1.00  0.00     0.103 A 
HETATM    8  C11 UNL     1      20.645   0.313  51.764  1.00  0.00     0.102 A 
HETATM    9  C13 UNL     1      22.032   0.272  51.952  1.00  0.00     0.057 A 
HETATM   10  C14 UNL     1      22.497  -0.264  53.122  1.00  0.00     0.049 A 
ENDROOT
BRANCH   1  11
HETATM   11  O1  UNL     1      24.777   0.106  52.508  1.00  0.00    -0.291 OA
BRANCH  11  12
HETATM   12  C4  UNL     1      26.141  -0.091  52.795  1.00  0.00     0.080 A 
HETATM   13  C3  UNL     1      26.827  -1.288  52.796  1.00  0.00     0.047 A 
HETATM   14  C2  UNL     1      28.173  -1.282  53.106  1.00  0.00    -0.019 A 
HETATM   15  C1  UNL     1      28.878  -2.582  53.096  1.00  0.00     0.051 C 
HETATM   16  C17 UNL     1      28.843  -0.124  53.412  1.00  0.00     0.144 A 
HETATM   17  C16 UNL     1      28.192   1.104  53.425  1.00  0.00     0.075 A 
HETATM   18  F1  UNL     1      30.162  -0.122  53.716  1.00  0.00    -0.204 F 
HETATM   19  C15 UNL     1      26.833   1.079  53.109  1.00  0.00     0.064 A 
HETATM   20 CL1  UNL     1      29.007   2.604  53.809  1.00  0.00    -0.081 Cl
ENDBRANCH  11  12
ENDBRANCH   1  11
BRANCH   8  21
HETATM   21  O3  UNL     1      20.178   0.849  50.592  1.00  0.00    -0.353 OA
HETATM   22  C12 UNL     1      20.918   1.102  49.445  1.00  0.00     0.210 C 
ENDBRANCH   8  21
BRANCH   7  23
HETATM   23  O2  UNL     1      18.380  -0.067  52.399  1.00  0.00    -0.353 OA
HETATM   24  C10 UNL     1      17.552  -1.129  52.831  1.00  0.00     0.210 C 
ENDBRANCH   7  23
TORSDOF 4
ENDMDL
MODEL 2
REMARK VINA RESULT:      -8.1      2.266      3.238
REMARK  4 active torsions:
REMARK  status: ('A' for Active; 'I' for Inactive)
REMARK    1  A    between atoms: C4_4  and  O1_5 
REMARK    2  A    between atoms: O1_5  and  C5_6 
REMARK    3  A    between atoms: C9_12  and  O2_13 
REMARK    4  A    between atoms: C11_15  and  O3_16 
ROOT
HETATM    1  C5  UNL     1      23.911   2.242  51.832  1.00  0.00     0.183 A 
HETATM    2  N1  UNL     1      24.434   2.902  50.769  1.00  0.00    -0.217 NA
HETATM    3  C6  UNL     1      23.740   2.950  49.610  1.00  0.00     0.236 A 
HETATM    4  N2  UNL     1      22.539   2.353  49.498  1.00  0.00    -0.241 NA
HETATM    5  C7  UNL     1      22.031   1.699  50.567  1.00  0.00     0.075 A 
HETATM    6  C8  UNL     1      20.789   1.098  50.406  1.00  0.00     0.072 A 
HETATM    7  C9  UNL     1      20.185   0.406  51.438  1.00  0.00     0.103 A 
HETATM    8  C11 UNL     1      20.875   0.343  52.632  1.00  0.00     0.102 A 
HETATM    9  C13 UNL     1      22.127   0.937  52.831  1.00  0.00     0.057 A 
HETATM   10  C14 UNL     1      22.685   1.611  51.779  1.00  0.00     0.049 A 
ENDROOT
BRANCH   1  11
HETATM   11  O1  UNL     1      24.629   2.189  53.042  1.00  0.00    -0.291 OA
BRANCH  11  12
HETATM   12  C4  UNL     1      25.745   1.333  53.104  1.00  0.00     0.080 A 
HETATM   13  C3  UNL     1      25.795   0.004  52.736  1.00  0.00     0.047 A 
HETATM   14  C2  UNL     1      26.989  -0.677  52.870  1.00  0.00    -0.019 A 
HETATM   15  C1  UNL     1      27.008  -2.100  52.466  1.00  0.00     0.051 C 
HETATM   16  C17 UNL     1      28.120  -0.073  53.356  1.00  0.00     0.144 A 
HETATM   17  C16 UNL     1      28.116   1.264  53.740  1.00  0.00     0.075 A 
HETATM   18  F1  UNL     1      29.288  -0.743  53.487  1.00  0.00    -0.204 F 
HETATM   19  C15 UNL     1      26.902   1.936  53.598  1.00  0.00     0.064 A 
HETATM   20 CL1  UNL     1      29.535   2.074  54.365  1.00  0.00    -0.081 Cl
ENDBRANCH  11  12
ENDBRANCH   1  11
BRANCH   8  21
HETATM   21  O3  UNL     1      20.316  -0.332  53.685  1.00  0.00    -0.353 OA
HETATM   22  C12 UNL     1      20.750  -1.539  54.219  1.00  0.00     0.210 C 
ENDBRANCH   8  21
BRANCH   7  23
HETATM   23  O2  UNL     1      18.946  -0.220  51.351  1.00  0.00    -0.353 OA
HETATM   24  C10 UNL     1      18.008   0.321  50.442  1.00  0.00     0.210 C 
ENDBRANCH   7  23
TORSDOF 4
ENDMDL
MODEL 3
REMARK VINA RESULT:      -8.0      2.092      3.168
REMARK  4 active torsions:
REMARK  status: ('A' for Active; 'I' for Inactive)
REMARK    1  A    between atoms: C4_4  and  O1_5 
REMARK    2  A    between atoms: O1_5  and  C5_6 
REMARK    3  A    between atoms: C9_12  and  O2_13 
REMARK    4  A    between atoms: C11_15  and  O3_16 
ROOT
HETATM    1  C5  UNL     1      23.268   1.039  52.944  1.00  0.00     0.183 A 
HETATM    2  N1  UNL     1      22.609   0.164  53.745  1.00  0.00    -0.217 NA
HETATM    3  C6  UNL     1      21.479  -0.425  53.295  1.00  0.00     0.236 A 
HETATM    4  N2  UNL     1      21.001  -0.158  52.066  1.00  0.00    -0.241 NA
HETATM    5  C7  UNL     1      21.669   0.716  51.280  1.00  0.00     0.075 A 
HETATM    6  C8  UNL     1      21.140   0.962  50.019  1.00  0.00     0.072 A 
HETATM    7  C9  UNL     1      21.749   1.838  49.142  1.00  0.00     0.103 A 
HETATM    8  C11 UNL     1      22.905   2.453  49.578  1.00  0.00     0.102 A 
HETATM    9  C13 UNL     1      23.468   2.229  50.840  1.00  0.00     0.057 A 
HETATM   10  C14 UNL     1      22.828   1.353  51.674  1.00  0.00     0.049 A 
ENDROOT
BRANCH   1  11
HETATM   11  O1  UNL     1      24.446   1.656  53.407  1.00  0.00    -0.291 OA
BRANCH  11  12
HETATM   12  C4  UNL     1      25.641   0.914  53.347  1.00  0.00     0.080 A 
HETATM   13  C3  UNL     1      25.790  -0.389  52.919  1.00  0.00     0.047 A 
HETATM   14  C2  UNL     1      27.052  -0.951  52.932  1.00  0.00    -0.019 A 
HETATM   15  C1  UNL     1      27.177  -2.349  52.467  1.00  0.00     0.051 C 
HETATM   16  C17 UNL     1      28.155  -0.253  53.355  1.00  0.00     0.144 A 
HETATM   17  C16 UNL     1      28.051   1.062  53.796  1.00  0.00     0.075 A 
HETATM   18  F1  UNL     1      29.389  -0.807  53.368  1.00  0.00    -0.204 F 
HETATM   19  C15 UNL     1      26.770   1.614  53.776  1.00  0.00     0.064 A 
HETATM   20 CL1  UNL     1      29.430   1.988  54.344  1.00  0.00    -0.081 Cl
ENDBRANCH  11  12
ENDBRANCH   1  11
BRANCH   8  21
HETATM   21  O3  UNL     1      23.545   3.330  48.742  1.00  0.00    -0.353 OA
HETATM   22  C12 UNL     1      23.447   4.715  48.764  1.00  0.00     0.210 C 
ENDBRANCH   8  21
BRANCH   7  23
HETATM   23  O2  UNL     1      21.278   2.133  47.866  1.00  0.00    -0.353 OA
HETATM   24  C10 UNL     1      20.031   2.794  47.772  1.00  0.00     0.210 C 
ENDBRANCH   7  23
TORSDOF 4
ENDMDL
MODEL 4
REMARK VINA RESULT:      -7.8      3.861      6.888
REMARK  4 active torsions:
REMARK  status: ('A' for Active; 'I' for Inactive)
REMARK    1  A    between atoms: C4_4  and  O1_5 
REMARK    2  A    between atoms: O1_5  and  C5_6 
REMARK    3  A    between atoms: C9_12  and  O2_13 
REMARK    4  A    between atoms: C11_15  and  O3_16 
ROOT
HETATM    1  C5  UNL     1      23.108   1.659  52.824  1.00  0.00     0.183 A 
HETATM    2  N1  UNL     1      22.046   0.840  52.621  1.00  0.00    -0.217 NA
HETATM    3  C6  UNL     1      22.167  -0.481  52.884  1.00  0.00     0.236 A 
HETATM    4  N2  UNL     1      23.323  -0.992  53.343  1.00  0.00    -0.241 NA
HETATM    5  C7  UNL     1      24.373  -0.163  53.541  1.00  0.00     0.075 A 
HETATM    6  C8  UNL     1      25.546  -0.734  54.017  1.00  0.00     0.072 A 
HETATM    7  C9  UNL     1      26.674   0.029  54.251  1.00  0.00     0.103 A 
HETATM    8  C11 UNL     1      26.576   1.381  53.990  1.00  0.00     0.102 A 
HETATM    9  C13 UNL     1      25.411   1.991  53.512  1.00  0.00     0.057 A 
HETATM   10  C14 UNL     1      24.320   1.194  53.295  1.00  0.00     0.049 A 
ENDROOT
BRANCH   1  11
HETATM   11  O1  UNL     1      22.989   3.035  52.553  1.00  0.00    -0.291 OA
BRANCH  11  12
HETATM   12  C4  UNL     1      22.989   3.439  51.204  1.00  0.00     0.080 A 
HETATM   13  C3  UNL     1      22.821   2.635  50.096  1.00  0.00     0.047 A 
HETATM   14  C2  UNL     1      22.851   3.217  48.844  1.00  0.00    -0.019 A 
HETATM   15  C1  UNL     1      22.668   2.328  47.676  1.00  0.00     0.051 C 
HETATM   16  C17 UNL     1      23.041   4.565  48.672  1.00  0.00     0.144 A 
HETATM   17  C16 UNL     1      23.215   5.413  49.761  1.00  0.00     0.075 A 
HETATM   18  F1  UNL     1      23.071   5.132  47.444  1.00  0.00    -0.204 F 
HETATM   19  C15 UNL     1      23.182   4.808  51.018  1.00  0.00     0.064 A 
HETATM   20 CL1  UNL     1      23.461   7.136  49.589  1.00  0.00    -0.081 Cl
ENDBRANCH  11  12
ENDBRANCH   1  11
BRANCH   8  21
HETATM   21  O3  UNL     1      27.669   2.178  54.208  1.00  0.00    -0.353 OA
HETATM   22  C12 UNL     1      28.667   2.482  53.292  1.00  0.00     0.210 C 
ENDBRANCH   8  21
BRANCH   7  23
HETATM   23  O2  UNL     1      27.882  -0.472  54.726  1.00  0.00    -0.353 OA
HETATM   24  C10 UNL     1      28.757  -1.058  53.783  1.00  0.00     0.210 C 
ENDBRANCH   7  23
TORSDOF 4
ENDMDL
MODEL 5
REMARK VINA RESULT:      -7.8      4.155      7.577
REMARK  4 active torsions:
REMARK  status: ('A' for Active; 'I' for Inactive)
REMARK    1  A    between atoms: C4_4  and  O1_5 
REMARK    2  A    between atoms: O1_5  and  C5_6 
REMARK    3  A    between atoms: C9_12  and  O2_13 
REMARK    4  A    between atoms: C11_15  and  O3_16 
ROOT
HETATM    1  C5  UNL     1      24.463   2.631  52.150  1.00  0.00     0.183 A 
HETATM    2  N1  UNL     1      24.803   3.501  51.165  1.00  0.00    -0.217 NA
HETATM    3  C6  UNL     1      26.023   3.411  50.592  1.00  0.00     0.236 A 
HETATM    4  N2  UNL     1      26.904   2.472  50.983  1.00  0.00    -0.241 NA
HETATM    5  C7  UNL     1      26.551   1.611  51.965  1.00  0.00     0.075 A 
HETATM    6  C8  UNL     1      27.490   0.658  52.337  1.00  0.00     0.072 A 
HETATM    7  C9  UNL     1      27.225  -0.265  53.329  1.00  0.00     0.103 A 
HETATM    8  C11 UNL     1      25.984  -0.193  53.930  1.00  0.00     0.102 A 
HETATM    9  C13 UNL     1      25.012   0.752  53.582  1.00  0.00     0.057 A 
HETATM   10  C14 UNL     1      25.322   1.646  52.593  1.00  0.00     0.049 A 
ENDROOT
BRANCH   1  11
HETATM   11  O1  UNL     1      23.193   2.720  52.750  1.00  0.00    -0.291 OA
BRANCH  11  12
HETATM   12  C4  UNL     1      22.118   2.075  52.109  1.00  0.00     0.080 A 
HETATM   13  C3  UNL     1      21.689   2.266  50.812  1.00  0.00     0.047 A 
HETATM   14  C2  UNL     1      20.609   1.536  50.356  1.00  0.00    -0.019 A 
HETATM   15  C1  UNL     1      20.174   1.764  48.961  1.00  0.00     0.051 C 
HETATM   16  C17 UNL     1      19.955   0.631  51.153  1.00  0.00     0.144 A 
HETATM   17  C16 UNL     1      20.352   0.407  52.467  1.00  0.00     0.075 A 
HETATM   18  F1  UNL     1      18.896  -0.082  50.704  1.00  0.00    -0.204 F 
HETATM   19  C15 UNL     1      21.445   1.153  52.910  1.00  0.00     0.064 A 
HETATM   20 CL1  UNL     1      19.547  -0.736  53.518  1.00  0.00    -0.081 Cl
ENDBRANCH  11  12
ENDBRANCH   1  11
BRANCH   8  21
HETATM   21  O3  UNL     1      25.675  -1.089  54.921  1.00  0.00    -0.353 OA
HETATM   22  C12 UNL     1      24.445  -1.236  55.548  1.00  0.00     0.210 C 
ENDBRANCH   8  21
BRANCH   7  23
HETATM   23  O2  UNL     1      28.114  -1.246  53.754  1.00  0.00    -0.353 OA
HETATM   24  C10 UNL     1      29.491  -0.923  53.744  1.00  0.00     0.210 C 
ENDBRANCH   7  23
TORSDOF 4
ENDMDL
MODEL 6
REMARK VINA RESULT:      -7.8      4.780      5.847
REMARK  4 active torsions:
REMARK  status: ('A' for Active; 'I' for Inactive)
REMARK    1  A    between atoms: C4_4  and  O1_5 
REMARK    2  A    between atoms: O1_5  and  C5_6 
REMARK    3  A    between atoms: C9_12  and  O2_13 
REMARK    4  A    between atoms: C11_15  and  O3_16 
ROOT
HETATM    1  C5  UNL     1      26.021   2.457  50.979  1.00  0.00     0.183 A 
HETATM    2  N1  UNL     1      27.219   2.558  51.607  1.00  0.00    -0.217 NA
HETATM    3  C6  UNL     1      27.352   2.075  52.862  1.00  0.00     0.236 A 
HETATM    4  N2  UNL     1      26.316   1.497  53.495  1.00  0.00    -0.241 NA
HETATM    5  C7  UNL     1      25.128   1.403  52.856  1.00  0.00     0.075 A 
HETATM    6  C8  UNL     1      24.085   0.798  53.546  1.00  0.00     0.072 A 
HETATM    7  C9  UNL     1      22.834   0.655  52.980  1.00  0.00     0.103 A 
HETATM    8  C11 UNL     1      22.672   1.140  51.698  1.00  0.00     0.102 A 
HETATM    9  C13 UNL     1      23.699   1.754  50.970  1.00  0.00     0.057 A 
HETATM   10  C14 UNL     1      24.921   1.873  51.575  1.00  0.00     0.049 A 
ENDROOT
BRANCH   1  11
HETATM   11  O1  UNL     1      25.875   2.957  49.670  1.00  0.00    -0.291 OA
BRANCH  11  12
HETATM   12  C4  UNL     1      26.239   4.297  49.438  1.00  0.00     0.080 A 
HETATM   13  C3  UNL     1      27.333   4.750  48.729  1.00  0.00     0.047 A 
HETATM   14  C2  UNL     1      27.526   6.112  48.607  1.00  0.00    -0.019 A 
HETATM   15  C1  UNL     1      28.707   6.565  47.841  1.00  0.00     0.051 C 
HETATM   16  C17 UNL     1      26.665   7.022  49.168  1.00  0.00     0.144 A 
HETATM   17  C16 UNL     1      25.552   6.610  49.892  1.00  0.00     0.075 A 
HETATM   18  F1  UNL     1      26.858   8.356  49.048  1.00  0.00    -0.204 F 
HETATM   19  C15 UNL     1      25.372   5.231  50.004  1.00  0.00     0.064 A 
HETATM   20 CL1  UNL     1      24.429   7.735  50.624  1.00  0.00    -0.081 Cl
ENDBRANCH  11  12
ENDBRANCH   1  11
BRANCH   8  21
HETATM   21  O3  UNL     1      21.448   1.020  51.093  1.00  0.00    -0.353 OA
HETATM   22  C12 UNL     1      20.982   1.759  50.014  1.00  0.00     0.210 C 
ENDBRANCH   8  21
BRANCH   7  23
HETATM   23  O2  UNL     1      21.745   0.061  53.609  1.00  0.00    -0.353 OA
HETATM   24  C10 UNL     1      21.932  -1.232  54.149  1.00  0.00     0.210 C 
ENDBRANCH   7  23
TORSDOF 4
ENDMDL
MODEL 7
REMARK VINA RESULT:      -7.7      5.466      7.620
REMARK  4 active torsions:
REMARK  status: ('A' for Active; 'I' for Inactive)
REMARK    1  A    between atoms: C4_4  and  O1_5 
REMARK    2  A    between atoms: O1_5  and  C5_6 
REMARK    3  A    between atoms: C9_12  and  O2_13 
REMARK    4  A    between atoms: C11_15  and  O3_16 
ROOT
HETATM    1  C5  UNL     1      25.014   3.860  50.499  1.00  0.00     0.183 A 
HETATM    2  N1  UNL     1      23.874   4.122  51.186  1.00  0.00    -0.217 NA
HETATM    3  C6  UNL     1      23.425   5.394  51.267  1.00  0.00     0.236 A 
HETATM    4  N2  UNL     1      24.092   6.402  50.675  1.00  0.00    -0.241 NA
HETATM    5  C7  UNL     1      25.227   6.125  49.993  1.00  0.00     0.075 A 
HETATM    6  C8  UNL     1      25.882   7.196  49.398  1.00  0.00     0.072 A 
HETATM    7  C9  UNL     1      27.049   7.017  48.681  1.00  0.00     0.103 A 
HETATM    8  C11 UNL     1      27.528   5.726  48.584  1.00  0.00     0.102 A 
HETATM    9  C13 UNL     1      26.894   4.622  49.169  1.00  0.00     0.057 A 
HETATM   10  C14 UNL     1      25.742   4.851  49.871  1.00  0.00     0.049 A 
ENDROOT
BRANCH   1  11
HETATM   11  O1  UNL     1      25.486   2.537  50.411  1.00  0.00    -0.291 OA
BRANCH  11  12
HETATM   12  C4  UNL     1      25.835   1.885  51.609  1.00  0.00     0.080 A 
HETATM   13  C3  UNL     1      25.118   0.901  52.259  1.00  0.00     0.047 A 
HETATM   14  C2  UNL     1      25.624   0.378  53.432  1.00  0.00    -0.019 A 
HETATM   15  C1  UNL     1      24.832  -0.676  54.103  1.00  0.00     0.051 C 
HETATM   16  C17 UNL     1      26.813   0.806  53.967  1.00  0.00     0.144 A 
HETATM   17  C16 UNL     1      27.567   1.796  53.347  1.00  0.00     0.075 A 
HETATM   18  F1  UNL     1      27.306   0.292  55.118  1.00  0.00    -0.204 F 
HETATM   19  C15 UNL     1      27.041   2.314  52.163  1.00  0.00     0.064 A 
HETATM   20 CL1  UNL     1      29.087   2.373  53.993  1.00  0.00    -0.081 Cl
ENDBRANCH  11  12
ENDBRANCH   1  11
BRANCH   8  21
HETATM   21  O3  UNL     1      28.682   5.498  47.882  1.00  0.00    -0.353 OA
HETATM   22  C12 UNL     1      29.978   5.563  48.376  1.00  0.00     0.210 C 
ENDBRANCH   8  21
BRANCH   7  23
HETATM   23  O2  UNL     1      27.759   8.038  48.059  1.00  0.00    -0.353 OA
HETATM   24  C10 UNL     1      28.248   9.081  48.880  1.00  0.00     0.210 C 
ENDBRANCH   7  23
TORSDOF 4
ENDMDL
MODEL 8
REMARK VINA RESULT:      -7.6      8.350     11.625
REMARK  4 active torsions:
REMARK  status: ('A' for Active; 'I' for Inactive)
REMARK    1  A    between atoms: C4_4  and  O1_5 
REMARK    2  A    between atoms: O1_5  and  C5_6 
REMARK    3  A    between atoms: C9_12  and  O2_13 
REMARK    4  A    between atoms: C11_15  and  O3_16 
ROOT
HETATM    1  C5  UNL     1      28.871   7.587  48.301  1.00  0.00     0.183 A 
HETATM    2  N1  UNL     1      28.578   8.860  48.670  1.00  0.00    -0.217 NA
HETATM    3  C6  UNL     1      29.544   9.631  49.217  1.00  0.00     0.236 A 
HETATM    4  N2  UNL     1      30.789   9.154  49.400  1.00  0.00    -0.241 NA
HETATM    5  C7  UNL     1      31.065   7.884  49.027  1.00  0.00     0.075 A 
HETATM    6  C8  UNL     1      32.363   7.434  49.233  1.00  0.00     0.072 A 
HETATM    7  C9  UNL     1      32.744   6.153  48.886  1.00  0.00     0.103 A 
HETATM    8  C11 UNL     1      31.775   5.346  48.325  1.00  0.00     0.102 A 
HETATM    9  C13 UNL     1      30.458   5.764  48.100  1.00  0.00     0.057 A 
HETATM   10  C14 UNL     1      30.129   7.042  48.462  1.00  0.00     0.049 A 
ENDROOT
BRANCH   1  11
HETATM   11  O1  UNL     1      27.869   6.779  47.729  1.00  0.00    -0.291 OA
BRANCH  11  12
HETATM   12  C4  UNL     1      27.042   6.047  48.602  1.00  0.00     0.080 A 
HETATM   13  C3  UNL     1      27.131   4.703  48.899  1.00  0.00     0.047 A 
HETATM   14  C2  UNL     1      26.223   4.158  49.786  1.00  0.00    -0.019 A 
HETATM   15  C1  UNL     1      26.346   2.715  50.084  1.00  0.00     0.051 C 
HETATM   16  C17 UNL     1      25.240   4.912  50.376  1.00  0.00     0.144 A 
HETATM   17  C16 UNL     1      25.113   6.270  50.104  1.00  0.00     0.075 A 
HETATM   18  F1  UNL     1      24.351   4.375  51.243  1.00  0.00    -0.204 F 
HETATM   19  C15 UNL     1      26.038   6.804  49.207  1.00  0.00     0.064 A 
HETATM   20 CL1  UNL     1      23.875   7.269  50.833  1.00  0.00    -0.081 Cl
ENDBRANCH  11  12
ENDBRANCH   1  11
BRANCH   8  21
HETATM   21  O3  UNL     1      32.107   4.066  47.963  1.00  0.00    -0.353 OA
HETATM   22  C12 UNL     1      32.252   3.583  46.669  1.00  0.00     0.210 C 
ENDBRANCH   8  21
BRANCH   7  23
HETATM   23  O2  UNL     1      34.023   5.634  49.063  1.00  0.00    -0.353 OA
HETATM   24  C10 UNL     1      35.065   6.198  48.291  1.00  0.00     0.210 C 
ENDBRANCH   7  23
TORSDOF 4
ENDMDL
MODEL 9
REMARK VINA RESULT:      -7.6      3.522      7.061
REMARK  4 active torsions:
REMARK  status: ('A' for Active; 'I' for Inactive)
REMARK    1  A    between atoms: C4_4  and  O1_5 
REMARK    2  A    between atoms: O1_5  and  C5_6 
REMARK    3  A    between atoms: C9_12  and  O2_13 
REMARK    4  A    between atoms: C11_15  and  O3_16 
ROOT
HETATM    1  C5  UNL     1      22.905  -0.656  53.187  1.00  0.00     0.183 A 
HETATM    2  N1  UNL     1      22.155  -1.347  54.082  1.00  0.00    -0.217 NA
HETATM    3  C6  UNL     1      22.677  -1.647  55.292  1.00  0.00     0.236 A 
HETATM    4  N2  UNL     1      23.927  -1.271  55.620  1.00  0.00    -0.241 NA
HETATM    5  C7  UNL     1      24.661  -0.583  54.717  1.00  0.00     0.075 A 
HETATM    6  C8  UNL     1      25.945  -0.215  55.098  1.00  0.00     0.072 A 
HETATM    7  C9  UNL     1      26.774   0.489  54.246  1.00  0.00     0.103 A 
HETATM    8  C11 UNL     1      26.264   0.808  53.004  1.00  0.00     0.102 A 
HETATM    9  C13 UNL     1      24.975   0.455  52.586  1.00  0.00     0.057 A 
HETATM   10  C14 UNL     1      24.192  -0.243  53.464  1.00  0.00     0.049 A 
ENDROOT
BRANCH   1  11
HETATM   11  O1  UNL     1      22.367  -0.340  51.925  1.00  0.00    -0.291 OA
BRANCH  11  12
HETATM   12  C4  UNL     1      21.301   0.579  51.879  1.00  0.00     0.080 A 
HETATM   13  C3  UNL     1      19.960   0.290  51.731  1.00  0.00     0.047 A 
HETATM   14  C2  UNL     1      19.056   1.333  51.709  1.00  0.00    -0.019 A 
HETATM   15  C1  UNL     1      17.626   0.990  51.550  1.00  0.00     0.051 C 
HETATM   16  C17 UNL     1      19.451   2.642  51.828  1.00  0.00     0.144 A 
HETATM   17  C16 UNL     1      20.792   2.979  51.977  1.00  0.00     0.075 A 
HETATM   18  F1  UNL     1      18.562   3.662  51.805  1.00  0.00    -0.204 F 
HETATM   19  C15 UNL     1      21.692   1.913  51.998  1.00  0.00     0.064 A 
HETATM   20 CL1  UNL     1      21.341   4.633  52.133  1.00  0.00    -0.081 Cl
ENDBRANCH  11  12
ENDBRANCH   1  11
BRANCH   8  21
HETATM   21  O3  UNL     1      27.049   1.507  52.125  1.00  0.00    -0.353 OA
HETATM   22  C12 UNL     1      26.627   2.491  51.240  1.00  0.00     0.210 C 
ENDBRANCH   8  21
BRANCH   7  23
HETATM   23  O2  UNL     1      28.069   0.891  54.557  1.00  0.00    -0.353 OA
HETATM   24  C10 UNL     1      29.093  -0.077  54.448  1.00  0.00     0.210 C 
ENDBRANCH   7  23
TORSDOF 4
ENDMDL
