MODEL 1
REMARK VINA RESULT:      -8.8      0.000      0.000
REMARK  6 active torsions:
REMARK  status: ('A' for Active; 'I' for Inactive)
REMARK    1  A    between atoms: C2_2  and  O1_3 
REMARK    2  A    between atoms: C4_5  and  C5_6 
REMARK    3  A    between atoms: C6_8  and  C7_9 
REMARK    4  A    between atoms: C7_9  and  C8_10 
REMARK    5  A    between atoms: C13_15  and  C14_16 
REMARK    6  A    between atoms: C18_22  and  N2_23 
ROOT
HETATM    1  C5  UNL     1      22.790   2.049  51.824  1.00  0.00     0.115 A 
HETATM    2  N1  UNL     1      24.009   1.531  51.482  1.00  0.00    -0.236 NA
HETATM    3  C6  UNL     1      24.842   2.502  51.073  1.00  0.00     0.071 A 
HETATM    4  C17 UNL     1      24.096   3.633  51.174  1.00  0.00     0.111 A 
HETATM    5  C18 UNL     1      24.394   4.948  50.897  1.00  0.00     0.150 A 
HETATM    6  N3  UNL     1      23.525   5.972  51.051  1.00  0.00    -0.240 NA
HETATM    7  C19 UNL     1      22.269   5.718  51.509  1.00  0.00     0.136 A 
HETATM    8  C20 UNL     1      21.992   4.406  51.779  1.00  0.00     0.118 A 
HETATM    9  N4  UNL     1      22.853   3.390  51.625  1.00  0.00    -0.303 N 
ENDROOT
BRANCH   3  10
HETATM   10  C7  UNL     1      26.232   2.283  50.647  1.00  0.00     0.089 C 
BRANCH  10  11
HETATM   11  C8  UNL     1      26.988   1.704  51.783  1.00  0.00    -0.012 C 
HETATM   12  C9  UNL     1      26.952   0.561  52.516  1.00  0.00    -0.039 C 
HETATM   13  C10 UNL     1      26.466  -0.760  52.921  1.00  0.00    -0.046 C 
HETATM   14  C13 UNL     1      27.941   0.388  53.627  1.00  0.00     0.039 C 
HETATM   15  C11 UNL     1      27.423  -1.653  52.649  1.00  0.00    -0.017 C 
HETATM   16  C16 UNL     1      25.096  -0.953  53.601  1.00  0.00     0.103 C 
HETATM   17  C12 UNL     1      28.628  -0.874  53.157  1.00  0.00     0.049 C 
HETATM   18  S1  UNL     1      25.613  -0.131  55.195  1.00  0.00    -0.205 SA
HETATM   19  C15 UNL     1      27.219   0.215  54.919  1.00  0.00     0.022 C 
HETATM   20  H17 UNL     1      24.960   1.098  55.225  1.00  0.00     0.095 HD
BRANCH  14  21
HETATM   21  C14 UNL     1      28.923   1.542  53.715  1.00  0.00     0.241 C 
HETATM   22  F1  UNL     1      29.414   1.547  55.013  1.00  0.00    -0.254 F 
ENDBRANCH  14  21
ENDBRANCH  10  11
ENDBRANCH   3  10
BRANCH   1  23
HETATM   23  C4  UNL     1      21.637   1.286  52.313  1.00  0.00     0.061 C 
HETATM   24  C3  UNL     1      21.422  -0.084  51.800  1.00  0.00     0.049 C 
HETATM   25  C2  UNL     1      21.107  -0.520  53.210  1.00  0.00     0.056 C 
HETATM   26  C1  UNL     1      19.610  -0.568  53.456  1.00  0.00     0.045 C 
HETATM   27  C21 UNL     1      21.657   0.795  53.707  1.00  0.00     0.049 C 
BRANCH  25  28
HETATM   28  O1  UNL     1      21.788  -1.647  53.644  1.00  0.00    -0.390 OA
HETATM   29  H4  UNL     1      21.828  -1.645  54.613  1.00  0.00     0.210 HD
ENDBRANCH  25  28
ENDBRANCH   1  23
BRANCH   5  30
HETATM   30  N2  UNL     1      25.673   5.309  50.406  1.00  0.00    -0.382 N 
HETATM   31  H20 UNL     1      26.432   5.280  49.720  1.00  0.00     0.157 HD
HETATM   32  H21 UNL     1      26.564   5.830  50.506  1.00  0.00     0.157 HD
ENDBRANCH   5  30
TORSDOF 6
ENDMDL
MODEL 2
REMARK VINA RESULT:      -8.5      1.622      2.245
REMARK  6 active torsions:
REMARK  status: ('A' for Active; 'I' for Inactive)
REMARK    1  A    between atoms: C2_2  and  O1_3 
REMARK    2  A    between atoms: C4_5  and  C5_6 
REMARK    3  A    between atoms: C6_8  and  C7_9 
REMARK    4  A    between atoms: C7_9  and  C8_10 
REMARK    5  A    between atoms: C13_15  and  C14_16 
REMARK    6  A    between atoms: C18_22  and  N2_23 
ROOT
HETATM    1  C5  UNL     1      22.544   2.364  51.147  1.00  0.00     0.115 A 
HETATM    2  N1  UNL     1      23.792   1.804  51.149  1.00  0.00    -0.236 NA
HETATM    3  C6  UNL     1      24.733   2.735  50.921  1.00  0.00     0.071 A 
HETATM    4  C17 UNL     1      24.023   3.885  50.778  1.00  0.00     0.111 A 
HETATM    5  C18 UNL     1      24.423   5.178  50.527  1.00  0.00     0.150 A 
HETATM    6  N3  UNL     1      23.579   6.226  50.409  1.00  0.00    -0.240 NA
HETATM    7  C19 UNL     1      22.240   6.021  50.545  1.00  0.00     0.136 A 
HETATM    8  C20 UNL     1      21.861   4.731  50.795  1.00  0.00     0.118 A 
HETATM    9  N4  UNL     1      22.699   3.691  50.910  1.00  0.00    -0.303 N 
ENDROOT
BRANCH   3  10
HETATM   10  C7  UNL     1      26.177   2.467  50.871  1.00  0.00     0.089 C 
BRANCH  10  11
HETATM   11  C8  UNL     1      26.442   1.184  51.564  1.00  0.00    -0.012 C 
HETATM   12  C9  UNL     1      26.960   0.791  52.757  1.00  0.00    -0.039 C 
HETATM   13  C10 UNL     1      27.555   0.962  54.084  1.00  0.00    -0.046 C 
HETATM   14  C13 UNL     1      27.055  -0.674  53.052  1.00  0.00     0.039 C 
HETATM   15  C11 UNL     1      26.668   0.543  54.991  1.00  0.00    -0.017 C 
HETATM   16  C16 UNL     1      28.996   1.479  54.273  1.00  0.00     0.103 C 
HETATM   17  C12 UNL     1      26.205  -0.733  54.301  1.00  0.00     0.049 C 
HETATM   18  S1  UNL     1      29.790  -0.067  53.594  1.00  0.00    -0.205 SA
HETATM   19  C15 UNL     1      28.477  -1.047  53.293  1.00  0.00     0.022 C 
HETATM   20  H17 UNL     1      30.301   0.277  52.346  1.00  0.00     0.095 HD
BRANCH  14  21
HETATM   21  C14 UNL     1      26.459  -1.529  51.948  1.00  0.00     0.241 C 
HETATM   22  F1  UNL     1      26.974  -2.806  52.114  1.00  0.00    -0.254 F 
ENDBRANCH  14  21
ENDBRANCH  10  11
ENDBRANCH   3  10
BRANCH   1  23
HETATM   23  C4  UNL     1      21.281   1.650  51.361  1.00  0.00     0.061 C 
HETATM   24  C3  UNL     1      21.295   0.173  51.393  1.00  0.00     0.049 C 
HETATM   25  C2  UNL     1      20.369   0.229  52.583  1.00  0.00     0.056 C 
HETATM   26  C1  UNL     1      18.922   0.029  52.172  1.00  0.00     0.045 C 
HETATM   27  C21 UNL     1      20.660   1.705  52.702  1.00  0.00     0.049 C 
BRANCH  25  28
HETATM   28  O1  UNL     1      20.760  -0.540  53.669  1.00  0.00    -0.390 OA
HETATM   29  H4  UNL     1      19.972  -0.858  54.138  1.00  0.00     0.210 HD
ENDBRANCH  25  28
ENDBRANCH   1  23
BRANCH   5  30
HETATM   30  N2  UNL     1      25.796   5.487  50.360  1.00  0.00    -0.382 N 
HETATM   31  H20 UNL     1      26.664   5.966  50.614  1.00  0.00     0.157 HD
HETATM   32  H21 UNL     1      26.692   5.374  49.848  1.00  0.00     0.157 HD
ENDBRANCH   5  30
TORSDOF 6
ENDMDL
MODEL 3
REMARK VINA RESULT:      -8.3      3.428      6.914
REMARK  6 active torsions:
REMARK  status: ('A' for Active; 'I' for Inactive)
REMARK    1  A    between atoms: C2_2  and  O1_3 
REMARK    2  A    between atoms: C4_5  and  C5_6 
REMARK    3  A    between atoms: C6_8  and  C7_9 
REMARK    4  A    between atoms: C7_9  and  C8_10 
REMARK    5  A    between atoms: C13_15  and  C14_16 
REMARK    6  A    between atoms: C18_22  and  N2_23 
ROOT
HETATM    1  C5  UNL     1      25.286   1.137  53.113  1.00  0.00     0.115 A 
HETATM    2  N1  UNL     1      25.089   2.465  52.852  1.00  0.00    -0.236 NA
HETATM    3  C6  UNL     1      23.780   2.739  52.734  1.00  0.00     0.071 A 
HETATM    4  C17 UNL     1      23.178   1.537  52.930  1.00  0.00     0.111 A 
HETATM    5  C18 UNL     1      21.851   1.172  52.929  1.00  0.00     0.150 A 
HETATM    6  N3  UNL     1      21.408  -0.087  53.143  1.00  0.00    -0.240 NA
HETATM    7  C19 UNL     1      22.310  -1.079  53.377  1.00  0.00     0.136 A 
HETATM    8  C20 UNL     1      23.624  -0.698  53.375  1.00  0.00     0.118 A 
HETATM    9  N4  UNL     1      24.062   0.551  53.162  1.00  0.00    -0.303 N 
ENDROOT
BRANCH   3  10
HETATM   10  C7  UNL     1      23.229   4.075  52.466  1.00  0.00     0.089 C 
BRANCH  10  11
HETATM   11  C8  UNL     1      23.997   4.688  51.356  1.00  0.00    -0.012 C 
HETATM   12  C9  UNL     1      23.983   5.861  50.671  1.00  0.00    -0.039 C 
HETATM   13  C10 UNL     1      23.521   7.206  50.321  1.00  0.00    -0.046 C 
HETATM   14  C13 UNL     1      24.977   6.062  49.570  1.00  0.00     0.039 C 
HETATM   15  C11 UNL     1      24.492   8.069  50.631  1.00  0.00    -0.017 C 
HETATM   16  C16 UNL     1      22.155   7.451  49.648  1.00  0.00     0.103 C 
HETATM   17  C12 UNL     1      25.685   7.291  50.093  1.00  0.00     0.049 C 
HETATM   18  S1  UNL     1      22.661   6.686  48.022  1.00  0.00    -0.205 SA
HETATM   19  C15 UNL     1      24.261   6.302  48.285  1.00  0.00     0.022 C 
HETATM   20  H17 UNL     1      21.987   5.471  47.940  1.00  0.00     0.095 HD
BRANCH  14  21
HETATM   21  C14 UNL     1      25.939   4.896  49.435  1.00  0.00     0.241 C 
HETATM   22  F1  UNL     1      26.863   5.254  48.464  1.00  0.00    -0.254 F 
ENDBRANCH  14  21
ENDBRANCH  10  11
ENDBRANCH   3  10
BRANCH   1  23
HETATM   23  C4  UNL     1      26.583   0.479  53.302  1.00  0.00     0.061 C 
HETATM   24  C3  UNL     1      27.812   1.214  52.939  1.00  0.00     0.049 C 
HETATM   25  C2  UNL     1      28.441   0.716  54.217  1.00  0.00     0.056 C 
HETATM   26  C1  UNL     1      29.311  -0.504  53.970  1.00  0.00     0.045 C 
HETATM   27  C21 UNL     1      27.075   0.275  54.681  1.00  0.00     0.049 C 
BRANCH  25  28
HETATM   28  O1  UNL     1      29.044   1.693  54.995  1.00  0.00    -0.390 OA
HETATM   29  H4  UNL     1      29.991   1.499  55.076  1.00  0.00     0.210 HD
ENDBRANCH  25  28
ENDBRANCH   1  23
BRANCH   5  30
HETATM   30  N2  UNL     1      20.840   2.134  52.685  1.00  0.00    -0.382 N 
HETATM   31  H20 UNL     1      19.920   2.556  52.840  1.00  0.00     0.157 HD
HETATM   32  H21 UNL     1      20.491   2.969  52.177  1.00  0.00     0.157 HD
ENDBRANCH   5  30
TORSDOF 6
ENDMDL
MODEL 4
REMARK VINA RESULT:      -8.3      3.687      6.992
REMARK  6 active torsions:
REMARK  status: ('A' for Active; 'I' for Inactive)
REMARK    1  A    between atoms: C2_2  and  O1_3 
REMARK    2  A    between atoms: C4_5  and  C5_6 
REMARK    3  A    between atoms: C6_8  and  C7_9 
REMARK    4  A    between atoms: C7_9  and  C8_10 
REMARK    5  A    between atoms: C13_15  and  C14_16 
REMARK    6  A    between atoms: C18_22  and  N2_23 
ROOT
HETATM    1  C5  UNL     1      24.325   0.449  53.015  1.00  0.00     0.115 A 
HETATM    2  N1  UNL     1      23.478   0.882  52.033  1.00  0.00    -0.236 NA
HETATM    3  C6  UNL     1      22.240   0.398  52.223  1.00  0.00     0.071 A 
HETATM    4  C17 UNL     1      22.353  -0.345  53.355  1.00  0.00     0.111 A 
HETATM    5  C18 UNL     1      21.428  -1.089  54.052  1.00  0.00     0.150 A 
HETATM    6  N3  UNL     1      21.705  -1.785  55.177  1.00  0.00    -0.240 NA
HETATM    7  C19 UNL     1      22.971  -1.766  55.678  1.00  0.00     0.136 A 
HETATM    8  C20 UNL     1      23.875  -1.021  54.972  1.00  0.00     0.118 A 
HETATM    9  N4  UNL     1      23.601  -0.332  53.856  1.00  0.00    -0.303 N 
ENDROOT
BRANCH   3  10
HETATM   10  C7  UNL     1      21.090   0.683  51.353  1.00  0.00     0.089 C 
BRANCH  10  11
HETATM   11  C8  UNL     1      21.516   1.646  50.309  1.00  0.00    -0.012 C 
HETATM   12  C9  UNL     1      22.107   2.869  50.272  1.00  0.00    -0.039 C 
HETATM   13  C10 UNL     1      22.719   4.082  50.819  1.00  0.00    -0.046 C 
HETATM   14  C13 UNL     1      22.351   3.508  48.941  1.00  0.00     0.039 C 
HETATM   15  C11 UNL     1      24.006   4.092  50.461  1.00  0.00    -0.017 C 
HETATM   16  C16 UNL     1      21.899   5.130  51.598  1.00  0.00     0.103 C 
HETATM   17  C12 UNL     1      23.854   3.662  49.009  1.00  0.00     0.049 C 
HETATM   18  S1  UNL     1      20.954   5.712  50.098  1.00  0.00    -0.205 SA
HETATM   19  C15 UNL     1      21.632   4.812  48.871  1.00  0.00     0.022 C 
HETATM   20  H17 UNL     1      19.657   5.233  50.248  1.00  0.00     0.095 HD
BRANCH  14  21
HETATM   21  C14 UNL     1      21.947   2.614  47.783  1.00  0.00     0.241 C 
HETATM   22  F1  UNL     1      23.081   1.902  47.417  1.00  0.00    -0.254 F 
ENDBRANCH  14  21
ENDBRANCH  10  11
ENDBRANCH   3  10
BRANCH   1  23
HETATM   23  C4  UNL     1      25.751   0.777  53.129  1.00  0.00     0.061 C 
HETATM   24  C3  UNL     1      26.576   0.792  51.903  1.00  0.00     0.049 C 
HETATM   25  C2  UNL     1      27.216   2.067  52.398  1.00  0.00     0.056 C 
HETATM   26  C1  UNL     1      28.546   1.794  53.077  1.00  0.00     0.045 C 
HETATM   27  C21 UNL     1      26.130   2.171  53.440  1.00  0.00     0.049 C 
BRANCH  25  28
HETATM   28  O1  UNL     1      27.253   3.102  51.476  1.00  0.00    -0.390 OA
HETATM   29  H4  UNL     1      28.162   3.216  51.158  1.00  0.00     0.210 HD
ENDBRANCH  25  28
ENDBRANCH   1  23
BRANCH   5  30
HETATM   30  N2  UNL     1      20.088  -1.177  53.602  1.00  0.00    -0.382 N 
HETATM   31  H20 UNL     1      19.075  -1.078  53.715  1.00  0.00     0.157 HD
HETATM   32  H21 UNL     1      19.396  -1.411  52.865  1.00  0.00     0.157 HD
ENDBRANCH   5  30
TORSDOF 6
ENDMDL
MODEL 5
REMARK VINA RESULT:      -8.3      3.325      6.419
REMARK  6 active torsions:
REMARK  status: ('A' for Active; 'I' for Inactive)
REMARK    1  A    between atoms: C2_2  and  O1_3 
REMARK    2  A    between atoms: C4_5  and  C5_6 
REMARK    3  A    between atoms: C6_8  and  C7_9 
REMARK    4  A    between atoms: C7_9  and  C8_10 
REMARK    5  A    between atoms: C13_15  and  C14_16 
REMARK    6  A    between atoms: C18_22  and  N2_23 
ROOT
HETATM    1  C5  UNL     1      25.381   1.344  53.232  1.00  0.00     0.115 A 
HETATM    2  N1  UNL     1      25.257   2.706  53.232  1.00  0.00    -0.236 NA
HETATM    3  C6  UNL     1      23.974   3.068  53.074  1.00  0.00     0.071 A 
HETATM    4  C17 UNL     1      23.313   1.885  52.976  1.00  0.00     0.111 A 
HETATM    5  C18 UNL     1      21.978   1.600  52.801  1.00  0.00     0.150 A 
HETATM    6  N3  UNL     1      21.472   0.349  52.720  1.00  0.00    -0.240 NA
HETATM    7  C19 UNL     1      22.314  -0.717  52.815  1.00  0.00     0.136 A 
HETATM    8  C20 UNL     1      23.636  -0.414  52.989  1.00  0.00     0.118 A 
HETATM    9  N4  UNL     1      24.137   0.827  53.068  1.00  0.00    -0.303 N 
ENDROOT
BRANCH   3  10
HETATM   10  C7  UNL     1      23.497   4.458  53.043  1.00  0.00     0.089 C 
BRANCH  10  11
HETATM   11  C8  UNL     1      23.603   4.962  51.652  1.00  0.00    -0.012 C 
HETATM   12  C9  UNL     1      24.089   4.506  50.469  1.00  0.00    -0.039 C 
HETATM   13  C10 UNL     1      24.731   3.557  49.556  1.00  0.00    -0.046 C 
HETATM   14  C13 UNL     1      23.993   5.391  49.265  1.00  0.00     0.039 C 
HETATM   15  C11 UNL     1      23.815   3.153  48.671  1.00  0.00    -0.017 C 
HETATM   16  C16 UNL     1      26.231   3.216  49.656  1.00  0.00     0.103 C 
HETATM   17  C12 UNL     1      23.171   4.498  48.363  1.00  0.00     0.049 C 
HETATM   18  S1  UNL     1      26.796   4.894  49.066  1.00  0.00    -0.205 SA
HETATM   19  C15 UNL     1      25.357   5.663  48.731  1.00  0.00     0.022 C 
HETATM   20  H17 UNL     1      27.322   5.539  50.182  1.00  0.00     0.095 HD
BRANCH  14  21
HETATM   21  C14 UNL     1      23.264   6.690  49.554  1.00  0.00     0.241 C 
HETATM   22  F1  UNL     1      24.239   7.651  49.782  1.00  0.00    -0.254 F 
ENDBRANCH  14  21
ENDBRANCH  10  11
ENDBRANCH   3  10
BRANCH   1  23
HETATM   23  C4  UNL     1      26.633   0.593  53.380  1.00  0.00     0.061 C 
HETATM   24  C3  UNL     1      27.907   1.262  53.044  1.00  0.00     0.049 C 
HETATM   25  C2  UNL     1      28.506   0.662  54.292  1.00  0.00     0.056 C 
HETATM   26  C1  UNL     1      29.291  -0.599  53.982  1.00  0.00     0.045 C 
HETATM   27  C21 UNL     1      27.115   0.291  54.745  1.00  0.00     0.049 C 
BRANCH  25  28
HETATM   28  O1  UNL     1      29.175   1.558  55.112  1.00  0.00    -0.390 OA
HETATM   29  H4  UNL     1      28.595   1.817  55.845  1.00  0.00     0.210 HD
ENDBRANCH  25  28
ENDBRANCH   1  23
BRANCH   5  30
HETATM   30  N2  UNL     1      21.027   2.644  52.682  1.00  0.00    -0.382 N 
HETATM   31  H20 UNL     1      20.586   3.518  52.978  1.00  0.00     0.157 HD
HETATM   32  H21 UNL     1      20.227   3.084  52.190  1.00  0.00     0.157 HD
ENDBRANCH   5  30
TORSDOF 6
ENDMDL
MODEL 6
REMARK VINA RESULT:      -8.3      3.381      6.910
REMARK  6 active torsions:
REMARK  status: ('A' for Active; 'I' for Inactive)
REMARK    1  A    between atoms: C2_2  and  O1_3 
REMARK    2  A    between atoms: C4_5  and  C5_6 
REMARK    3  A    between atoms: C6_8  and  C7_9 
REMARK    4  A    between atoms: C7_9  and  C8_10 
REMARK    5  A    between atoms: C13_15  and  C14_16 
REMARK    6  A    between atoms: C18_22  and  N2_23 
ROOT
HETATM    1  C5  UNL     1      25.269   0.062  53.201  1.00  0.00     0.115 A 
HETATM    2  N1  UNL     1      24.762   0.864  52.215  1.00  0.00    -0.236 NA
HETATM    3  C6  UNL     1      23.424   0.929  52.294  1.00  0.00     0.071 A 
HETATM    4  C17 UNL     1      23.124   0.140  53.360  1.00  0.00     0.111 A 
HETATM    5  C18 UNL     1      21.918  -0.192  53.936  1.00  0.00     0.150 A 
HETATM    6  N3  UNL     1      21.787  -1.004  55.009  1.00  0.00    -0.240 NA
HETATM    7  C19 UNL     1      22.901  -1.542  55.577  1.00  0.00     0.136 A 
HETATM    8  C20 UNL     1      24.088  -1.200  54.991  1.00  0.00     0.118 A 
HETATM    9  N4  UNL     1      24.218  -0.396  53.927  1.00  0.00    -0.303 N 
ENDROOT
BRANCH   3  10
HETATM   10  C7  UNL     1      22.572   1.715  51.391  1.00  0.00     0.089 C 
BRANCH  10  11
HETATM   11  C8  UNL     1      23.348   2.883  50.909  1.00  0.00    -0.012 C 
HETATM   12  C9  UNL     1      23.079   4.147  50.491  1.00  0.00    -0.039 C 
HETATM   13  C10 UNL     1      22.243   5.304  50.166  1.00  0.00    -0.046 C 
HETATM   14  C13 UNL     1      24.218   5.020  50.065  1.00  0.00     0.039 C 
HETATM   15  C11 UNL     1      22.525   6.275  51.040  1.00  0.00    -0.017 C 
HETATM   16  C16 UNL     1      21.289   5.308  48.955  1.00  0.00     0.103 C 
HETATM   17  C12 UNL     1      24.043   6.157  51.047  1.00  0.00     0.049 C 
HETATM   18  S1  UNL     1      22.664   5.350  47.694  1.00  0.00    -0.205 SA
HETATM   19  C15 UNL     1      24.027   5.438  48.647  1.00  0.00     0.022 C 
HETATM   20  H17 UNL     1      22.690   4.087  47.109  1.00  0.00     0.095 HD
BRANCH  14  21
HETATM   21  C14 UNL     1      25.567   4.348  50.246  1.00  0.00     0.241 C 
HETATM   22  F1  UNL     1      25.955   3.893  48.994  1.00  0.00    -0.254 F 
ENDBRANCH  14  21
ENDBRANCH  10  11
ENDBRANCH   3  10
BRANCH   1  23
HETATM   23  C4  UNL     1      26.688  -0.240  53.420  1.00  0.00     0.061 C 
HETATM   24  C3  UNL     1      27.659   0.095  52.358  1.00  0.00     0.049 C 
HETATM   25  C2  UNL     1      28.583   0.627  53.425  1.00  0.00     0.056 C 
HETATM   26  C1  UNL     1      29.633  -0.398  53.815  1.00  0.00     0.045 C 
HETATM   27  C21 UNL     1      27.436   0.571  54.404  1.00  0.00     0.049 C 
BRANCH  25  28
HETATM   28  O1  UNL     1      29.093   1.895  53.184  1.00  0.00    -0.390 OA
HETATM   29  H4  UNL     1      29.042   2.085  52.234  1.00  0.00     0.210 HD
ENDBRANCH  25  28
ENDBRANCH   1  23
BRANCH   5  30
HETATM   30  N2  UNL     1      20.704   0.312  53.408  1.00  0.00    -0.382 N 
HETATM   31  H20 UNL     1      19.962   0.361  52.704  1.00  0.00     0.157 HD
HETATM   32  H21 UNL     1      19.883   0.943  53.474  1.00  0.00     0.157 HD
ENDBRANCH   5  30
TORSDOF 6
ENDMDL
MODEL 7
REMARK VINA RESULT:      -8.2      3.280      6.037
REMARK  6 active torsions:
REMARK  status: ('A' for Active; 'I' for Inactive)
REMARK    1  A    between atoms: C2_2  and  O1_3 
REMARK    2  A    between atoms: C4_5  and  C5_6 
REMARK    3  A    between atoms: C6_8  and  C7_9 
REMARK    4  A    between atoms: C7_9  and  C8_10 
REMARK    5  A    between atoms: C13_15  and  C14_16 
REMARK    6  A    between atoms: C18_22  and  N2_23 
ROOT
HETATM    1  C5  UNL     1      24.221   0.397  52.952  1.00  0.00     0.115 A 
HETATM    2  N1  UNL     1      24.183   1.306  51.931  1.00  0.00    -0.236 NA
HETATM    3  C6  UNL     1      25.336   1.990  51.858  1.00  0.00     0.071 A 
HETATM    4  C17 UNL     1      26.084   1.473  52.868  1.00  0.00     0.111 A 
HETATM    5  C18 UNL     1      27.357   1.766  53.301  1.00  0.00     0.150 A 
HETATM    6  N3  UNL     1      27.967   1.153  54.340  1.00  0.00    -0.240 NA
HETATM    7  C19 UNL     1      27.304   0.177  55.020  1.00  0.00     0.136 A 
HETATM    8  C20 UNL     1      26.041  -0.100  54.575  1.00  0.00     0.118 A 
HETATM    9  N4  UNL     1      25.436   0.509  53.546  1.00  0.00    -0.303 N 
ENDROOT
BRANCH   3  10
HETATM   10  C7  UNL     1      25.627   3.032  50.864  1.00  0.00     0.089 C 
BRANCH  10  11
HETATM   11  C8  UNL     1      24.455   3.165  49.964  1.00  0.00    -0.012 C 
HETATM   12  C9  UNL     1      23.515   4.107  49.696  1.00  0.00    -0.039 C 
HETATM   13  C10 UNL     1      22.829   5.395  49.824  1.00  0.00    -0.046 C 
HETATM   14  C13 UNL     1      22.464   3.802  48.674  1.00  0.00     0.039 C 
HETATM   15  C11 UNL     1      22.990   6.063  48.678  1.00  0.00    -0.017 C 
HETATM   16  C16 UNL     1      22.031   5.773  51.087  1.00  0.00     0.103 C 
HETATM   17  C12 UNL     1      22.728   4.927  47.699  1.00  0.00     0.049 C 
HETATM   18  S1  UNL     1      20.666   4.541  50.765  1.00  0.00    -0.205 SA
HETATM   19  C15 UNL     1      21.115   3.878  49.304  1.00  0.00     0.022 C 
HETATM   20  H17 UNL     1      20.828   3.529  51.707  1.00  0.00     0.095 HD
BRANCH  14  21
HETATM   21  C14 UNL     1      22.669   2.451  48.014  1.00  0.00     0.241 C 
HETATM   22  F1  UNL     1      21.903   1.540  48.727  1.00  0.00    -0.254 F 
ENDBRANCH  14  21
ENDBRANCH  10  11
ENDBRANCH   3  10
BRANCH   1  23
HETATM   23  C4  UNL     1      23.141  -0.522  53.327  1.00  0.00     0.061 C 
HETATM   24  C3  UNL     1      22.755  -0.623  54.750  1.00  0.00     0.049 C 
HETATM   25  C2  UNL     1      21.309  -0.607  54.319  1.00  0.00     0.056 C 
HETATM   26  C1  UNL     1      20.734  -2.010  54.247  1.00  0.00     0.045 C 
HETATM   27  C21 UNL     1      21.756  -0.175  52.944  1.00  0.00     0.049 C 
BRANCH  25  28
HETATM   28  O1  UNL     1      20.504   0.301  54.991  1.00  0.00    -0.390 OA
HETATM   29  H4  UNL     1      19.696   0.455  54.477  1.00  0.00     0.210 HD
ENDBRANCH  25  28
ENDBRANCH   1  23
BRANCH   5  30
HETATM   30  N2  UNL     1      28.121   2.774  52.662  1.00  0.00    -0.382 N 
HETATM   31  H20 UNL     1      28.269   3.720  52.299  1.00  0.00     0.157 HD
HETATM   32  H21 UNL     1      28.994   3.087  52.196  1.00  0.00     0.157 HD
ENDBRANCH   5  30
TORSDOF 6
ENDMDL
MODEL 8
REMARK VINA RESULT:      -8.1      3.324      6.842
REMARK  6 active torsions:
REMARK  status: ('A' for Active; 'I' for Inactive)
REMARK    1  A    between atoms: C2_2  and  O1_3 
REMARK    2  A    between atoms: C4_5  and  C5_6 
REMARK    3  A    between atoms: C6_8  and  C7_9 
REMARK    4  A    between atoms: C7_9  and  C8_10 
REMARK    5  A    between atoms: C13_15  and  C14_16 
REMARK    6  A    between atoms: C18_22  and  N2_23 
ROOT
HETATM    1  C5  UNL     1      24.558   0.304  52.989  1.00  0.00     0.115 A 
HETATM    2  N1  UNL     1      23.861   0.857  51.951  1.00  0.00    -0.236 NA
HETATM    3  C6  UNL     1      22.552   0.580  52.053  1.00  0.00     0.071 A 
HETATM    4  C17 UNL     1      22.466  -0.162  53.188  1.00  0.00     0.111 A 
HETATM    5  C18 UNL     1      21.387  -0.743  53.817  1.00  0.00     0.150 A 
HETATM    6  N3  UNL     1      21.470  -1.463  54.957  1.00  0.00    -0.240 NA
HETATM    7  C19 UNL     1      22.685  -1.642  55.546  1.00  0.00     0.136 A 
HETATM    8  C20 UNL     1      23.744  -1.057  54.907  1.00  0.00     0.118 A 
HETATM    9  N4  UNL     1      23.661  -0.344  53.775  1.00  0.00    -0.303 N 
ENDROOT
BRANCH   3  10
HETATM   10  C7  UNL     1      21.526   1.036  51.105  1.00  0.00     0.089 C 
BRANCH  10  11
HETATM   11  C8  UNL     1      21.703   2.491  50.882  1.00  0.00    -0.012 C 
HETATM   12  C9  UNL     1      22.445   3.285  50.067  1.00  0.00    -0.039 C 
HETATM   13  C10 UNL     1      23.414   3.596  49.015  1.00  0.00    -0.046 C 
HETATM   14  C13 UNL     1      22.311   4.771  50.196  1.00  0.00     0.039 C 
HETATM   15  C11 UNL     1      22.754   4.161  48.000  1.00  0.00    -0.017 C 
HETATM   16  C16 UNL     1      24.924   3.335  49.192  1.00  0.00     0.103 C 
HETATM   17  C12 UNL     1      21.859   5.104  48.792  1.00  0.00     0.049 C 
HETATM   18  S1  UNL     1      25.152   4.686  50.459  1.00  0.00    -0.205 SA
HETATM   19  C15 UNL     1      23.633   5.366  50.541  1.00  0.00     0.022 C 
HETATM   20  H17 UNL     1      25.347   4.044  51.678  1.00  0.00     0.095 HD
BRANCH  14  21
HETATM   21  C14 UNL     1      21.262   5.174  51.215  1.00  0.00     0.241 C 
HETATM   22  F1  UNL     1      21.915   5.288  52.434  1.00  0.00    -0.254 F 
ENDBRANCH  14  21
ENDBRANCH  10  11
ENDBRANCH   3  10
BRANCH   1  23
HETATM   23  C4  UNL     1      26.006   0.401  53.203  1.00  0.00     0.061 C 
HETATM   24  C3  UNL     1      26.884   0.626  52.036  1.00  0.00     0.049 C 
HETATM   25  C2  UNL     1      27.652   1.632  52.857  1.00  0.00     0.056 C 
HETATM   26  C1  UNL     1      28.905   1.021  53.457  1.00  0.00     0.045 C 
HETATM   27  C21 UNL     1      26.540   1.604  53.877  1.00  0.00     0.049 C 
BRANCH  25  28
HETATM   28  O1  UNL     1      27.859   2.858  52.242  1.00  0.00    -0.390 OA
HETATM   29  H4  UNL     1      27.802   3.564  52.906  1.00  0.00     0.210 HD
ENDBRANCH  25  28
ENDBRANCH   1  23
BRANCH   5  30
HETATM   30  N2  UNL     1      20.084  -0.620  53.274  1.00  0.00    -0.382 N 
HETATM   31  H20 UNL     1      19.399  -0.241  52.615  1.00  0.00     0.157 HD
HETATM   32  H21 UNL     1      19.079  -0.874  53.273  1.00  0.00     0.157 HD
ENDBRANCH   5  30
TORSDOF 6
ENDMDL
MODEL 9
REMARK VINA RESULT:      -7.9      3.244      5.877
REMARK  6 active torsions:
REMARK  status: ('A' for Active; 'I' for Inactive)
REMARK    1  A    between atoms: C2_2  and  O1_3 
REMARK    2  A    between atoms: C4_5  and  C5_6 
REMARK    3  A    between atoms: C6_8  and  C7_9 
REMARK    4  A    between atoms: C7_9  and  C8_10 
REMARK    5  A    between atoms: C13_15  and  C14_16 
REMARK    6  A    between atoms: C18_22  and  N2_23 
ROOT
HETATM    1  C5  UNL     1      24.222   0.421  52.870  1.00  0.00     0.115 A 
HETATM    2  N1  UNL     1      24.283   1.278  51.806  1.00  0.00    -0.236 NA
HETATM    3  C6  UNL     1      25.460   1.923  51.780  1.00  0.00     0.071 A 
HETATM    4  C17 UNL     1      26.120   1.436  52.863  1.00  0.00     0.111 A 
HETATM    5  C18 UNL     1      27.371   1.713  53.368  1.00  0.00     0.150 A 
HETATM    6  N3  UNL     1      27.889   1.135  54.474  1.00  0.00    -0.240 NA
HETATM    7  C19 UNL     1      27.150   0.216  55.153  1.00  0.00     0.136 A 
HETATM    8  C20 UNL     1      25.911  -0.047  54.636  1.00  0.00     0.118 A 
HETATM    9  N4  UNL     1      25.397   0.527  53.540  1.00  0.00    -0.303 N 
ENDROOT
BRANCH   3  10
HETATM   10  C7  UNL     1      25.851   2.905  50.758  1.00  0.00     0.089 C 
BRANCH  10  11
HETATM   11  C8  UNL     1      24.893   4.036  50.801  1.00  0.00    -0.012 C 
HETATM   12  C9  UNL     1      23.604   4.256  50.436  1.00  0.00    -0.039 C 
HETATM   13  C10 UNL     1      22.288   3.923  49.886  1.00  0.00    -0.046 C 
HETATM   14  C13 UNL     1      23.015   5.614  50.664  1.00  0.00     0.039 C 
HETATM   15  C11 UNL     1      21.402   3.959  50.885  1.00  0.00    -0.017 C 
HETATM   16  C16 UNL     1      22.074   3.665  48.381  1.00  0.00     0.103 C 
HETATM   17  C12 UNL     1      21.863   5.239  51.568  1.00  0.00     0.049 C 
HETATM   18  S1  UNL     1      22.354   5.444  47.892  1.00  0.00    -0.205 SA
HETATM   19  C15 UNL     1      22.573   6.194  49.364  1.00  0.00     0.022 C 
HETATM   20  H17 UNL     1      23.592   5.481  47.259  1.00  0.00     0.095 HD
BRANCH  14  21
HETATM   21  C14 UNL     1      23.976   6.554  51.368  1.00  0.00     0.241 C 
HETATM   22  F1  UNL     1      23.526   7.843  51.117  1.00  0.00    -0.254 F 
ENDBRANCH  14  21
ENDBRANCH  10  11
ENDBRANCH   3  10
BRANCH   1  23
HETATM   23  C4  UNL     1      23.089  -0.445  53.214  1.00  0.00     0.061 C 
HETATM   24  C3  UNL     1      22.740  -0.628  54.638  1.00  0.00     0.049 C 
HETATM   25  C2  UNL     1      21.286  -0.477  54.261  1.00  0.00     0.056 C 
HETATM   26  C1  UNL     1      20.609  -1.826  54.106  1.00  0.00     0.045 C 
HETATM   27  C21 UNL     1      21.722   0.027  52.907  1.00  0.00     0.049 C 
BRANCH  25  28
HETATM   28  O1  UNL     1      20.571   0.431  55.027  1.00  0.00    -0.390 OA
HETATM   29  H4  UNL     1      20.193   1.112  54.448  1.00  0.00     0.210 HD
ENDBRANCH  25  28
ENDBRANCH   1  23
BRANCH   5  30
HETATM   30  N2  UNL     1      28.209   2.664  52.734  1.00  0.00    -0.382 N 
HETATM   31  H20 UNL     1      28.926   3.394  52.731  1.00  0.00     0.157 HD
HETATM   32  H21 UNL     1      28.544   3.144  51.878  1.00  0.00     0.157 HD
ENDBRANCH   5  30
TORSDOF 6
ENDMDL
