MODEL 1
REMARK VINA RESULT:      -9.0      0.000      0.000
REMARK  6 active torsions:
REMARK  status: ('A' for Active; 'I' for Inactive)
REMARK    1  A    between atoms: C5_5  and  N1_6 
REMARK    2  A    between atoms: N1_6  and  C6_7 
REMARK    3  A    between atoms: C10_11  and  N2_12 
REMARK    4  A    between atoms: N2_12  and  C12_14 
REMARK    5  A    between atoms: C22_27  and  S1_28 
REMARK    6  A    between atoms: S1_28  and  N6_29 
ROOT
HETATM    1  C6  UNL     1      19.890   2.309  51.023  1.00  0.00     0.143 A 
HETATM    2  C7  UNL     1      18.993   3.381  51.534  1.00  0.00     0.070 C 
HETATM    3  C8  UNL     1      19.186   1.027  50.948  1.00  0.00     0.032 A 
HETATM    4  C9  UNL     1      19.700   0.141  51.787  1.00  0.00     0.051 A 
HETATM    5  C10 UNL     1      20.774   0.837  52.442  1.00  0.00     0.127 A 
HETATM    6  N5  UNL     1      20.911   2.053  52.042  1.00  0.00    -0.237 NA
ENDROOT
BRANCH   1   7
HETATM    7  N1  UNL     1      20.580   2.653  49.803  1.00  0.00    -0.359 N 
HETATM    8  H6  UNL     1      20.085   2.488  48.900  1.00  0.00     0.162 HD
BRANCH   7   9
HETATM    9  C5  UNL     1      21.872   3.191  49.809  1.00  0.00     0.031 A 
HETATM   10  C4  UNL     1      22.981   2.437  49.487  1.00  0.00     0.030 A 
HETATM   11  C3  UNL     1      24.234   3.047  49.517  1.00  0.00     0.010 A 
HETATM   12  C2  UNL     1      24.443   4.381  49.852  1.00  0.00    -0.039 A 
HETATM   13  C1  UNL     1      25.806   4.966  49.863  1.00  0.00     0.050 C 
HETATM   14  C22 UNL     1      23.326   5.131  50.173  1.00  0.00     0.082 A 
HETATM   15  C21 UNL     1      22.088   4.514  50.141  1.00  0.00     0.054 A 
BRANCH  14  16
HETATM   16  S1  UNL     1      23.511   6.809  50.604  1.00  0.00     0.239 S 
HETATM   17  O1  UNL     1      22.158   7.407  50.886  1.00  0.00    -0.206 OA
HETATM   18  O2  UNL     1      24.107   7.591  49.463  1.00  0.00    -0.206 OA
BRANCH  16  19
HETATM   19  N6  UNL     1      24.461   6.980  52.034  1.00  0.00    -0.225 NA
HETATM   20  H25 UNL     1      25.194   7.707  51.815  1.00  0.00     0.136 HD
HETATM   21  H26 UNL     1      23.874   7.419  52.788  1.00  0.00     0.136 HD
ENDBRANCH  16  19
ENDBRANCH  14  16
ENDBRANCH   7   9
ENDBRANCH   1   7
BRANCH   5  22
HETATM   22  N2  UNL     1      21.593   0.212  53.440  1.00  0.00    -0.336 N 
HETATM   23  C11 UNL     1      21.203  -0.689  54.535  1.00  0.00     0.158 C 
BRANCH  22  24
HETATM   24  C12 UNL     1      22.992   0.492  53.382  1.00  0.00     0.037 A 
HETATM   25  C13 UNL     1      23.468   1.752  53.078  1.00  0.00     0.031 A 
HETATM   26  C14 UNL     1      24.804   2.094  53.005  1.00  0.00     0.018 A 
HETATM   27  C15 UNL     1      25.744   1.110  53.253  1.00  0.00     0.018 A 
HETATM   28  C16 UNL     1      27.122   1.043  53.280  1.00  0.00     0.039 A 
HETATM   29  C19 UNL     1      25.306  -0.158  53.559  1.00  0.00     0.091 A 
HETATM   30  C17 UNL     1      28.026   2.206  53.003  1.00  0.00     0.071 C 
HETATM   31  N3  UNL     1      27.502  -0.206  53.587  1.00  0.00    -0.277 N 
HETATM   32  C18 UNL     1      28.865  -0.700  53.718  1.00  0.00     0.179 C 
HETATM   33  N4  UNL     1      26.400  -0.917  53.752  1.00  0.00    -0.172 NA
HETATM   34  C20 UNL     1      23.961  -0.460  53.622  1.00  0.00     0.064 A 
ENDBRANCH  22  24
ENDBRANCH   5  22
TORSDOF 6
ENDMDL
MODEL 2
REMARK VINA RESULT:      -8.9      4.022      7.154
REMARK  6 active torsions:
REMARK  status: ('A' for Active; 'I' for Inactive)
REMARK    1  A    between atoms: C5_5  and  N1_6 
REMARK    2  A    between atoms: N1_6  and  C6_7 
REMARK    3  A    between atoms: C10_11  and  N2_12 
REMARK    4  A    between atoms: N2_12  and  C12_14 
REMARK    5  A    between atoms: C22_27  and  S1_28 
REMARK    6  A    between atoms: S1_28  and  N6_29 
ROOT
HETATM    1  C6  UNL     1      22.629   3.701  50.685  1.00  0.00     0.143 A 
HETATM    2  C7  UNL     1      21.141   3.722  50.682  1.00  0.00     0.070 C 
HETATM    3  C8  UNL     1      23.161   4.368  51.875  1.00  0.00     0.032 A 
HETATM    4  C9  UNL     1      23.837   5.462  51.557  1.00  0.00     0.051 A 
HETATM    5  C10 UNL     1      23.761   5.535  50.123  1.00  0.00     0.127 A 
HETATM    6  N5  UNL     1      23.094   4.568  49.599  1.00  0.00    -0.237 NA
ENDROOT
BRANCH   1   7
HETATM    7  N1  UNL     1      23.199   2.394  50.462  1.00  0.00    -0.359 N 
HETATM    8  H6  UNL     1      23.253   2.046  49.481  1.00  0.00     0.162 HD
BRANCH   7   9
HETATM    9  C5  UNL     1      23.670   1.602  51.517  1.00  0.00     0.031 A 
HETATM   10  C4  UNL     1      22.849   0.728  52.199  1.00  0.00     0.030 A 
HETATM   11  C3  UNL     1      23.395  -0.026  53.237  1.00  0.00     0.010 A 
HETATM   12  C2  UNL     1      24.726   0.045  53.635  1.00  0.00    -0.039 A 
HETATM   13  C1  UNL     1      25.239  -0.787  54.750  1.00  0.00     0.050 C 
HETATM   14  C22 UNL     1      25.542   0.924  52.946  1.00  0.00     0.082 A 
HETATM   15  C21 UNL     1      24.989   1.667  51.918  1.00  0.00     0.054 A 
BRANCH  14  16
HETATM   16  S1  UNL     1      27.221   1.066  53.390  1.00  0.00     0.239 S 
HETATM   17  O1  UNL     1      27.966  -0.162  52.937  1.00  0.00    -0.206 OA
HETATM   18  O2  UNL     1      27.373   1.145  54.886  1.00  0.00    -0.206 OA
BRANCH  16  19
HETATM   19  N6  UNL     1      27.952   2.427  52.621  1.00  0.00    -0.225 NA
HETATM   20  H25 UNL     1      28.880   2.573  53.101  1.00  0.00     0.136 HD
HETATM   21  H26 UNL     1      28.204   2.171  51.633  1.00  0.00     0.136 HD
ENDBRANCH  16  19
ENDBRANCH  14  16
ENDBRANCH   7   9
ENDBRANCH   1   7
BRANCH   5  22
HETATM   22  N2  UNL     1      24.378   6.595  49.379  1.00  0.00    -0.336 N 
HETATM   23  C11 UNL     1      23.801   7.863  48.911  1.00  0.00     0.158 C 
BRANCH  22  24
HETATM   24  C12 UNL     1      25.751   6.412  49.030  1.00  0.00     0.037 A 
HETATM   25  C13 UNL     1      26.316   5.155  48.939  1.00  0.00     0.031 A 
HETATM   26  C14 UNL     1      27.633   4.905  48.607  1.00  0.00     0.018 A 
HETATM   27  C15 UNL     1      28.456   5.983  48.345  1.00  0.00     0.018 A 
HETATM   28  C16 UNL     1      29.780   6.156  47.993  1.00  0.00     0.039 A 
HETATM   29  C19 UNL     1      27.928   7.252  48.426  1.00  0.00     0.091 A 
HETATM   30  C17 UNL     1      30.749   5.030  47.791  1.00  0.00     0.071 C 
HETATM   31  N3  UNL     1      30.042   7.464  47.867  1.00  0.00    -0.277 N 
HETATM   32  C18 UNL     1      31.315   8.073  47.509  1.00  0.00     0.179 C 
HETATM   33  N4  UNL     1      28.919   8.111  48.131  1.00  0.00    -0.172 NA
HETATM   34  C20 UNL     1      26.606   7.461  48.761  1.00  0.00     0.064 A 
ENDBRANCH  22  24
ENDBRANCH   5  22
TORSDOF 6
ENDMDL
MODEL 3
REMARK VINA RESULT:      -8.9      2.038      2.839
REMARK  6 active torsions:
REMARK  status: ('A' for Active; 'I' for Inactive)
REMARK    1  A    between atoms: C5_5  and  N1_6 
REMARK    2  A    between atoms: N1_6  and  C6_7 
REMARK    3  A    between atoms: C10_11  and  N2_12 
REMARK    4  A    between atoms: N2_12  and  C12_14 
REMARK    5  A    between atoms: C22_27  and  S1_28 
REMARK    6  A    between atoms: S1_28  and  N6_29 
ROOT
HETATM    1  C6  UNL     1      22.563   3.712  51.510  1.00  0.00     0.143 A 
HETATM    2  C7  UNL     1      22.718   4.912  52.377  1.00  0.00     0.070 C 
HETATM    3  C8  UNL     1      21.234   3.117  51.670  1.00  0.00     0.032 A 
HETATM    4  C9  UNL     1      21.305   1.906  52.201  1.00  0.00     0.051 A 
HETATM    5  C10 UNL     1      22.710   1.677  52.403  1.00  0.00     0.127 A 
HETATM    6  N5  UNL     1      23.446   2.664  52.030  1.00  0.00    -0.237 NA
ENDROOT
BRANCH   1   7
HETATM    7  N1  UNL     1      22.926   3.933  50.131  1.00  0.00    -0.359 N 
HETATM    8  H6  UNL     1      22.173   3.871  49.413  1.00  0.00     0.162 HD
BRANCH   7   9
HETATM    9  C5  UNL     1      24.242   4.222  49.748  1.00  0.00     0.031 A 
HETATM   10  C4  UNL     1      25.210   3.244  49.660  1.00  0.00     0.030 A 
HETATM   11  C3  UNL     1      26.497   3.614  49.272  1.00  0.00     0.010 A 
HETATM   12  C2  UNL     1      26.873   4.917  48.964  1.00  0.00    -0.039 A 
HETATM   13  C1  UNL     1      28.262   5.239  48.557  1.00  0.00     0.050 C 
HETATM   14  C22 UNL     1      25.896   5.892  49.055  1.00  0.00     0.082 A 
HETATM   15  C21 UNL     1      24.623   5.513  49.442  1.00  0.00     0.054 A 
BRANCH  14  16
HETATM   16  S1  UNL     1      26.295   7.547  48.685  1.00  0.00     0.239 S 
HETATM   17  O1  UNL     1      25.067   8.406  48.836  1.00  0.00    -0.206 OA
HETATM   18  O2  UNL     1      26.751   7.680  47.256  1.00  0.00    -0.206 OA
BRANCH  16  19
HETATM   19  N6  UNL     1      27.488   8.155  49.773  1.00  0.00    -0.225 NA
HETATM   20  H25 UNL     1      28.148   7.354  49.964  1.00  0.00     0.136 HD
HETATM   21  H26 UNL     1      28.078   8.869  49.275  1.00  0.00     0.136 HD
ENDBRANCH  16  19
ENDBRANCH  14  16
ENDBRANCH   7   9
ENDBRANCH   1   7
BRANCH   5  22
HETATM   22  N2  UNL     1      23.211   0.458  52.970  1.00  0.00    -0.336 N 
HETATM   23  C11 UNL     1      22.476  -0.737  53.408  1.00  0.00     0.158 C 
BRANCH  22  24
HETATM   24  C12 UNL     1      24.626   0.372  53.144  1.00  0.00     0.037 A 
HETATM   25  C13 UNL     1      25.327  -0.777  52.832  1.00  0.00     0.031 A 
HETATM   26  C14 UNL     1      26.692  -0.931  52.975  1.00  0.00     0.018 A 
HETATM   27  C15 UNL     1      27.421   0.136  53.465  1.00  0.00     0.018 A 
HETATM   28  C16 UNL     1      28.750   0.381  53.745  1.00  0.00     0.039 A 
HETATM   29  C19 UNL     1      26.756   1.298  53.786  1.00  0.00     0.091 A 
HETATM   30  C17 UNL     1      29.849  -0.619  53.545  1.00  0.00     0.071 C 
HETATM   31  N3  UNL     1      28.885   1.629  54.215  1.00  0.00    -0.277 N 
HETATM   32  C18 UNL     1      30.119   2.282  54.628  1.00  0.00     0.179 C 
HETATM   33  N4  UNL     1      27.678   2.169  54.234  1.00  0.00    -0.172 NA
HETATM   34  C20 UNL     1      25.391   1.412  53.629  1.00  0.00     0.064 A 
ENDBRANCH  22  24
ENDBRANCH   5  22
TORSDOF 6
ENDMDL
MODEL 4
REMARK VINA RESULT:      -8.8      4.678      7.633
REMARK  6 active torsions:
REMARK  status: ('A' for Active; 'I' for Inactive)
REMARK    1  A    between atoms: C5_5  and  N1_6 
REMARK    2  A    between atoms: N1_6  and  C6_7 
REMARK    3  A    between atoms: C10_11  and  N2_12 
REMARK    4  A    between atoms: N2_12  and  C12_14 
REMARK    5  A    between atoms: C22_27  and  S1_28 
REMARK    6  A    between atoms: S1_28  and  N6_29 
ROOT
HETATM    1  C6  UNL     1      23.958   5.199  49.375  1.00  0.00     0.143 A 
HETATM    2  C7  UNL     1      22.510   5.392  49.090  1.00  0.00     0.070 C 
HETATM    3  C8  UNL     1      24.321   5.782  50.669  1.00  0.00     0.032 A 
HETATM    4  C9  UNL     1      25.163   6.795  50.525  1.00  0.00     0.051 A 
HETATM    5  C10 UNL     1      25.374   6.897  49.107  1.00  0.00     0.127 A 
HETATM    6  N5  UNL     1      24.717   6.022  48.430  1.00  0.00    -0.237 NA
ENDROOT
BRANCH   1   7
HETATM    7  N1  UNL     1      24.412   3.838  49.217  1.00  0.00    -0.359 N 
HETATM    8  H6  UNL     1      24.774   3.550  48.282  1.00  0.00     0.162 HD
BRANCH   7   9
HETATM    9  C5  UNL     1      24.376   2.918  50.272  1.00  0.00     0.031 A 
HETATM   10  C4  UNL     1      23.240   2.196  50.576  1.00  0.00     0.030 A 
HETATM   11  C3  UNL     1      23.285   1.300  51.642  1.00  0.00     0.010 A 
HETATM   12  C2  UNL     1      24.412   1.081  52.428  1.00  0.00    -0.039 A 
HETATM   13  C1  UNL     1      24.389   0.110  53.549  1.00  0.00     0.050 C 
HETATM   14  C22 UNL     1      25.547   1.808  52.117  1.00  0.00     0.082 A 
HETATM   15  C21 UNL     1      25.489   2.696  51.057  1.00  0.00     0.054 A 
BRANCH  14  16
HETATM   16  S1  UNL     1      26.996   1.587  53.060  1.00  0.00     0.239 S 
HETATM   17  O1  UNL     1      27.551   0.209  52.811  1.00  0.00    -0.206 OA
HETATM   18  O2  UNL     1      26.694   1.679  54.532  1.00  0.00    -0.206 OA
BRANCH  16  19
HETATM   19  N6  UNL     1      28.210   2.724  52.605  1.00  0.00    -0.225 NA
HETATM   20  H25 UNL     1      28.150   3.514  53.302  1.00  0.00     0.136 HD
HETATM   21  H26 UNL     1      29.159   2.301  52.769  1.00  0.00     0.136 HD
ENDBRANCH  16  19
ENDBRANCH  14  16
ENDBRANCH   7   9
ENDBRANCH   1   7
BRANCH   5  22
HETATM   22  N2  UNL     1      26.236   7.889  48.533  1.00  0.00    -0.336 N 
HETATM   23  C11 UNL     1      25.894   9.187  47.933  1.00  0.00     0.158 C 
BRANCH  22  24
HETATM   24  C12 UNL     1      27.634   7.595  48.533  1.00  0.00     0.037 A 
HETATM   25  C13 UNL     1      28.577   8.550  48.859  1.00  0.00     0.031 A 
HETATM   26  C14 UNL     1      29.941   8.335  48.879  1.00  0.00     0.018 A 
HETATM   27  C15 UNL     1      30.409   7.077  48.551  1.00  0.00     0.018 A 
HETATM   28  C16 UNL     1      31.647   6.475  48.456  1.00  0.00     0.039 A 
HETATM   29  C19 UNL     1      29.498   6.099  48.221  1.00  0.00     0.091 A 
HETATM   30  C17 UNL     1      32.945   7.174  48.731  1.00  0.00     0.071 C 
HETATM   31  N3  UNL     1      31.496   5.196  48.084  1.00  0.00    -0.277 N 
HETATM   32  C18 UNL     1      32.549   4.215  47.869  1.00  0.00     0.179 C 
HETATM   33  N4  UNL     1      30.198   4.984  47.947  1.00  0.00    -0.172 NA
HETATM   34  C20 UNL     1      28.142   6.353  48.212  1.00  0.00     0.064 A 
ENDBRANCH  22  24
ENDBRANCH   5  22
TORSDOF 6
ENDMDL
MODEL 5
REMARK VINA RESULT:      -8.8      1.864      5.636
REMARK  6 active torsions:
REMARK  status: ('A' for Active; 'I' for Inactive)
REMARK    1  A    between atoms: C5_5  and  N1_6 
REMARK    2  A    between atoms: N1_6  and  C6_7 
REMARK    3  A    between atoms: C10_11  and  N2_12 
REMARK    4  A    between atoms: N2_12  and  C12_14 
REMARK    5  A    between atoms: C22_27  and  S1_28 
REMARK    6  A    between atoms: S1_28  and  N6_29 
ROOT
HETATM    1  C6  UNL     1      25.734   0.041  53.347  1.00  0.00     0.143 A 
HETATM    2  C7  UNL     1      26.547  -0.858  52.484  1.00  0.00     0.070 C 
HETATM    3  C8  UNL     1      25.600  -0.508  54.698  1.00  0.00     0.032 A 
HETATM    4  C9  UNL     1      24.342  -0.817  54.974  1.00  0.00     0.051 A 
HETATM    5  C10 UNL     1      23.611  -0.469  53.786  1.00  0.00     0.127 A 
HETATM    6  N5  UNL     1      24.354   0.014  52.853  1.00  0.00    -0.237 NA
ENDROOT
BRANCH   1   7
HETATM    7  N1  UNL     1      26.166   1.418  53.333  1.00  0.00    -0.359 N 
HETATM    8  H6  UNL     1      26.709   1.767  54.152  1.00  0.00     0.162 HD
BRANCH   7   9
HETATM    9  C5  UNL     1      25.877   2.274  52.262  1.00  0.00     0.031 A 
HETATM   10  C4  UNL     1      26.656   2.311  51.124  1.00  0.00     0.030 A 
HETATM   11  C3  UNL     1      26.301   3.191  50.103  1.00  0.00     0.010 A 
HETATM   12  C2  UNL     1      25.204   4.044  50.156  1.00  0.00    -0.039 A 
HETATM   13  C1  UNL     1      24.885   4.956  49.031  1.00  0.00     0.050 C 
HETATM   14  C22 UNL     1      24.428   4.001  51.300  1.00  0.00     0.082 A 
HETATM   15  C21 UNL     1      24.790   3.124  52.308  1.00  0.00     0.054 A 
BRANCH  14  16
HETATM   16  S1  UNL     1      23.037   5.042  51.437  1.00  0.00     0.239 S 
HETATM   17  O1  UNL     1      22.300   4.729  52.713  1.00  0.00    -0.206 OA
HETATM   18  O2  UNL     1      22.076   4.800  50.304  1.00  0.00    -0.206 OA
BRANCH  16  19
HETATM   19  N6  UNL     1      23.509   6.700  51.506  1.00  0.00    -0.225 NA
HETATM   20  H25 UNL     1      23.068   7.095  52.380  1.00  0.00     0.136 HD
HETATM   21  H26 UNL     1      24.544   6.758  51.684  1.00  0.00     0.136 HD
ENDBRANCH  16  19
ENDBRANCH  14  16
ENDBRANCH   7   9
ENDBRANCH   1   7
BRANCH   5  22
HETATM   22  N2  UNL     1      22.192  -0.655  53.680  1.00  0.00    -0.336 N 
HETATM   23  C11 UNL     1      21.314  -1.566  54.429  1.00  0.00     0.158 C 
BRANCH  22  24
HETATM   24  C12 UNL     1      21.515   0.148  52.713  1.00  0.00     0.037 A 
HETATM   25  C13 UNL     1      21.587  -0.127  51.361  1.00  0.00     0.031 A 
HETATM   26  C14 UNL     1      20.960   0.605  50.373  1.00  0.00     0.018 A 
HETATM   27  C15 UNL     1      20.201   1.696  50.752  1.00  0.00     0.018 A 
HETATM   28  C16 UNL     1      19.444   2.649  50.101  1.00  0.00     0.039 A 
HETATM   29  C19 UNL     1      20.105   2.001  52.091  1.00  0.00     0.091 A 
HETATM   30  C17 UNL     1      19.261   2.705  48.614  1.00  0.00     0.071 C 
HETATM   31  N3  UNL     1      18.916   3.492  51.000  1.00  0.00    -0.277 N 
HETATM   32  C18 UNL     1      18.057   4.636  50.731  1.00  0.00     0.179 C 
HETATM   33  N4  UNL     1      19.322   3.090  52.192  1.00  0.00    -0.172 NA
HETATM   34  C20 UNL     1      20.748   1.245  53.049  1.00  0.00     0.064 A 
ENDBRANCH  22  24
ENDBRANCH   5  22
TORSDOF 6
ENDMDL
MODEL 6
REMARK VINA RESULT:      -8.7      3.462      7.078
REMARK  6 active torsions:
REMARK  status: ('A' for Active; 'I' for Inactive)
REMARK    1  A    between atoms: C5_5  and  N1_6 
REMARK    2  A    between atoms: N1_6  and  C6_7 
REMARK    3  A    between atoms: C10_11  and  N2_12 
REMARK    4  A    between atoms: N2_12  and  C12_14 
REMARK    5  A    between atoms: C22_27  and  S1_28 
REMARK    6  A    between atoms: S1_28  and  N6_29 
ROOT
HETATM    1  C6  UNL     1      23.808   4.499  51.537  1.00  0.00     0.143 A 
HETATM    2  C7  UNL     1      23.760   5.986  51.484  1.00  0.00     0.070 C 
HETATM    3  C8  UNL     1      24.694   3.965  50.501  1.00  0.00     0.032 A 
HETATM    4  C9  UNL     1      24.024   3.251  49.609  1.00  0.00     0.051 A 
HETATM    5  C10 UNL     1      22.657   3.302  50.053  1.00  0.00     0.127 A 
HETATM    6  N5  UNL     1      22.496   3.991  51.128  1.00  0.00    -0.237 NA
ENDROOT
BRANCH   1   7
HETATM    7  N1  UNL     1      24.082   3.966  52.850  1.00  0.00    -0.359 N 
HETATM    8  H6  UNL     1      23.863   4.565  53.675  1.00  0.00     0.162 HD
BRANCH   7   9
HETATM    9  C5  UNL     1      24.624   2.688  53.033  1.00  0.00     0.031 A 
HETATM   10  C4  UNL     1      23.849   1.549  52.973  1.00  0.00     0.030 A 
HETATM   11  C3  UNL     1      24.464   0.313  53.166  1.00  0.00     0.010 A 
HETATM   12  C2  UNL     1      25.822   0.150  53.417  1.00  0.00    -0.039 A 
HETATM   13  C1  UNL     1      26.411  -1.197  53.613  1.00  0.00     0.050 C 
HETATM   14  C22 UNL     1      26.593   1.297  53.476  1.00  0.00     0.082 A 
HETATM   15  C21 UNL     1      25.971   2.518  53.283  1.00  0.00     0.054 A 
BRANCH  14  16
HETATM   16  S1  UNL     1      28.303   1.170  53.787  1.00  0.00     0.239 S 
HETATM   17  O1  UNL     1      28.883   0.053  52.959  1.00  0.00    -0.206 OA
HETATM   18  O2  UNL     1      28.559   0.825  55.230  1.00  0.00    -0.206 OA
BRANCH  16  19
HETATM   19  N6  UNL     1      29.123   2.622  53.343  1.00  0.00    -0.225 NA
HETATM   20  H25 UNL     1      30.134   2.483  53.613  1.00  0.00     0.136 HD
HETATM   21  H26 UNL     1      29.140   2.702  52.295  1.00  0.00     0.136 HD
ENDBRANCH  16  19
ENDBRANCH  14  16
ENDBRANCH   7   9
ENDBRANCH   1   7
BRANCH   5  22
HETATM   22  N2  UNL     1      21.600   2.641  49.344  1.00  0.00    -0.336 N 
HETATM   23  C11 UNL     1      21.283   2.665  47.909  1.00  0.00     0.158 C 
BRANCH  22  24
HETATM   24  C12 UNL     1      20.713   1.839  50.126  1.00  0.00     0.037 A 
HETATM   25  C13 UNL     1      21.164   0.751  50.848  1.00  0.00     0.031 A 
HETATM   26  C14 UNL     1      20.366  -0.066  51.623  1.00  0.00     0.018 A 
HETATM   27  C15 UNL     1      19.015   0.215  51.690  1.00  0.00     0.018 A 
HETATM   28  C16 UNL     1      17.920  -0.334  52.327  1.00  0.00     0.039 A 
HETATM   29  C19 UNL     1      18.529   1.293  50.984  1.00  0.00     0.091 A 
HETATM   30  C17 UNL     1      17.982  -1.539  53.216  1.00  0.00     0.071 C 
HETATM   31  N3  UNL     1      16.823   0.375  52.021  1.00  0.00    -0.277 N 
HETATM   32  C18 UNL     1      15.465   0.130  52.483  1.00  0.00     0.179 C 
HETATM   33  N4  UNL     1      17.205   1.349  51.213  1.00  0.00    -0.172 NA
HETATM   34  C20 UNL     1      19.359   2.086  50.220  1.00  0.00     0.064 A 
ENDBRANCH  22  24
ENDBRANCH   5  22
TORSDOF 6
ENDMDL
MODEL 7
REMARK VINA RESULT:      -8.6      4.066      7.268
REMARK  6 active torsions:
REMARK  status: ('A' for Active; 'I' for Inactive)
REMARK    1  A    between atoms: C5_5  and  N1_6 
REMARK    2  A    between atoms: N1_6  and  C6_7 
REMARK    3  A    between atoms: C10_11  and  N2_12 
REMARK    4  A    between atoms: N2_12  and  C12_14 
REMARK    5  A    between atoms: C22_27  and  S1_28 
REMARK    6  A    between atoms: S1_28  and  N6_29 
ROOT
HETATM    1  C6  UNL     1      22.470   3.614  51.110  1.00  0.00     0.143 A 
HETATM    2  C7  UNL     1      21.013   3.334  51.229  1.00  0.00     0.070 C 
HETATM    3  C8  UNL     1      22.990   4.217  52.339  1.00  0.00     0.032 A 
HETATM    4  C9  UNL     1      23.409   5.456  52.132  1.00  0.00     0.051 A 
HETATM    5  C10 UNL     1      23.168   5.695  50.735  1.00  0.00     0.127 A 
HETATM    6  N5  UNL     1      22.643   4.689  50.130  1.00  0.00    -0.237 NA
ENDROOT
BRANCH   1   7
HETATM    7  N1  UNL     1      23.249   2.488  50.653  1.00  0.00    -0.359 N 
HETATM    8  H6  UNL     1      22.858   1.906  49.881  1.00  0.00     0.162 HD
BRANCH   7   9
HETATM    9  C5  UNL     1      24.493   2.172  51.214  1.00  0.00     0.031 A 
HETATM   10  C4  UNL     1      25.655   2.802  50.821  1.00  0.00     0.030 A 
HETATM   11  C3  UNL     1      26.853   2.430  51.428  1.00  0.00     0.010 A 
HETATM   12  C2  UNL     1      26.956   1.455  52.414  1.00  0.00    -0.039 A 
HETATM   13  C1  UNL     1      28.266   1.108  53.017  1.00  0.00     0.050 C 
HETATM   14  C22 UNL     1      25.787   0.827  52.803  1.00  0.00     0.082 A 
HETATM   15  C21 UNL     1      24.603   1.205  52.192  1.00  0.00     0.054 A 
BRANCH  14  16
HETATM   16  S1  UNL     1      25.839  -0.406  54.033  1.00  0.00     0.239 S 
HETATM   17  O1  UNL     1      26.602  -1.598  53.517  1.00  0.00    -0.206 OA
HETATM   18  O2  UNL     1      24.452  -0.884  54.369  1.00  0.00    -0.206 OA
BRANCH  16  19
HETATM   19  N6  UNL     1      26.657   0.160  55.443  1.00  0.00    -0.225 NA
HETATM   20  H25 UNL     1      25.905   0.451  56.123  1.00  0.00     0.136 HD
HETATM   21  H26 UNL     1      27.137  -0.649  55.912  1.00  0.00     0.136 HD
ENDBRANCH  16  19
ENDBRANCH  14  16
ENDBRANCH   7   9
ENDBRANCH   1   7
BRANCH   5  22
HETATM   22  N2  UNL     1      23.490   6.945  50.108  1.00  0.00    -0.336 N 
HETATM   23  C11 UNL     1      22.623   8.099  49.830  1.00  0.00     0.158 C 
BRANCH  22  24
HETATM   24  C12 UNL     1      24.844   7.114  49.684  1.00  0.00     0.037 A 
HETATM   25  C13 UNL     1      25.457   6.210  48.838  1.00  0.00     0.031 A 
HETATM   26  C14 UNL     1      26.759   6.311  48.388  1.00  0.00     0.018 A 
HETATM   27  C15 UNL     1      27.513   7.390  48.808  1.00  0.00     0.018 A 
HETATM   28  C16 UNL     1      28.800   7.840  48.597  1.00  0.00     0.039 A 
HETATM   29  C19 UNL     1      26.935   8.311  49.652  1.00  0.00     0.091 A 
HETATM   30  C17 UNL     1      29.804   7.139  47.731  1.00  0.00     0.071 C 
HETATM   31  N3  UNL     1      28.995   8.977  49.279  1.00  0.00    -0.277 N 
HETATM   32  C18 UNL     1      30.212   9.774  49.327  1.00  0.00     0.179 C 
HETATM   33  N4  UNL     1      27.864   9.248  49.909  1.00  0.00    -0.172 NA
HETATM   34  C20 UNL     1      25.630   8.175  50.080  1.00  0.00     0.064 A 
ENDBRANCH  22  24
ENDBRANCH   5  22
TORSDOF 6
ENDMDL
MODEL 8
REMARK VINA RESULT:      -8.6      2.384      5.803
REMARK  6 active torsions:
REMARK  status: ('A' for Active; 'I' for Inactive)
REMARK    1  A    between atoms: C5_5  and  N1_6 
REMARK    2  A    between atoms: N1_6  and  C6_7 
REMARK    3  A    between atoms: C10_11  and  N2_12 
REMARK    4  A    between atoms: N2_12  and  C12_14 
REMARK    5  A    between atoms: C22_27  and  S1_28 
REMARK    6  A    between atoms: S1_28  and  N6_29 
ROOT
HETATM    1  C6  UNL     1      25.453   2.620  51.609  1.00  0.00     0.143 A 
HETATM    2  C7  UNL     1      26.887   2.510  51.992  1.00  0.00     0.070 C 
HETATM    3  C8  UNL     1      24.700   3.383  52.607  1.00  0.00     0.032 A 
HETATM    4  C9  UNL     1      23.795   2.630  53.213  1.00  0.00     0.051 A 
HETATM    5  C10 UNL     1      23.938   1.331  52.612  1.00  0.00     0.127 A 
HETATM    6  N5  UNL     1      24.856   1.286  51.711  1.00  0.00    -0.237 NA
ENDROOT
BRANCH   1   7
HETATM    7  N1  UNL     1      25.239   3.082  50.259  1.00  0.00    -0.359 N 
HETATM    8  H6  UNL     1      24.568   2.553  49.662  1.00  0.00     0.162 HD
BRANCH   7   9
HETATM    9  C5  UNL     1      25.902   4.205  49.746  1.00  0.00     0.031 A 
HETATM   10  C4  UNL     1      27.054   4.095  48.995  1.00  0.00     0.030 A 
HETATM   11  C3  UNL     1      27.654   5.261  48.521  1.00  0.00     0.010 A 
HETATM   12  C2  UNL     1      27.164   6.540  48.758  1.00  0.00    -0.039 A 
HETATM   13  C1  UNL     1      27.855   7.739  48.223  1.00  0.00     0.050 C 
HETATM   14  C22 UNL     1      26.009   6.642  49.512  1.00  0.00     0.082 A 
HETATM   15  C21 UNL     1      25.423   5.478  49.978  1.00  0.00     0.054 A 
BRANCH  14  16
HETATM   16  S1  UNL     1      25.337   8.214  49.850  1.00  0.00     0.239 S 
HETATM   17  O1  UNL     1      24.127   8.064  50.734  1.00  0.00    -0.206 OA
HETATM   18  O2  UNL     1      24.875   8.881  48.582  1.00  0.00    -0.206 OA
BRANCH  16  19
HETATM   19  N6  UNL     1      26.472   9.205  50.692  1.00  0.00    -0.225 NA
HETATM   20  H25 UNL     1      27.352   8.629  50.787  1.00  0.00     0.136 HD
HETATM   21  H26 UNL     1      26.751  10.010  50.076  1.00  0.00     0.136 HD
ENDBRANCH  16  19
ENDBRANCH  14  16
ENDBRANCH   7   9
ENDBRANCH   1   7
BRANCH   5  22
HETATM   22  N2  UNL     1      23.125   0.216  53.002  1.00  0.00    -0.336 N 
HETATM   23  C11 UNL     1      23.461  -0.926  53.864  1.00  0.00     0.158 C 
BRANCH  22  24
HETATM   24  C12 UNL     1      21.792   0.190  52.488  1.00  0.00     0.037 A 
HETATM   25  C13 UNL     1      21.506   0.576  51.193  1.00  0.00     0.031 A 
HETATM   26  C14 UNL     1      20.244   0.576  50.631  1.00  0.00     0.018 A 
HETATM   27  C15 UNL     1      19.182   0.161  51.412  1.00  0.00     0.018 A 
HETATM   28  C16 UNL     1      17.821   0.018  51.236  1.00  0.00     0.039 A 
HETATM   29  C19 UNL     1      19.430  -0.231  52.708  1.00  0.00     0.091 A 
HETATM   30  C17 UNL     1      17.101   0.334  49.960  1.00  0.00     0.071 C 
HETATM   31  N3  UNL     1      17.269  -0.437  52.370  1.00  0.00    -0.277 N 
HETATM   32  C18 UNL     1      15.861  -0.723  52.607  1.00  0.00     0.179 C 
HETATM   33  N4  UNL     1      18.248  -0.582  53.246  1.00  0.00    -0.172 NA
HETATM   34  C20 UNL     1      20.705  -0.217  53.234  1.00  0.00     0.064 A 
ENDBRANCH  22  24
ENDBRANCH   5  22
TORSDOF 6
ENDMDL
MODEL 9
REMARK VINA RESULT:      -8.4      6.273      9.486
REMARK  6 active torsions:
REMARK  status: ('A' for Active; 'I' for Inactive)
REMARK    1  A    between atoms: C5_5  and  N1_6 
REMARK    2  A    between atoms: N1_6  and  C6_7 
REMARK    3  A    between atoms: C10_11  and  N2_12 
REMARK    4  A    between atoms: N2_12  and  C12_14 
REMARK    5  A    between atoms: C22_27  and  S1_28 
REMARK    6  A    between atoms: S1_28  and  N6_29 
ROOT
HETATM    1  C6  UNL     1      29.123   8.958  48.606  1.00  0.00     0.143 A 
HETATM    2  C7  UNL     1      29.055  10.443  48.528  1.00  0.00     0.070 C 
HETATM    3  C8  UNL     1      29.258   8.368  47.272  1.00  0.00     0.032 A 
HETATM    4  C9  UNL     1      28.198   7.642  46.953  1.00  0.00     0.051 A 
HETATM    5  C10 UNL     1      27.329   7.741  48.095  1.00  0.00     0.127 A 
HETATM    6  N5  UNL     1      27.811   8.470  49.039  1.00  0.00    -0.237 NA
ENDROOT
BRANCH   1   7
HETATM    7  N1  UNL     1      30.097   8.463  49.549  1.00  0.00    -0.359 N 
HETATM    8  H6  UNL     1      29.928   8.640  50.563  1.00  0.00     0.162 HD
BRANCH   7   9
HETATM    9  C5  UNL     1      31.238   7.763  49.138  1.00  0.00     0.031 A 
HETATM   10  C4  UNL     1      31.357   6.398  49.297  1.00  0.00     0.030 A 
HETATM   11  C3  UNL     1      32.525   5.776  48.861  1.00  0.00     0.010 A 
HETATM   12  C2  UNL     1      33.590   6.446  48.269  1.00  0.00    -0.039 A 
HETATM   13  C1  UNL     1      34.806   5.720  47.828  1.00  0.00     0.050 C 
HETATM   14  C22 UNL     1      33.464   7.815  48.113  1.00  0.00     0.082 A 
HETATM   15  C21 UNL     1      32.299   8.422  48.551  1.00  0.00     0.054 A 
BRANCH  14  16
HETATM   16  S1  UNL     1      34.759   8.721  47.381  1.00  0.00     0.239 S 
HETATM   17  O1  UNL     1      36.043   8.450  48.121  1.00  0.00    -0.206 OA
HETATM   18  O2  UNL     1      34.499  10.201  47.480  1.00  0.00    -0.206 OA
BRANCH  16  19
HETATM   19  N6  UNL     1      34.999   8.244  45.740  1.00  0.00    -0.225 NA
HETATM   20  H25 UNL     1      34.056   8.320  45.271  1.00  0.00     0.136 HD
HETATM   21  H26 UNL     1      35.592   8.963  45.254  1.00  0.00     0.136 HD
ENDBRANCH  16  19
ENDBRANCH  14  16
ENDBRANCH   7   9
ENDBRANCH   1   7
BRANCH   5  22
HETATM   22  N2  UNL     1      26.055   7.084  48.144  1.00  0.00    -0.336 N 
HETATM   23  C11 UNL     1      24.787   7.459  47.501  1.00  0.00     0.158 C 
BRANCH  22  24
HETATM   24  C12 UNL     1      25.984   5.891  48.926  1.00  0.00     0.037 A 
HETATM   25  C13 UNL     1      26.945   4.903  48.832  1.00  0.00     0.031 A 
HETATM   26  C14 UNL     1      26.940   3.727  49.556  1.00  0.00     0.018 A 
HETATM   27  C15 UNL     1      25.902   3.512  50.443  1.00  0.00     0.018 A 
HETATM   28  C16 UNL     1      25.543   2.508  51.320  1.00  0.00     0.039 A 
HETATM   29  C19 UNL     1      24.926   4.475  50.563  1.00  0.00     0.091 A 
HETATM   30  C17 UNL     1      26.328   1.247  51.522  1.00  0.00     0.071 C 
HETATM   31  N3  UNL     1      24.404   2.845  51.942  1.00  0.00    -0.277 N 
HETATM   32  C18 UNL     1      23.687   2.066  52.940  1.00  0.00     0.179 C 
HETATM   33  N4  UNL     1      24.045   4.030  51.477  1.00  0.00    -0.172 NA
HETATM   34  C20 UNL     1      24.966   5.637  49.822  1.00  0.00     0.064 A 
ENDBRANCH  22  24
ENDBRANCH   5  22
TORSDOF 6
ENDMDL
