MODEL 1
REMARK VINA RESULT:      -7.0      0.000      0.000
REMARK  5 active torsions:
REMARK  status: ('A' for Active; 'I' for Inactive)
REMARK    1  A    between atoms: C2_2  and  C3_3 
REMARK    2  A    between atoms: C3_3  and  O1_18 
REMARK    3  A    between atoms: C4_4  and  C5_5 
REMARK    4  A    between atoms: O1_18  and  C15_19 
REMARK    5  A    between atoms: C15_19  and  O2_20 
ROOT
HETATM    1  C5  UNL     1      24.819   2.604  51.755  1.00  0.00    -0.022 C 
HETATM    2  C6  UNL     1      25.287   3.061  50.609  1.00  0.00     0.005 C 
HETATM    3  C7  UNL     1      25.498   3.801  49.363  1.00  0.00     0.147 C 
HETATM    4  N1  UNL     1      24.506   4.827  49.161  1.00  0.00    -0.394 N 
HETATM    5  C8  UNL     1      24.669   5.898  50.072  1.00  0.00     0.100 C 
HETATM    6  C9  UNL     1      24.526   6.507  51.227  1.00  0.00     0.105 C 
HETATM    7  N2  UNL     1      23.853   5.945  52.338  1.00  0.00    -0.364 N 
HETATM    8  C10 UNL     1      23.177   4.721  52.196  1.00  0.00     0.040 A 
HETATM    9  C11 UNL     1      21.868   4.751  52.311  1.00  0.00     0.009 A 
HETATM   10  C12 UNL     1      21.243   3.391  52.142  1.00  0.00     0.077 A 
HETATM   11  C13 UNL     1      22.511   2.624  51.937  1.00  0.00     0.005 A 
HETATM   12 BR1  UNL     1      22.141   0.767  51.728  1.00  0.00    -0.054 Br
HETATM   13  C14 UNL     1      23.611   3.387  51.958  1.00  0.00     0.014 A 
HETATM   14  H10 UNL     1      23.749   4.809  48.446  1.00  0.00     0.159 HD
HETATM   15  H13 UNL     1      23.833   6.408  53.270  1.00  0.00     0.165 HD
ENDROOT
BRANCH   1  16
HETATM   16  C4  UNL     1      25.181   1.572  52.755  1.00  0.00     0.044 C 
HETATM   17  C3  UNL     1      25.881   0.475  52.783  1.00  0.00     0.049 C 
BRANCH  17  18
HETATM   18  C2  UNL     1      26.694  -0.369  51.902  1.00  0.00     0.060 C 
HETATM   19  C1  UNL     1      26.631  -1.826  52.361  1.00  0.00     0.012 C 
ENDBRANCH  17  18
BRANCH  17  20
HETATM   20  O1  UNL     1      25.966  -0.233  54.001  1.00  0.00    -0.331 OA
BRANCH  20  21
HETATM   21  C15 UNL     1      26.679   0.302  55.088  1.00  0.00     0.343 C 
BRANCH  21  22
HETATM   22  O2  UNL     1      27.925  -0.295  55.191  1.00  0.00    -0.371 OA
HETATM   23  C16 UNL     1      28.883   0.605  54.742  1.00  0.00     0.204 C 
ENDBRANCH  21  22
ENDBRANCH  20  21
ENDBRANCH  17  20
ENDBRANCH   1  16
TORSDOF 5
ENDMDL
MODEL 2
REMARK VINA RESULT:      -6.9      3.765      6.278
REMARK  5 active torsions:
REMARK  status: ('A' for Active; 'I' for Inactive)
REMARK    1  A    between atoms: C2_2  and  C3_3 
REMARK    2  A    between atoms: C3_3  and  O1_18 
REMARK    3  A    between atoms: C4_4  and  C5_5 
REMARK    4  A    between atoms: O1_18  and  C15_19 
REMARK    5  A    between atoms: C15_19  and  O2_20 
ROOT
HETATM    1  C5  UNL     1      26.645   1.848  51.945  1.00  0.00    -0.022 C 
HETATM    2  C6  UNL     1      27.673   2.274  52.655  1.00  0.00     0.005 C 
HETATM    3  C7  UNL     1      28.719   2.443  53.666  1.00  0.00     0.147 C 
HETATM    4  N1  UNL     1      28.684   1.407  54.668  1.00  0.00    -0.394 N 
HETATM    5  C8  UNL     1      29.098   0.159  54.144  1.00  0.00     0.100 C 
HETATM    6  C9  UNL     1      28.930  -0.973  53.501  1.00  0.00     0.105 C 
HETATM    7  N2  UNL     1      27.706  -1.373  52.913  1.00  0.00    -0.364 N 
HETATM    8  C10 UNL     1      26.550  -0.600  53.117  1.00  0.00     0.040 A 
HETATM    9  C11 UNL     1      25.584  -1.152  53.817  1.00  0.00     0.009 A 
HETATM   10  C12 UNL     1      24.395  -0.241  53.977  1.00  0.00     0.077 A 
HETATM   11  C13 UNL     1      24.930   0.909  53.185  1.00  0.00     0.005 A 
HETATM   12 BR1  UNL     1      23.646   2.314  53.099  1.00  0.00    -0.054 Br
HETATM   13  C14 UNL     1      26.164   0.705  52.706  1.00  0.00     0.014 A 
HETATM   14  H10 UNL     1      28.392   1.530  55.661  1.00  0.00     0.159 HD
HETATM   15  H13 UNL     1      27.622  -2.232  52.330  1.00  0.00     0.165 HD
ENDROOT
BRANCH   1  16
HETATM   16  C4  UNL     1      25.929   2.237  50.708  1.00  0.00     0.044 C 
HETATM   17  C3  UNL     1      25.845   3.289  49.945  1.00  0.00     0.049 C 
BRANCH  17  18
HETATM   18  C2  UNL     1      26.371   4.654  49.842  1.00  0.00     0.060 C 
HETATM   19  C1  UNL     1      27.447   4.723  48.758  1.00  0.00     0.012 C 
ENDBRANCH  17  18
BRANCH  17  20
HETATM   20  O1  UNL     1      25.006   3.229  48.813  1.00  0.00    -0.331 OA
BRANCH  20  21
HETATM   21  C15 UNL     1      23.640   3.544  48.919  1.00  0.00     0.343 C 
BRANCH  21  22
HETATM   22  O2  UNL     1      22.865   2.503  48.434  1.00  0.00    -0.371 OA
HETATM   23  C16 UNL     1      22.335   1.808  49.514  1.00  0.00     0.204 C 
ENDBRANCH  21  22
ENDBRANCH  20  21
ENDBRANCH  17  20
ENDBRANCH   1  16
TORSDOF 5
ENDMDL
MODEL 3
REMARK VINA RESULT:      -6.8      1.173      1.836
REMARK  5 active torsions:
REMARK  status: ('A' for Active; 'I' for Inactive)
REMARK    1  A    between atoms: C2_2  and  C3_3 
REMARK    2  A    between atoms: C3_3  and  O1_18 
REMARK    3  A    between atoms: C4_4  and  C5_5 
REMARK    4  A    between atoms: O1_18  and  C15_19 
REMARK    5  A    between atoms: C15_19  and  O2_20 
ROOT
HETATM    1  C5  UNL     1      25.299   2.964  51.889  1.00  0.00    -0.022 C 
HETATM    2  C6  UNL     1      25.736   3.326  50.697  1.00  0.00     0.005 C 
HETATM    3  C7  UNL     1      25.894   3.936  49.375  1.00  0.00     0.147 C 
HETATM    4  N1  UNL     1      24.822   4.847  49.061  1.00  0.00    -0.394 N 
HETATM    5  C8  UNL     1      24.890   6.024  49.845  1.00  0.00     0.100 C 
HETATM    6  C9  UNL     1      24.690   6.745  50.923  1.00  0.00     0.105 C 
HETATM    7  N2  UNL     1      24.058   6.259  52.092  1.00  0.00    -0.364 N 
HETATM    8  C10 UNL     1      23.486   4.976  52.092  1.00  0.00     0.040 A 
HETATM    9  C11 UNL     1      22.178   4.910  52.206  1.00  0.00     0.009 A 
HETATM   10  C12 UNL     1      21.669   3.492  52.194  1.00  0.00     0.077 A 
HETATM   11  C13 UNL     1      22.997   2.815  52.074  1.00  0.00     0.005 A 
HETATM   12 BR1  UNL     1      22.782   0.922  52.077  1.00  0.00    -0.054 Br
HETATM   13  C14 UNL     1      24.030   3.664  52.005  1.00  0.00     0.014 A 
HETATM   14  H10 UNL     1      24.073   4.686  48.354  1.00  0.00     0.159 HD
HETATM   15  H13 UNL     1      23.994   6.821  52.966  1.00  0.00     0.165 HD
ENDROOT
BRANCH   1  16
HETATM   16  C4  UNL     1      25.738   2.085  52.998  1.00  0.00     0.044 C 
HETATM   17  C3  UNL     1      26.836   1.860  53.659  1.00  0.00     0.049 C 
BRANCH  17  18
HETATM   18  C2  UNL     1      28.232   2.304  53.715  1.00  0.00     0.060 C 
HETATM   19  C1  UNL     1      29.172   1.103  53.610  1.00  0.00     0.012 C 
ENDBRANCH  17  18
BRANCH  17  20
HETATM   20  O1  UNL     1      26.812   0.893  54.686  1.00  0.00    -0.331 OA
BRANCH  20  21
HETATM   21  C15 UNL     1      26.087  -0.301  54.525  1.00  0.00     0.343 C 
BRANCH  21  22
HETATM   22  O2  UNL     1      25.622  -0.753  55.749  1.00  0.00    -0.371 OA
HETATM   23  C16 UNL     1      24.336  -1.249  55.575  1.00  0.00     0.204 C 
ENDBRANCH  21  22
ENDBRANCH  20  21
ENDBRANCH  17  20
ENDBRANCH   1  16
TORSDOF 5
ENDMDL
MODEL 4
REMARK VINA RESULT:      -6.6      3.585      5.329
REMARK  5 active torsions:
REMARK  status: ('A' for Active; 'I' for Inactive)
REMARK    1  A    between atoms: C2_2  and  C3_3 
REMARK    2  A    between atoms: C3_3  and  O1_18 
REMARK    3  A    between atoms: C4_4  and  C5_5 
REMARK    4  A    between atoms: O1_18  and  C15_19 
REMARK    5  A    between atoms: C15_19  and  O2_20 
ROOT
HETATM    1  C5  UNL     1      24.899   3.600  49.696  1.00  0.00    -0.022 C 
HETATM    2  C6  UNL     1      23.780   3.258  49.085  1.00  0.00     0.005 C 
HETATM    3  C7  UNL     1      22.395   2.906  48.766  1.00  0.00     0.147 C 
HETATM    4  N1  UNL     1      21.537   2.954  49.924  1.00  0.00    -0.394 N 
HETATM    5  C8  UNL     1      21.322   4.284  50.359  1.00  0.00     0.100 C 
HETATM    6  C9  UNL     1      21.628   5.388  51.000  1.00  0.00     0.105 C 
HETATM    7  N2  UNL     1      22.812   5.559  51.755  1.00  0.00    -0.364 N 
HETATM    8  C10 UNL     1      23.673   4.467  51.959  1.00  0.00     0.040 A 
HETATM    9  C11 UNL     1      23.788   4.025  53.191  1.00  0.00     0.009 A 
HETATM   10  C12 UNL     1      24.731   2.855  53.298  1.00  0.00     0.077 A 
HETATM   11  C13 UNL     1      25.114   2.787  51.853  1.00  0.00     0.005 A 
HETATM   12 BR1  UNL     1      26.392   1.404  51.566  1.00  0.00    -0.054 Br
HETATM   13  C14 UNL     1      24.500   3.701  51.091  1.00  0.00     0.014 A 
HETATM   14  H10 UNL     1      21.117   2.131  50.405  1.00  0.00     0.159 HD
HETATM   15  H13 UNL     1      23.077   6.474  52.178  1.00  0.00     0.165 HD
ENDROOT
BRANCH   1  16
HETATM   16  C4  UNL     1      26.315   3.846  49.336  1.00  0.00     0.044 C 
HETATM   17  C3  UNL     1      27.031   4.845  48.907  1.00  0.00     0.049 C 
BRANCH  17  18
HETATM   18  C2  UNL     1      26.891   6.257  48.537  1.00  0.00     0.060 C 
HETATM   19  C1  UNL     1      26.053   6.995  49.581  1.00  0.00     0.012 C 
ENDBRANCH  17  18
BRANCH  17  20
HETATM   20  O1  UNL     1      28.408   4.635  48.684  1.00  0.00    -0.331 OA
BRANCH  20  21
HETATM   21  C15 UNL     1      29.230   5.691  48.254  1.00  0.00     0.343 C 
BRANCH  21  22
HETATM   22  O2  UNL     1      30.526   5.510  48.709  1.00  0.00    -0.371 OA
HETATM   23  C16 UNL     1      31.275   4.935  47.689  1.00  0.00     0.204 C 
ENDBRANCH  21  22
ENDBRANCH  20  21
ENDBRANCH  17  20
ENDBRANCH   1  16
TORSDOF 5
ENDMDL
MODEL 5
REMARK VINA RESULT:      -6.6      2.044      2.735
REMARK  5 active torsions:
REMARK  status: ('A' for Active; 'I' for Inactive)
REMARK    1  A    between atoms: C2_2  and  C3_3 
REMARK    2  A    between atoms: C3_3  and  O1_18 
REMARK    3  A    between atoms: C4_4  and  C5_5 
REMARK    4  A    between atoms: O1_18  and  C15_19 
REMARK    5  A    between atoms: C15_19  and  O2_20 
ROOT
HETATM    1  C5  UNL     1      23.764   1.921  52.074  1.00  0.00    -0.022 C 
HETATM    2  C6  UNL     1      24.624   2.384  51.186  1.00  0.00     0.005 C 
HETATM    3  C7  UNL     1      25.295   3.154  50.137  1.00  0.00     0.147 C 
HETATM    4  N1  UNL     1      24.501   4.268  49.682  1.00  0.00    -0.394 N 
HETATM    5  C8  UNL     1      24.414   5.283  50.666  1.00  0.00     0.100 C 
HETATM    6  C9  UNL     1      23.928   5.853  51.743  1.00  0.00     0.105 C 
HETATM    7  N2  UNL     1      22.881   5.306  52.523  1.00  0.00    -0.364 N 
HETATM    8  C10 UNL     1      22.214   4.151  52.079  1.00  0.00     0.040 A 
HETATM    9  C11 UNL     1      20.949   4.287  51.749  1.00  0.00     0.009 A 
HETATM   10  C12 UNL     1      20.331   2.993  51.288  1.00  0.00     0.077 A 
HETATM   11  C13 UNL     1      21.539   2.131  51.471  1.00  0.00     0.005 A 
HETATM   12 BR1  UNL     1      21.140   0.322  51.024  1.00  0.00    -0.054 Br
HETATM   13  C14 UNL     1      22.614   2.796  51.912  1.00  0.00     0.014 A 
HETATM   14  H10 UNL     1      24.033   4.344  48.755  1.00  0.00     0.159 HD
HETATM   15  H13 UNL     1      22.575   5.730  53.423  1.00  0.00     0.165 HD
ENDROOT
BRANCH   1  16
HETATM   16  C4  UNL     1      23.694   0.822  53.065  1.00  0.00     0.044 C 
HETATM   17  C3  UNL     1      24.529   0.021  53.661  1.00  0.00     0.049 C 
BRANCH  17  18
HETATM   18  C2  UNL     1      25.964  -0.274  53.721  1.00  0.00     0.060 C 
HETATM   19  C1  UNL     1      26.492  -0.609  52.326  1.00  0.00     0.012 C 
ENDBRANCH  17  18
BRANCH  17  20
HETATM   20  O1  UNL     1      24.014  -0.922  54.576  1.00  0.00    -0.331 OA
BRANCH  20  21
HETATM   21  C15 UNL     1      22.717  -0.774  55.098  1.00  0.00     0.343 C 
BRANCH  21  22
HETATM   22  O2  UNL     1      22.004  -1.954  54.961  1.00  0.00    -0.371 OA
HETATM   23  C16 UNL     1      20.839  -1.684  54.253  1.00  0.00     0.204 C 
ENDBRANCH  21  22
ENDBRANCH  20  21
ENDBRANCH  17  20
ENDBRANCH   1  16
TORSDOF 5
ENDMDL
MODEL 6
REMARK VINA RESULT:      -6.5      2.085      2.357
REMARK  5 active torsions:
REMARK  status: ('A' for Active; 'I' for Inactive)
REMARK    1  A    between atoms: C2_2  and  C3_3 
REMARK    2  A    between atoms: C3_3  and  O1_18 
REMARK    3  A    between atoms: C4_4  and  C5_5 
REMARK    4  A    between atoms: O1_18  and  C15_19 
REMARK    5  A    between atoms: C15_19  and  O2_20 
ROOT
HETATM    1  C5  UNL     1      23.817   2.624  51.560  1.00  0.00    -0.022 C 
HETATM    2  C6  UNL     1      23.694   2.673  50.247  1.00  0.00     0.005 C 
HETATM    3  C7  UNL     1      23.180   2.736  48.877  1.00  0.00     0.147 C 
HETATM    4  N1  UNL     1      21.742   2.826  48.836  1.00  0.00    -0.394 N 
HETATM    5  C8  UNL     1      21.284   4.086  49.291  1.00  0.00     0.100 C 
HETATM    6  C9  UNL     1      20.942   4.966  50.202  1.00  0.00     0.105 C 
HETATM    7  N2  UNL     1      20.978   4.716  51.595  1.00  0.00    -0.364 N 
HETATM    8  C10 UNL     1      21.271   3.423  52.062  1.00  0.00     0.040 A 
HETATM    9  C11 UNL     1      20.305   2.786  52.685  1.00  0.00     0.009 A 
HETATM   10  C12 UNL     1      20.722   1.413  53.143  1.00  0.00     0.077 A 
HETATM   11  C13 UNL     1      22.133   1.468  52.650  1.00  0.00     0.005 A 
HETATM   12 BR1  UNL     1      23.060  -0.134  53.098  1.00  0.00    -0.054 Br
HETATM   13  C14 UNL     1      22.439   2.612  52.024  1.00  0.00     0.014 A 
HETATM   14  H10 UNL     1      21.094   2.073  48.520  1.00  0.00     0.159 HD
HETATM   15  H13 UNL     1      20.791   5.458  52.300  1.00  0.00     0.165 HD
ENDROOT
BRANCH   1  16
HETATM   16  C4  UNL     1      24.910   2.554  52.558  1.00  0.00     0.044 C 
HETATM   17  C3  UNL     1      26.092   2.017  52.642  1.00  0.00     0.049 C 
BRANCH  17  18
HETATM   18  C2  UNL     1      27.020   1.200  51.854  1.00  0.00     0.060 C 
HETATM   19  C1  UNL     1      26.614  -0.273  51.923  1.00  0.00     0.012 C 
ENDBRANCH  17  18
BRANCH  17  20
HETATM   20  O1  UNL     1      26.831   2.207  53.829  1.00  0.00    -0.331 OA
BRANCH  20  21
HETATM   21  C15 UNL     1      28.236   2.240  53.797  1.00  0.00     0.343 C 
BRANCH  21  22
HETATM   22  O2  UNL     1      28.760   1.651  54.937  1.00  0.00    -0.371 OA
HETATM   23  C16 UNL     1      28.862   0.283  54.718  1.00  0.00     0.204 C 
ENDBRANCH  21  22
ENDBRANCH  20  21
ENDBRANCH  17  20
ENDBRANCH   1  16
TORSDOF 5
ENDMDL
MODEL 7
REMARK VINA RESULT:      -6.5      2.884      4.304
REMARK  5 active torsions:
REMARK  status: ('A' for Active; 'I' for Inactive)
REMARK    1  A    between atoms: C2_2  and  C3_3 
REMARK    2  A    between atoms: C3_3  and  O1_18 
REMARK    3  A    between atoms: C4_4  and  C5_5 
REMARK    4  A    between atoms: O1_18  and  C15_19 
REMARK    5  A    between atoms: C15_19  and  O2_20 
ROOT
HETATM    1  C5  UNL     1      22.350   1.717  51.935  1.00  0.00    -0.022 C 
HETATM    2  C6  UNL     1      21.315   2.433  52.335  1.00  0.00     0.005 C 
HETATM    3  C7  UNL     1      20.152   3.319  52.403  1.00  0.00     0.147 C 
HETATM    4  N1  UNL     1      19.776   3.830  51.108  1.00  0.00    -0.394 N 
HETATM    5  C8  UNL     1      19.222   2.818  50.288  1.00  0.00     0.100 C 
HETATM    6  C9  UNL     1      19.273   1.800  49.460  1.00  0.00     0.105 C 
HETATM    7  N2  UNL     1      20.477   1.226  48.988  1.00  0.00    -0.364 N 
HETATM    8  C10 UNL     1      21.706   1.831  49.299  1.00  0.00     0.040 A 
HETATM    9  C11 UNL     1      22.383   2.348  48.298  1.00  0.00     0.009 A 
HETATM   10  C12 UNL     1      23.681   2.971  48.740  1.00  0.00     0.077 A 
HETATM   11  C13 UNL     1      23.560   2.650  50.196  1.00  0.00     0.005 A 
HETATM   12 BR1  UNL     1      25.099   3.253  51.143  1.00  0.00    -0.054 Br
HETATM   13  C14 UNL     1      22.427   2.009  50.513  1.00  0.00     0.014 A 
HETATM   14  H10 UNL     1      19.890   4.814  50.785  1.00  0.00     0.159 HD
HETATM   15  H13 UNL     1      20.493   0.363  48.406  1.00  0.00     0.165 HD
ENDROOT
BRANCH   1  16
HETATM   16  C4  UNL     1      23.356   0.812  52.537  1.00  0.00     0.044 C 
HETATM   17  C3  UNL     1      23.354  -0.272  53.258  1.00  0.00     0.049 C 
BRANCH  17  18
HETATM   18  C2  UNL     1      22.418  -1.211  53.882  1.00  0.00     0.060 C 
HETATM   19  C1  UNL     1      21.469  -0.464  54.820  1.00  0.00     0.012 C 
ENDBRANCH  17  18
BRANCH  17  20
HETATM   20  O1  UNL     1      24.596  -0.831  53.629  1.00  0.00    -0.331 OA
BRANCH  20  21
HETATM   21  C15 UNL     1      25.736  -0.018  53.749  1.00  0.00     0.343 C 
BRANCH  21  22
HETATM   22  O2  UNL     1      26.585  -0.517  54.724  1.00  0.00    -0.371 OA
HETATM   23  C16 UNL     1      27.740   0.255  54.738  1.00  0.00     0.204 C 
ENDBRANCH  21  22
ENDBRANCH  20  21
ENDBRANCH  17  20
ENDBRANCH   1  16
TORSDOF 5
ENDMDL
MODEL 8
REMARK VINA RESULT:      -6.4      9.318     11.482
REMARK  5 active torsions:
REMARK  status: ('A' for Active; 'I' for Inactive)
REMARK    1  A    between atoms: C2_2  and  C3_3 
REMARK    2  A    between atoms: C3_3  and  O1_18 
REMARK    3  A    between atoms: C4_4  and  C5_5 
REMARK    4  A    between atoms: O1_18  and  C15_19 
REMARK    5  A    between atoms: C15_19  and  O2_20 
ROOT
HETATM    1  C5  UNL     1      32.545   6.256  46.452  1.00  0.00    -0.022 C 
HETATM    2  C6  UNL     1      32.983   5.480  45.478  1.00  0.00     0.005 C 
HETATM    3  C7  UNL     1      33.793   4.620  44.612  1.00  0.00     0.147 C 
HETATM    4  N1  UNL     1      35.105   4.375  45.156  1.00  0.00    -0.394 N 
HETATM    5  C8  UNL     1      35.050   3.534  46.294  1.00  0.00     0.100 C 
HETATM    6  C9  UNL     1      34.878   3.271  47.569  1.00  0.00     0.105 C 
HETATM    7  N2  UNL     1      34.556   4.249  48.540  1.00  0.00    -0.364 N 
HETATM    8  C10 UNL     1      34.536   5.607  48.181  1.00  0.00     0.040 A 
HETATM    9  C11 UNL     1      35.449   6.379  48.727  1.00  0.00     0.009 A 
HETATM   10  C12 UNL     1      35.339   7.812  48.275  1.00  0.00     0.077 A 
HETATM   11  C13 UNL     1      34.149   7.639  47.386  1.00  0.00     0.005 A 
HETATM   12 BR1  UNL     1      33.636   9.310  46.627  1.00  0.00    -0.054 Br
HETATM   13  C14 UNL     1      33.700   6.379  47.326  1.00  0.00     0.014 A 
HETATM   14  H10 UNL     1      36.000   4.758  44.784  1.00  0.00     0.159 HD
HETATM   15  H13 UNL     1      34.335   4.003  49.527  1.00  0.00     0.165 HD
ENDROOT
BRANCH   1  16
HETATM   16  C4  UNL     1      31.299   6.976  46.804  1.00  0.00     0.044 C 
HETATM   17  C3  UNL     1      30.207   6.724  47.466  1.00  0.00     0.049 C 
BRANCH  17  18
HETATM   18  C2  UNL     1      29.569   5.644  48.224  1.00  0.00     0.060 C 
HETATM   19  C1  UNL     1      28.060   5.876  48.306  1.00  0.00     0.012 C 
ENDBRANCH  17  18
BRANCH  17  20
HETATM   20  O1  UNL     1      29.233   7.741  47.561  1.00  0.00    -0.331 OA
BRANCH  20  21
HETATM   21  C15 UNL     1      29.608   9.095  47.510  1.00  0.00     0.343 C 
BRANCH  21  22
HETATM   22  O2  UNL     1      29.274   9.734  48.693  1.00  0.00    -0.371 OA
HETATM   23  C16 UNL     1      30.398   9.768  49.508  1.00  0.00     0.204 C 
ENDBRANCH  21  22
ENDBRANCH  20  21
ENDBRANCH  17  20
ENDBRANCH   1  16
TORSDOF 5
ENDMDL
MODEL 9
REMARK VINA RESULT:      -6.3      2.621      4.254
REMARK  5 active torsions:
REMARK  status: ('A' for Active; 'I' for Inactive)
REMARK    1  A    between atoms: C2_2  and  C3_3 
REMARK    2  A    between atoms: C3_3  and  O1_18 
REMARK    3  A    between atoms: C4_4  and  C5_5 
REMARK    4  A    between atoms: O1_18  and  C15_19 
REMARK    5  A    between atoms: C15_19  and  O2_20 
ROOT
HETATM    1  C5  UNL     1      23.274   2.700  52.250  1.00  0.00    -0.022 C 
HETATM    2  C6  UNL     1      23.040   3.962  52.560  1.00  0.00     0.005 C 
HETATM    3  C7  UNL     1      23.100   5.419  52.692  1.00  0.00     0.147 C 
HETATM    4  N1  UNL     1      24.196   5.992  51.952  1.00  0.00    -0.394 N 
HETATM    5  C8  UNL     1      23.979   5.915  50.555  1.00  0.00     0.100 C 
HETATM    6  C9  UNL     1      23.984   5.323  49.383  1.00  0.00     0.105 C 
HETATM    7  N2  UNL     1      24.416   3.992  49.173  1.00  0.00    -0.364 N 
HETATM    8  C10 UNL     1      24.998   3.274  50.231  1.00  0.00     0.040 A 
HETATM    9  C11 UNL     1      26.269   2.961  50.107  1.00  0.00     0.009 A 
HETATM   10  C12 UNL     1      26.793   2.195  51.293  1.00  0.00     0.077 A 
HETATM   11  C13 UNL     1      25.515   2.146  52.067  1.00  0.00     0.005 A 
HETATM   12 BR1  UNL     1      25.753   1.171  53.687  1.00  0.00    -0.054 Br
HETATM   13  C14 UNL     1      24.496   2.771  51.464  1.00  0.00     0.014 A 
HETATM   14  H10 UNL     1      25.056   6.412  52.364  1.00  0.00     0.159 HD
HETATM   15  H13 UNL     1      24.324   3.514  48.253  1.00  0.00     0.165 HD
ENDROOT
BRANCH   1  16
HETATM   16  C4  UNL     1      22.667   1.375  52.513  1.00  0.00     0.044 C 
HETATM   17  C3  UNL     1      21.756   0.618  51.972  1.00  0.00     0.049 C 
BRANCH  17  18
HETATM   18  C2  UNL     1      20.825   0.606  50.840  1.00  0.00     0.060 C 
HETATM   19  C1  UNL     1      21.556   0.982  49.551  1.00  0.00     0.012 C 
ENDBRANCH  17  18
BRANCH  17  20
HETATM   20  O1  UNL     1      21.477  -0.627  52.574  1.00  0.00    -0.331 OA
BRANCH  20  21
HETATM   21  C15 UNL     1      22.457  -1.288  53.334  1.00  0.00     0.343 C 
BRANCH  21  22
HETATM   22  O2  UNL     1      22.031  -1.443  54.643  1.00  0.00    -0.371 OA
HETATM   23  C16 UNL     1      23.140  -1.373  55.477  1.00  0.00     0.204 C 
ENDBRANCH  21  22
ENDBRANCH  20  21
ENDBRANCH  17  20
ENDBRANCH   1  16
TORSDOF 5
ENDMDL
