MODEL 1
REMARK VINA RESULT:      -6.5      0.000      0.000
REMARK  4 active torsions:
REMARK  status: ('A' for Active; 'I' for Inactive)
REMARK    1  A    between atoms: O1_2  and  C2_3 
REMARK    2  A    between atoms: C8_11  and  C9_12 
REMARK    3  A    between atoms: C9_12  and  C10_14 
REMARK    4  A    between atoms: C10_14  and  C11_15 
ROOT
HETATM    1  C2  UNL     1      22.346   2.306  50.920  1.00  0.00     0.100 C 
HETATM    2  C3  UNL     1      21.610   1.262  50.560  1.00  0.00     0.043 C 
HETATM    3  C4  UNL     1      21.869   0.260  51.663  1.00  0.00     0.148 C 
HETATM    4  C5  UNL     1      20.791   0.596  52.690  1.00  0.00     0.002 C 
HETATM    5  C6  UNL     1      20.734  -0.466  53.453  1.00  0.00     0.090 C 
HETATM    6  N1  UNL     1      21.869  -0.761  54.013  1.00  0.00    -0.267 NA
HETATM    7  C7  UNL     1      23.050   0.081  53.827  1.00  0.00     0.275 C 
HETATM    8  N2  UNL     1      23.079   0.570  52.437  1.00  0.00    -0.348 N 
HETATM    9  C8  UNL     1      24.364   1.212  52.362  1.00  0.00     0.069 C 
HETATM   10  C12 UNL     1      24.249   2.563  52.423  1.00  0.00     0.032 C 
HETATM   11  C13 UNL     1      23.696   3.904  52.514  1.00  0.00     0.205 C 
HETATM   12  O2  UNL     1      22.251   3.918  52.604  1.00  0.00    -0.345 OA
HETATM   13  C14 UNL     1      21.569   2.790  52.087  1.00  0.00     0.102 C 
HETATM   14  C15 UNL     1      20.587   1.904  52.080  1.00  0.00     0.051 C 
ENDROOT
BRANCH   9  15
HETATM   15  C9  UNL     1      25.672   0.539  52.180  1.00  0.00     0.139 C 
HETATM   16  F1  UNL     1      26.174   1.495  51.309  1.00  0.00    -0.204 F 
BRANCH  15  17
HETATM   17  C10 UNL     1      26.720  -0.176  52.151  1.00  0.00     0.028 C 
BRANCH  17  18
HETATM   18  C11 UNL     1      27.333  -1.242  52.947  1.00  0.00     0.115 C 
HETATM   19 BR1  UNL     1      29.152  -0.873  53.509  1.00  0.00    -0.092 Br
ENDBRANCH  17  18
ENDBRANCH  15  17
ENDBRANCH   9  15
BRANCH   1  20
HETATM   20  O1  UNL     1      23.336   2.185  49.916  1.00  0.00    -0.353 OA
HETATM   21  C1  UNL     1      23.255   3.136  48.843  1.00  0.00     0.210 C 
ENDBRANCH   1  20
TORSDOF 4
ENDMDL
MODEL 2
REMARK VINA RESULT:      -6.0      8.534     10.542
REMARK  4 active torsions:
REMARK  status: ('A' for Active; 'I' for Inactive)
REMARK    1  A    between atoms: O1_2  and  C2_3 
REMARK    2  A    between atoms: C8_11  and  C9_12 
REMARK    3  A    between atoms: C9_12  and  C10_14 
REMARK    4  A    between atoms: C10_14  and  C11_15 
ROOT
HETATM    1  C2  UNL     1      30.528   8.664  48.363  1.00  0.00     0.100 C 
HETATM    2  C3  UNL     1      31.283   8.385  49.419  1.00  0.00     0.043 C 
HETATM    3  C4  UNL     1      31.481   6.889  49.315  1.00  0.00     0.148 C 
HETATM    4  C5  UNL     1      32.736   6.769  48.456  1.00  0.00     0.002 C 
HETATM    5  C6  UNL     1      33.152   5.545  48.665  1.00  0.00     0.090 C 
HETATM    6  N1  UNL     1      32.267   4.642  48.368  1.00  0.00    -0.267 NA
HETATM    7  C7  UNL     1      30.971   5.006  47.798  1.00  0.00     0.275 C 
HETATM    8  N2  UNL     1      30.495   6.246  48.436  1.00  0.00    -0.348 N 
HETATM    9  C8  UNL     1      29.158   6.367  47.918  1.00  0.00     0.069 C 
HETATM   10  C12 UNL     1      29.088   7.306  46.939  1.00  0.00     0.032 C 
HETATM   11  C13 UNL     1      29.444   8.345  45.988  1.00  0.00     0.205 C 
HETATM   12  O2  UNL     1      30.841   8.719  46.051  1.00  0.00    -0.345 OA
HETATM   13  C14 UNL     1      31.514   8.468  47.272  1.00  0.00     0.102 C 
HETATM   14  C15 UNL     1      32.575   8.141  47.991  1.00  0.00     0.051 C 
ENDROOT
BRANCH   9  15
HETATM   15  C9  UNL     1      27.962   5.632  48.393  1.00  0.00     0.139 C 
HETATM   16  F1  UNL     1      27.054   6.561  47.903  1.00  0.00    -0.204 F 
BRANCH  15  17
HETATM   17  C10 UNL     1      27.069   4.869  48.871  1.00  0.00     0.028 C 
BRANCH  17  18
HETATM   18  C11 UNL     1      25.824   4.993  49.633  1.00  0.00     0.115 C 
HETATM   19 BR1  UNL     1      24.760   3.373  49.694  1.00  0.00    -0.092 Br
ENDBRANCH  17  18
ENDBRANCH  15  17
ENDBRANCH   9  15
BRANCH   1  20
HETATM   20  O1  UNL     1      29.331   8.945  49.064  1.00  0.00    -0.353 OA
HETATM   21  C1  UNL     1      28.948  10.327  49.115  1.00  0.00     0.210 C 
ENDBRANCH   1  20
TORSDOF 4
ENDMDL
MODEL 3
REMARK VINA RESULT:      -6.0      2.028      2.242
REMARK  4 active torsions:
REMARK  status: ('A' for Active; 'I' for Inactive)
REMARK    1  A    between atoms: O1_2  and  C2_3 
REMARK    2  A    between atoms: C8_11  and  C9_12 
REMARK    3  A    between atoms: C9_12  and  C10_14 
REMARK    4  A    between atoms: C10_14  and  C11_15 
ROOT
HETATM    1  C2  UNL     1      20.667   2.027  50.723  1.00  0.00     0.100 C 
HETATM    2  C3  UNL     1      20.322   0.775  50.448  1.00  0.00     0.043 C 
HETATM    3  C4  UNL     1      20.780   0.015  51.672  1.00  0.00     0.148 C 
HETATM    4  C5  UNL     1      19.566   0.088  52.594  1.00  0.00     0.002 C 
HETATM    5  C6  UNL     1      19.773  -0.862  53.471  1.00  0.00     0.090 C 
HETATM    6  N1  UNL     1      20.891  -0.731  54.121  1.00  0.00    -0.267 NA
HETATM    7  C7  UNL     1      21.767   0.419  53.901  1.00  0.00     0.275 C 
HETATM    8  N2  UNL     1      21.764   0.761  52.467  1.00  0.00    -0.348 N 
HETATM    9  C8  UNL     1      22.791   1.764  52.387  1.00  0.00     0.069 C 
HETATM   10  C12 UNL     1      22.261   3.010  52.285  1.00  0.00     0.032 C 
HETATM   11  C13 UNL     1      21.317   4.111  52.190  1.00  0.00     0.205 C 
HETATM   12  O2  UNL     1      19.936   3.678  52.202  1.00  0.00    -0.345 OA
HETATM   13  C14 UNL     1      19.681   2.349  51.783  1.00  0.00     0.102 C 
HETATM   14  C15 UNL     1      19.024   1.203  51.827  1.00  0.00     0.051 C 
ENDROOT
BRANCH   9  15
HETATM   15  C9  UNL     1      24.254   1.524  52.354  1.00  0.00     0.139 C 
HETATM   16  F1  UNL     1      24.532   2.360  53.426  1.00  0.00    -0.204 F 
BRANCH  15  17
HETATM   17  C10 UNL     1      25.465   1.197  52.170  1.00  0.00     0.028 C 
BRANCH  17  18
HETATM   18  C11 UNL     1      26.662   1.761  51.541  1.00  0.00     0.115 C 
HETATM   19 BR1  UNL     1      26.300   3.162  50.250  1.00  0.00    -0.092 Br
ENDBRANCH  17  18
ENDBRANCH  15  17
ENDBRANCH   9  15
BRANCH   1  20
HETATM   20  O1  UNL     1      21.729   2.131  49.793  1.00  0.00    -0.353 OA
HETATM   21  C1  UNL     1      21.435   2.852  48.588  1.00  0.00     0.210 C 
ENDBRANCH   1  20
TORSDOF 4
ENDMDL
MODEL 4
REMARK VINA RESULT:      -5.9      2.694      3.566
REMARK  4 active torsions:
REMARK  status: ('A' for Active; 'I' for Inactive)
REMARK    1  A    between atoms: O1_2  and  C2_3 
REMARK    2  A    between atoms: C8_11  and  C9_12 
REMARK    3  A    between atoms: C9_12  and  C10_14 
REMARK    4  A    between atoms: C10_14  and  C11_15 
ROOT
HETATM    1  C2  UNL     1      20.940   1.896  50.937  1.00  0.00     0.100 C 
HETATM    2  C3  UNL     1      21.298   0.624  50.808  1.00  0.00     0.043 C 
HETATM    3  C4  UNL     1      22.634   0.568  51.514  1.00  0.00     0.148 C 
HETATM    4  C5  UNL     1      22.246   0.255  52.956  1.00  0.00     0.002 C 
HETATM    5  C6  UNL     1      23.356  -0.177  53.500  1.00  0.00     0.090 C 
HETATM    6  N1  UNL     1      24.332   0.678  53.429  1.00  0.00    -0.267 NA
HETATM    7  C7  UNL     1      24.140   2.005  52.847  1.00  0.00     0.275 C 
HETATM    8  N2  UNL     1      23.241   1.896  51.684  1.00  0.00    -0.348 N 
HETATM    9  C8  UNL     1      23.299   3.219  51.123  1.00  0.00     0.069 C 
HETATM   10  C12 UNL     1      22.186   3.935  51.423  1.00  0.00     0.032 C 
HETATM   11  C13 UNL     1      20.887   4.323  51.948  1.00  0.00     0.205 C 
HETATM   12  O2  UNL     1      20.235   3.266  52.690  1.00  0.00    -0.345 OA
HETATM   13  C14 UNL     1      20.627   1.938  52.386  1.00  0.00     0.102 C 
HETATM   14  C15 UNL     1      20.874   0.679  52.702  1.00  0.00     0.051 C 
ENDROOT
BRANCH   9  15
HETATM   15  C9  UNL     1      24.381   3.763  50.268  1.00  0.00     0.139 C 
HETATM   16  F1  UNL     1      24.331   2.728  49.345  1.00  0.00    -0.204 F 
BRANCH  15  17
HETATM   17  C10 UNL     1      25.315   4.380  49.670  1.00  0.00     0.028 C 
BRANCH  17  18
HETATM   18  C11 UNL     1      25.817   5.751  49.559  1.00  0.00     0.115 C 
HETATM   19 BR1  UNL     1      27.420   5.929  48.483  1.00  0.00    -0.092 Br
ENDBRANCH  17  18
ENDBRANCH  15  17
ENDBRANCH   9  15
BRANCH   1  20
HETATM   20  O1  UNL     1      21.123   2.274  49.585  1.00  0.00    -0.353 OA
HETATM   21  C1  UNL     1      19.926   2.388  48.802  1.00  0.00     0.210 C 
ENDBRANCH   1  20
TORSDOF 4
ENDMDL
MODEL 5
REMARK VINA RESULT:      -5.9      1.851      2.577
REMARK  4 active torsions:
REMARK  status: ('A' for Active; 'I' for Inactive)
REMARK    1  A    between atoms: O1_2  and  C2_3 
REMARK    2  A    between atoms: C8_11  and  C9_12 
REMARK    3  A    between atoms: C9_12  and  C10_14 
REMARK    4  A    between atoms: C10_14  and  C11_15 
ROOT
HETATM    1  C2  UNL     1      23.869   4.093  50.321  1.00  0.00     0.100 C 
HETATM    2  C3  UNL     1      23.729   3.477  49.153  1.00  0.00     0.043 C 
HETATM    3  C4  UNL     1      23.090   2.160  49.533  1.00  0.00     0.148 C 
HETATM    4  C5  UNL     1      21.598   2.476  49.482  1.00  0.00     0.002 C 
HETATM    5  C6  UNL     1      21.023   1.301  49.420  1.00  0.00     0.090 C 
HETATM    6  N1  UNL     1      21.326   0.525  50.417  1.00  0.00    -0.267 NA
HETATM    7  C7  UNL     1      22.179   0.990  51.510  1.00  0.00     0.275 C 
HETATM    8  N2  UNL     1      23.246   1.844  50.959  1.00  0.00    -0.348 N 
HETATM    9  C8  UNL     1      24.089   2.062  52.104  1.00  0.00     0.069 C 
HETATM   10  C12 UNL     1      23.905   3.302  52.627  1.00  0.00     0.032 C 
HETATM   11  C13 UNL     1      23.420   4.653  52.851  1.00  0.00     0.205 C 
HETATM   12  O2  UNL     1      22.433   5.071  51.879  1.00  0.00    -0.345 OA
HETATM   13  C14 UNL     1      22.452   4.410  50.626  1.00  0.00     0.102 C 
HETATM   14  C15 UNL     1      21.877   3.905  49.548  1.00  0.00     0.051 C 
ENDROOT
BRANCH   9  15
HETATM   15  C9  UNL     1      25.092   1.117  52.650  1.00  0.00     0.139 C 
HETATM   16  F1  UNL     1      25.405   1.903  53.750  1.00  0.00    -0.204 F 
BRANCH  15  17
HETATM   17  C10 UNL     1      25.905   0.193  52.958  1.00  0.00     0.028 C 
BRANCH  17  18
HETATM   18  C11 UNL     1      27.340  -0.075  52.848  1.00  0.00     0.115 C 
HETATM   19 BR1  UNL     1      28.324   0.145  54.504  1.00  0.00    -0.092 Br
ENDBRANCH  17  18
ENDBRANCH  15  17
ENDBRANCH   9  15
BRANCH   1  20
HETATM   20  O1  UNL     1      25.278   3.990  50.413  1.00  0.00    -0.353 OA
HETATM   21  C1  UNL     1      26.022   4.776  49.470  1.00  0.00     0.210 C 
ENDBRANCH   1  20
TORSDOF 4
ENDMDL
MODEL 6
REMARK VINA RESULT:      -5.8      9.648     11.575
REMARK  4 active torsions:
REMARK  status: ('A' for Active; 'I' for Inactive)
REMARK    1  A    between atoms: O1_2  and  C2_3 
REMARK    2  A    between atoms: C8_11  and  C9_12 
REMARK    3  A    between atoms: C9_12  and  C10_14 
REMARK    4  A    between atoms: C10_14  and  C11_15 
ROOT
HETATM    1  C2  UNL     1      32.560   7.414  46.792  1.00  0.00     0.100 C 
HETATM    2  C3  UNL     1      32.097   8.419  46.058  1.00  0.00     0.043 C 
HETATM    3  C4  UNL     1      31.022   9.019  46.936  1.00  0.00     0.148 C 
HETATM    4  C5  UNL     1      31.789  10.049  47.760  1.00  0.00     0.002 C 
HETATM    5  C6  UNL     1      30.858  10.838  48.234  1.00  0.00     0.090 C 
HETATM    6  N1  UNL     1      29.962  10.214  48.939  1.00  0.00    -0.267 NA
HETATM    7  C7  UNL     1      30.065   8.779  49.202  1.00  0.00     0.275 C 
HETATM    8  N2  UNL     1      30.580   8.104  47.997  1.00  0.00    -0.348 N 
HETATM    9  C8  UNL     1      30.449   6.714  48.342  1.00  0.00     0.069 C 
HETATM   10  C12 UNL     1      31.647   6.172  48.681  1.00  0.00     0.032 C 
HETATM   11  C13 UNL     1      33.064   6.004  48.954  1.00  0.00     0.205 C 
HETATM   12  O2  UNL     1      33.832   7.212  48.739  1.00  0.00    -0.345 OA
HETATM   13  C14 UNL     1      33.282   8.166  47.848  1.00  0.00     0.102 C 
HETATM   14  C15 UNL     1      33.053   9.400  47.433  1.00  0.00     0.051 C 
ENDROOT
BRANCH   9  15
HETATM   15  C9  UNL     1      29.205   5.910  48.293  1.00  0.00     0.139 C 
HETATM   16  F1  UNL     1      28.694   6.556  47.175  1.00  0.00    -0.204 F 
BRANCH  15  17
HETATM   17  C10 UNL     1      28.213   5.128  48.413  1.00  0.00     0.028 C 
BRANCH  17  18
HETATM   18  C11 UNL     1      26.844   5.178  48.931  1.00  0.00     0.115 C 
HETATM   19 BR1  UNL     1      26.217   3.508  49.690  1.00  0.00    -0.092 Br
ENDBRANCH  17  18
ENDBRANCH  15  17
ENDBRANCH   9  15
BRANCH   1  20
HETATM   20  O1  UNL     1      32.019   6.359  46.019  1.00  0.00    -0.353 OA
HETATM   21  C1  UNL     1      32.947   5.672  45.166  1.00  0.00     0.210 C 
ENDBRANCH   1  20
TORSDOF 4
ENDMDL
MODEL 7
REMARK VINA RESULT:      -5.8      3.520      4.951
REMARK  4 active torsions:
REMARK  status: ('A' for Active; 'I' for Inactive)
REMARK    1  A    between atoms: O1_2  and  C2_3 
REMARK    2  A    between atoms: C8_11  and  C9_12 
REMARK    3  A    between atoms: C9_12  and  C10_14 
REMARK    4  A    between atoms: C10_14  and  C11_15 
ROOT
HETATM    1  C2  UNL     1      19.765   1.287  51.586  1.00  0.00     0.100 C 
HETATM    2  C3  UNL     1      20.221   0.061  51.815  1.00  0.00     0.043 C 
HETATM    3  C4  UNL     1      21.713   0.206  51.618  1.00  0.00     0.148 C 
HETATM    4  C5  UNL     1      22.206   0.589  53.011  1.00  0.00     0.002 C 
HETATM    5  C6  UNL     1      23.492   0.345  52.975  1.00  0.00     0.090 C 
HETATM    6  N1  UNL     1      24.114   0.997  52.038  1.00  0.00    -0.267 NA
HETATM    7  C7  UNL     1      23.411   1.947  51.177  1.00  0.00     0.275 C 
HETATM    8  N2  UNL     1      22.071   1.417  50.868  1.00  0.00    -0.348 N 
HETATM    9  C8  UNL     1      21.589   2.351  49.886  1.00  0.00     0.069 C 
HETATM   10  C12 UNL     1      20.693   3.219  50.424  1.00  0.00     0.032 C 
HETATM   11  C13 UNL     1      19.821   3.907  51.361  1.00  0.00     0.205 C 
HETATM   12  O2  UNL     1      19.858   3.339  52.693  1.00  0.00    -0.345 OA
HETATM   13  C14 UNL     1      20.260   1.985  52.798  1.00  0.00     0.102 C 
HETATM   14  C15 UNL     1      20.856   0.974  53.406  1.00  0.00     0.051 C 
ENDROOT
BRANCH   9  15
HETATM   15  C9  UNL     1      21.942   2.374  48.446  1.00  0.00     0.139 C 
HETATM   16  F1  UNL     1      21.825   1.001  48.278  1.00  0.00    -0.204 F 
BRANCH  15  17
HETATM   17  C10 UNL     1      22.260   2.591  47.238  1.00  0.00     0.028 C 
BRANCH  17  18
HETATM   18  C11 UNL     1      21.904   3.528  46.170  1.00  0.00     0.115 C 
HETATM   19 BR1  UNL     1      22.093   5.397  46.651  1.00  0.00    -0.092 Br
ENDBRANCH  17  18
ENDBRANCH  15  17
ENDBRANCH   9  15
BRANCH   1  20
HETATM   20  O1  UNL     1      19.138   1.019  50.345  1.00  0.00    -0.353 OA
HETATM   21  C1  UNL     1      17.873   0.344  50.418  1.00  0.00     0.210 C 
ENDBRANCH   1  20
TORSDOF 4
ENDMDL
MODEL 8
REMARK VINA RESULT:      -5.8      2.958      4.853
REMARK  4 active torsions:
REMARK  status: ('A' for Active; 'I' for Inactive)
REMARK    1  A    between atoms: O1_2  and  C2_3 
REMARK    2  A    between atoms: C8_11  and  C9_12 
REMARK    3  A    between atoms: C9_12  and  C10_14 
REMARK    4  A    between atoms: C10_14  and  C11_15 
ROOT
HETATM    1  C2  UNL     1      24.746   3.874  50.748  1.00  0.00     0.100 C 
HETATM    2  C3  UNL     1      24.970   3.460  49.506  1.00  0.00     0.043 C 
HETATM    3  C4  UNL     1      23.579   3.184  48.979  1.00  0.00     0.148 C 
HETATM    4  C5  UNL     1      23.161   4.531  48.396  1.00  0.00     0.002 C 
HETATM    5  C6  UNL     1      22.158   4.241  47.607  1.00  0.00     0.090 C 
HETATM    6  N1  UNL     1      21.177   3.644  48.216  1.00  0.00    -0.267 NA
HETATM    7  C7  UNL     1      21.213   3.402  49.657  1.00  0.00     0.275 C 
HETATM    8  N2  UNL     1      22.585   3.038  50.052  1.00  0.00    -0.348 N 
HETATM    9  C8  UNL     1      22.421   2.657  51.429  1.00  0.00     0.069 C 
HETATM   10  C12 UNL     1      22.856   3.631  52.269  1.00  0.00     0.032 C 
HETATM   11  C13 UNL     1      23.411   4.872  52.782  1.00  0.00     0.205 C 
HETATM   12  O2  UNL     1      23.835   5.780  51.738  1.00  0.00    -0.345 OA
HETATM   13  C14 UNL     1      24.150   5.205  50.482  1.00  0.00     0.102 C 
HETATM   14  C15 UNL     1      24.201   5.209  49.161  1.00  0.00     0.051 C 
ENDROOT
BRANCH   9  15
HETATM   15  C9  UNL     1      21.906   1.359  51.925  1.00  0.00     0.139 C 
HETATM   16  F1  UNL     1      22.782   1.291  53.000  1.00  0.00    -0.204 F 
BRANCH  15  17
HETATM   17  C10 UNL     1      21.338   0.257  52.195  1.00  0.00     0.028 C 
BRANCH  17  18
HETATM   18  C11 UNL     1      20.531  -0.316  53.274  1.00  0.00     0.115 C 
HETATM   19 BR1  UNL     1      21.492  -1.543  54.426  1.00  0.00    -0.092 Br
ENDBRANCH  17  18
ENDBRANCH  15  17
ENDBRANCH   9  15
BRANCH   1  20
HETATM   20  O1  UNL     1      25.247   2.729  51.413  1.00  0.00    -0.353 OA
HETATM   21  C1  UNL     1      26.663   2.520  51.315  1.00  0.00     0.210 C 
ENDBRANCH   1  20
TORSDOF 4
ENDMDL
MODEL 9
REMARK VINA RESULT:      -5.7      3.735      5.418
REMARK  4 active torsions:
REMARK  status: ('A' for Active; 'I' for Inactive)
REMARK    1  A    between atoms: O1_2  and  C2_3 
REMARK    2  A    between atoms: C8_11  and  C9_12 
REMARK    3  A    between atoms: C9_12  and  C10_14 
REMARK    4  A    between atoms: C10_14  and  C11_15 
ROOT
HETATM    1  C2  UNL     1      21.949   2.719  51.091  1.00  0.00     0.100 C 
HETATM    2  C3  UNL     1      22.530   3.064  52.234  1.00  0.00     0.043 C 
HETATM    3  C4  UNL     1      22.744   1.736  52.925  1.00  0.00     0.148 C 
HETATM    4  C5  UNL     1      24.119   1.306  52.420  1.00  0.00     0.002 C 
HETATM    5  C6  UNL     1      24.499   0.386  53.271  1.00  0.00     0.090 C 
HETATM    6  N1  UNL     1      23.672  -0.613  53.354  1.00  0.00    -0.267 NA
HETATM    7  C7  UNL     1      22.481  -0.686  52.511  1.00  0.00     0.275 C 
HETATM    8  N2  UNL     1      21.909   0.664  52.366  1.00  0.00    -0.348 N 
HETATM    9  C8  UNL     1      20.670   0.404  51.684  1.00  0.00     0.069 C 
HETATM   10  C12 UNL     1      20.751   0.722  50.367  1.00  0.00     0.032 C 
HETATM   11  C13 UNL     1      21.250   1.176  49.079  1.00  0.00     0.205 C 
HETATM   12  O2  UNL     1      22.619   1.642  49.132  1.00  0.00    -0.345 OA
HETATM   13  C14 UNL     1      23.093   2.086  50.391  1.00  0.00     0.102 C 
HETATM   14  C15 UNL     1      24.029   2.247  51.310  1.00  0.00     0.051 C 
ENDROOT
BRANCH   9  15
HETATM   15  C9  UNL     1      19.415  -0.090  52.300  1.00  0.00     0.139 C 
HETATM   16  F1  UNL     1      18.743  -0.232  51.094  1.00  0.00    -0.204 F 
BRANCH  15  17
HETATM   17  C10 UNL     1      18.438  -0.492  53.002  1.00  0.00     0.028 C 
BRANCH  17  18
HETATM   18  C11 UNL     1      17.389  -1.512  52.925  1.00  0.00     0.115 C 
HETATM   19 BR1  UNL     1      15.645  -0.829  52.427  1.00  0.00    -0.092 Br
ENDBRANCH  17  18
ENDBRANCH  15  17
ENDBRANCH   9  15
BRANCH   1  20
HETATM   20  O1  UNL     1      20.657   3.215  51.387  1.00  0.00    -0.353 OA
HETATM   21  C1  UNL     1      20.401   4.569  50.985  1.00  0.00     0.210 C 
ENDBRANCH   1  20
TORSDOF 4
ENDMDL
