MODEL 1
REMARK VINA RESULT:      -8.6      0.000      0.000
REMARK  4 active torsions:
REMARK  status: ('A' for Active; 'I' for Inactive)
REMARK    1  A    between atoms: C2_2  and  N1_3 
REMARK    2  A    between atoms: C2_2  and  S1_14 
REMARK    3  A    between atoms: N1_3  and  C3_4 
REMARK    4  A    between atoms: S1_14  and  C11_15 
ROOT
HETATM    1  N1  UNL     1      26.298   3.197  51.780  1.00  0.00    -0.377 N 
HETATM    2  H5  UNL     1      26.304   4.157  52.195  1.00  0.00     0.161 HD
ENDROOT
BRANCH   1   3
HETATM    3  C2  UNL     1      25.487   2.916  50.616  1.00  0.00     0.144 C 
HETATM    4  C1  UNL     1      25.867   3.774  49.434  1.00  0.00     0.044 C 
BRANCH   3   5
HETATM    5  S1  UNL     1      23.769   3.188  51.115  1.00  0.00    -0.109 SA
BRANCH   5   6
HETATM    6  C11 UNL     1      23.240   1.718  52.034  1.00  0.00    -0.020 C 
HETATM    7  C12 UNL     1      23.615   0.568  52.648  1.00  0.00     0.014 C 
HETATM    8  C13 UNL     1      23.247  -0.657  53.404  1.00  0.00    -0.001 C 
HETATM    9  C14 UNL     1      22.013  -0.980  53.751  1.00  0.00    -0.001 C 
HETATM   10  C15 UNL     1      20.590  -1.166  54.044  1.00  0.00     0.195 C 
HETATM   11  O2  UNL     1      19.829  -0.133  53.557  1.00  0.00    -0.387 OA
HETATM   12  C16 UNL     1      19.809   0.084  52.226  1.00  0.00     0.168 C 
HETATM   13  C17 UNL     1      21.194   0.365  51.651  1.00  0.00     0.031 C 
HETATM   14  C18 UNL     1      21.852   1.473  52.416  1.00  0.00     0.048 C 
ENDBRANCH   5   6
ENDBRANCH   3   5
ENDBRANCH   1   3
BRANCH   1  15
HETATM   15  C3  UNL     1      27.099   2.195  52.387  1.00  0.00     0.029 A 
HETATM   16  C4  UNL     1      28.139   2.464  53.229  1.00  0.00     0.031 A 
HETATM   17  C5  UNL     1      28.907   1.462  53.809  1.00  0.00     0.032 A 
HETATM   18  C6  UNL     1      28.651   0.139  53.556  1.00  0.00     0.041 A 
HETATM   19  C7  UNL     1      27.613  -0.158  52.715  1.00  0.00    -0.021 A 
HETATM   20  N2  UNL     1      29.235  -1.090  53.979  1.00  0.00    -0.326 N 
HETATM   21  C8  UNL     1      26.865   0.857  52.153  1.00  0.00     0.039 A 
HETATM   22  C9  UNL     1      27.466  -1.644  52.544  1.00  0.00     0.144 A 
HETATM   23  C10 UNL     1      28.554  -2.181  53.395  1.00  0.00     0.226 A 
HETATM   24  O1  UNL     1      28.739  -3.417  53.499  1.00  0.00    -0.273 OA
HETATM   25  H11 UNL     1      30.045  -1.160  54.625  1.00  0.00     0.169 HD
ENDBRANCH   1  15
TORSDOF 4
ENDMDL
MODEL 2
REMARK VINA RESULT:      -8.4      2.391      7.019
REMARK  4 active torsions:
REMARK  status: ('A' for Active; 'I' for Inactive)
REMARK    1  A    between atoms: C2_2  and  N1_3 
REMARK    2  A    between atoms: C2_2  and  S1_14 
REMARK    3  A    between atoms: N1_3  and  C3_4 
REMARK    4  A    between atoms: S1_14  and  C11_15 
ROOT
HETATM    1  N1  UNL     1      23.478   1.048  51.522  1.00  0.00    -0.377 N 
HETATM    2  H5  UNL     1      24.130   0.426  50.989  1.00  0.00     0.161 HD
ENDROOT
BRANCH   1   3
HETATM    3  C2  UNL     1      23.703   2.476  51.552  1.00  0.00     0.144 C 
HETATM    4  C1  UNL     1      24.651   2.929  50.468  1.00  0.00     0.044 C 
BRANCH   3   5
HETATM    5  S1  UNL     1      24.342   2.856  53.202  1.00  0.00    -0.109 SA
BRANCH   5   6
HETATM    6  C11 UNL     1      25.991   2.113  53.321  1.00  0.00    -0.020 C 
HETATM    7  C12 UNL     1      27.331   2.322  53.344  1.00  0.00     0.014 C 
HETATM    8  C13 UNL     1      28.710   1.775  53.435  1.00  0.00    -0.001 C 
HETATM    9  C14 UNL     1      28.999   0.491  53.556  1.00  0.00    -0.001 C 
HETATM   10  C15 UNL     1      29.119  -0.963  53.686  1.00  0.00     0.195 C 
HETATM   11  O2  UNL     1      27.893  -1.577  53.710  1.00  0.00    -0.387 OA
HETATM   12  C16 UNL     1      27.092  -1.463  52.630  1.00  0.00     0.168 C 
HETATM   13  C17 UNL     1      26.754  -0.014  52.293  1.00  0.00     0.031 C 
HETATM   14  C18 UNL     1      26.209   0.681  53.503  1.00  0.00     0.048 C 
ENDBRANCH   5   6
ENDBRANCH   3   5
ENDBRANCH   1   3
BRANCH   1  15
HETATM   15  C3  UNL     1      22.385   0.453  52.202  1.00  0.00     0.029 A 
HETATM   16  C4  UNL     1      22.501  -0.204  53.393  1.00  0.00     0.031 A 
HETATM   17  C5  UNL     1      21.412  -0.778  54.037  1.00  0.00     0.032 A 
HETATM   18  C6  UNL     1      20.154  -0.709  53.497  1.00  0.00     0.041 A 
HETATM   19  C7  UNL     1      20.010  -0.056  52.303  1.00  0.00    -0.021 A 
HETATM   20  N2  UNL     1      18.869  -1.181  53.894  1.00  0.00    -0.326 N 
HETATM   21  C8  UNL     1      21.109   0.506  51.685  1.00  0.00     0.039 A 
HETATM   22  C9  UNL     1      18.577  -0.071  51.850  1.00  0.00     0.144 A 
HETATM   23  C10 UNL     1      17.898  -0.819  52.935  1.00  0.00     0.226 A 
HETATM   24  O1  UNL     1      16.663  -1.031  52.894  1.00  0.00    -0.273 OA
HETATM   25  H11 UNL     1      18.686  -1.713  54.767  1.00  0.00     0.169 HD
ENDBRANCH   1  15
TORSDOF 4
ENDMDL
MODEL 3
REMARK VINA RESULT:      -8.4      3.149      6.160
REMARK  4 active torsions:
REMARK  status: ('A' for Active; 'I' for Inactive)
REMARK    1  A    between atoms: C2_2  and  N1_3 
REMARK    2  A    between atoms: C2_2  and  S1_14 
REMARK    3  A    between atoms: N1_3  and  C3_4 
REMARK    4  A    between atoms: S1_14  and  C11_15 
ROOT
HETATM    1  N1  UNL     1      22.553   3.009  51.141  1.00  0.00    -0.377 N 
HETATM    2  H5  UNL     1      21.691   3.434  51.556  1.00  0.00     0.161 HD
ENDROOT
BRANCH   1   3
HETATM    3  C2  UNL     1      22.657   1.574  51.002  1.00  0.00     0.144 C 
HETATM    4  C1  UNL     1      21.447   0.975  50.327  1.00  0.00     0.044 C 
BRANCH   3   5
HETATM    5  S1  UNL     1      22.885   0.916  52.672  1.00  0.00    -0.109 SA
BRANCH   5   6
HETATM    6  C11 UNL     1      24.641   1.099  53.083  1.00  0.00    -0.020 C 
HETATM    7  C12 UNL     1      25.679   1.951  53.277  1.00  0.00     0.014 C 
HETATM    8  C13 UNL     1      27.111   2.168  53.606  1.00  0.00    -0.001 C 
HETATM    9  C14 UNL     1      27.972   1.202  53.874  1.00  0.00    -0.001 C 
HETATM   10  C15 UNL     1      28.772   0.004  54.140  1.00  0.00     0.195 C 
HETATM   11  O2  UNL     1      28.023  -1.142  54.043  1.00  0.00    -0.387 OA
HETATM   12  C16 UNL     1      27.460  -1.447  52.855  1.00  0.00     0.168 C 
HETATM   13  C17 UNL     1      26.511  -0.362  52.354  1.00  0.00     0.031 C 
HETATM   14  C18 UNL     1      25.505  -0.032  53.414  1.00  0.00     0.048 C 
ENDBRANCH   5   6
ENDBRANCH   3   5
ENDBRANCH   1   3
BRANCH   1  15
HETATM   15  C3  UNL     1      23.598   3.874  50.725  1.00  0.00     0.029 A 
HETATM   16  C4  UNL     1      23.571   5.229  50.890  1.00  0.00     0.031 A 
HETATM   17  C5  UNL     1      24.609   6.051  50.473  1.00  0.00     0.032 A 
HETATM   18  C6  UNL     1      25.723   5.531  49.866  1.00  0.00     0.041 A 
HETATM   19  C7  UNL     1      25.776   4.175  49.689  1.00  0.00    -0.021 A 
HETATM   20  N2  UNL     1      26.925   6.087  49.338  1.00  0.00    -0.326 N 
HETATM   21  C8  UNL     1      24.730   3.381  50.114  1.00  0.00     0.039 A 
HETATM   22  C9  UNL     1      27.056   3.769  49.014  1.00  0.00     0.144 A 
HETATM   23  C10 UNL     1      27.748   5.065  48.818  1.00  0.00     0.226 A 
HETATM   24  O1  UNL     1      28.875   5.115  48.270  1.00  0.00    -0.273 OA
HETATM   25  H11 UNL     1      27.150   7.101  49.341  1.00  0.00     0.169 HD
ENDBRANCH   1  15
TORSDOF 4
ENDMDL
MODEL 4
REMARK VINA RESULT:      -8.1      3.196      6.044
REMARK  4 active torsions:
REMARK  status: ('A' for Active; 'I' for Inactive)
REMARK    1  A    between atoms: C2_2  and  N1_3 
REMARK    2  A    between atoms: C2_2  and  S1_14 
REMARK    3  A    between atoms: N1_3  and  C3_4 
REMARK    4  A    between atoms: S1_14  and  C11_15 
ROOT
HETATM    1  N1  UNL     1      22.348   1.947  51.232  1.00  0.00    -0.377 N 
HETATM    2  H5  UNL     1      21.861   1.486  50.429  1.00  0.00     0.161 HD
ENDROOT
BRANCH   1   3
HETATM    3  C2  UNL     1      22.155   3.358  51.480  1.00  0.00     0.144 C 
HETATM    4  C1  UNL     1      20.813   3.653  52.102  1.00  0.00     0.044 C 
BRANCH   3   5
HETATM    5  S1  UNL     1      22.348   4.187  49.882  1.00  0.00    -0.109 SA
BRANCH   5   6
HETATM    6  C11 UNL     1      24.126   4.297  49.548  1.00  0.00    -0.020 C 
HETATM    7  C12 UNL     1      25.328   3.669  49.582  1.00  0.00     0.014 C 
HETATM    8  C13 UNL     1      26.793   3.696  49.332  1.00  0.00    -0.001 C 
HETATM    9  C14 UNL     1      27.450   4.733  48.844  1.00  0.00    -0.001 C 
HETATM   10  C15 UNL     1      27.998   5.976  48.297  1.00  0.00     0.195 C 
HETATM   11  O2  UNL     1      27.024   6.922  48.100  1.00  0.00    -0.387 OA
HETATM   12  C16 UNL     1      26.335   7.372  49.169  1.00  0.00     0.168 C 
HETATM   13  C17 UNL     1      25.602   6.260  49.913  1.00  0.00     0.031 C 
HETATM   14  C18 UNL     1      24.755   5.475  48.957  1.00  0.00     0.048 C 
ENDBRANCH   5   6
ENDBRANCH   3   5
ENDBRANCH   1   3
BRANCH   1  15
HETATM   15  C3  UNL     1      23.188   1.156  52.056  1.00  0.00     0.029 A 
HETATM   16  C4  UNL     1      22.722   0.277  52.991  1.00  0.00     0.031 A 
HETATM   17  C5  UNL     1      23.569  -0.485  53.785  1.00  0.00     0.032 A 
HETATM   18  C6  UNL     1      24.931  -0.386  53.665  1.00  0.00     0.041 A 
HETATM   19  C7  UNL     1      25.425   0.488  52.735  1.00  0.00    -0.021 A 
HETATM   20  N2  UNL     1      26.040  -1.008  54.310  1.00  0.00    -0.326 N 
HETATM   21  C8  UNL     1      24.560   1.233  51.958  1.00  0.00     0.039 A 
HETATM   22  C9  UNL     1      26.928   0.478  52.728  1.00  0.00     0.144 A 
HETATM   23  C10 UNL     1      27.252  -0.518  53.777  1.00  0.00     0.226 A 
HETATM   24  O1  UNL     1      28.444  -0.795  54.056  1.00  0.00    -0.273 OA
HETATM   25  H11 UNL     1      25.954  -1.719  55.062  1.00  0.00     0.169 HD
ENDBRANCH   1  15
TORSDOF 4
ENDMDL
MODEL 5
REMARK VINA RESULT:      -8.1      3.363      6.778
REMARK  4 active torsions:
REMARK  status: ('A' for Active; 'I' for Inactive)
REMARK    1  A    between atoms: C2_2  and  N1_3 
REMARK    2  A    between atoms: C2_2  and  S1_14 
REMARK    3  A    between atoms: N1_3  and  C3_4 
REMARK    4  A    between atoms: S1_14  and  C11_15 
ROOT
HETATM    1  N1  UNL     1      23.216   3.214  50.946  1.00  0.00    -0.377 N 
HETATM    2  H5  UNL     1      22.417   3.780  51.315  1.00  0.00     0.161 HD
ENDROOT
BRANCH   1   3
HETATM    3  C2  UNL     1      23.158   1.770  50.980  1.00  0.00     0.144 C 
HETATM    4  C1  UNL     1      21.870   1.236  50.402  1.00  0.00     0.044 C 
BRANCH   3   5
HETATM    5  S1  UNL     1      23.361   1.293  52.715  1.00  0.00    -0.109 SA
BRANCH   5   6
HETATM    6  C11 UNL     1      25.135   1.347  53.079  1.00  0.00    -0.020 C 
HETATM    7  C12 UNL     1      26.243   2.117  53.216  1.00  0.00     0.014 C 
HETATM    8  C13 UNL     1      27.697   2.229  53.505  1.00  0.00    -0.001 C 
HETATM    9  C14 UNL     1      28.483   1.206  53.790  1.00  0.00    -0.001 C 
HETATM   10  C15 UNL     1      29.190  -0.043  54.085  1.00  0.00     0.195 C 
HETATM   11  O2  UNL     1      28.349  -1.126  54.049  1.00  0.00    -0.387 OA
HETATM   12  C16 UNL     1      27.733  -1.428  52.886  1.00  0.00     0.168 C 
HETATM   13  C17 UNL     1      26.863  -0.288  52.366  1.00  0.00     0.031 C 
HETATM   14  C18 UNL     1      25.913   0.162  53.433  1.00  0.00     0.048 C 
ENDBRANCH   5   6
ENDBRANCH   3   5
ENDBRANCH   1   3
BRANCH   1  15
HETATM   15  C3  UNL     1      24.341   3.900  50.419  1.00  0.00     0.029 A 
HETATM   16  C4  UNL     1      25.414   3.272  49.855  1.00  0.00     0.031 A 
HETATM   17  C5  UNL     1      26.503   3.969  49.347  1.00  0.00     0.032 A 
HETATM   18  C6  UNL     1      26.549   5.339  49.391  1.00  0.00     0.041 A 
HETATM   19  C7  UNL     1      25.485   5.993  49.951  1.00  0.00    -0.021 A 
HETATM   20  N2  UNL     1      27.492   6.322  48.970  1.00  0.00    -0.326 N 
HETATM   21  C8  UNL     1      24.415   5.275  50.448  1.00  0.00     0.039 A 
HETATM   22  C9  UNL     1      25.690   7.481  49.922  1.00  0.00     0.144 A 
HETATM   23  C10 UNL     1      27.015   7.616  49.270  1.00  0.00     0.226 A 
HETATM   24  O1  UNL     1      27.523   8.746  49.073  1.00  0.00    -0.273 OA
HETATM   25  H11 UNL     1      28.397   6.103  48.510  1.00  0.00     0.169 HD
ENDBRANCH   1  15
TORSDOF 4
ENDMDL
MODEL 6
REMARK VINA RESULT:      -7.9      1.405      1.996
REMARK  4 active torsions:
REMARK  status: ('A' for Active; 'I' for Inactive)
REMARK    1  A    between atoms: C2_2  and  N1_3 
REMARK    2  A    between atoms: C2_2  and  S1_14 
REMARK    3  A    between atoms: N1_3  and  C3_4 
REMARK    4  A    between atoms: S1_14  and  C11_15 
ROOT
HETATM    1  N1  UNL     1      25.082   2.973  52.216  1.00  0.00    -0.377 N 
HETATM    2  H5  UNL     1      25.241   3.806  52.828  1.00  0.00     0.161 HD
ENDROOT
BRANCH   1   3
HETATM    3  C2  UNL     1      24.141   3.048  51.121  1.00  0.00     0.144 C 
HETATM    4  C1  UNL     1      24.592   4.005  50.044  1.00  0.00     0.044 C 
BRANCH   3   5
HETATM    5  S1  UNL     1      22.558   3.550  51.842  1.00  0.00    -0.109 SA
BRANCH   5   6
HETATM    6  C11 UNL     1      21.769   2.053  52.492  1.00  0.00    -0.020 C 
HETATM    7  C12 UNL     1      21.900   0.944  53.262  1.00  0.00     0.014 C 
HETATM    8  C13 UNL     1      21.312  -0.298  53.827  1.00  0.00    -0.001 C 
HETATM    9  C14 UNL     1      20.079  -0.714  53.595  1.00  0.00    -0.001 C 
HETATM   10  C15 UNL     1      18.694  -1.010  53.223  1.00  0.00     0.195 C 
HETATM   11  O2  UNL     1      18.170  -0.048  52.399  1.00  0.00    -0.387 OA
HETATM   12  C16 UNL     1      18.741   0.151  51.192  1.00  0.00     0.168 C 
HETATM   13  C17 UNL     1      20.214   0.536  51.292  1.00  0.00     0.031 C 
HETATM   14  C18 UNL     1      20.379   1.702  52.219  1.00  0.00     0.048 C 
ENDBRANCH   5   6
ENDBRANCH   3   5
ENDBRANCH   1   3
BRANCH   1  15
HETATM   15  C3  UNL     1      25.807   1.785  52.492  1.00  0.00     0.029 A 
HETATM   16  C4  UNL     1      25.274   0.532  52.393  1.00  0.00     0.031 A 
HETATM   17  C5  UNL     1      26.008  -0.614  52.670  1.00  0.00     0.032 A 
HETATM   18  C6  UNL     1      27.319  -0.536  53.063  1.00  0.00     0.041 A 
HETATM   19  C7  UNL     1      27.878   0.708  53.170  1.00  0.00    -0.021 A 
HETATM   20  N2  UNL     1      28.316  -1.493  53.412  1.00  0.00    -0.326 N 
HETATM   21  C8  UNL     1      27.126   1.831  52.888  1.00  0.00     0.039 A 
HETATM   22  C9  UNL     1      29.313   0.620  53.608  1.00  0.00     0.144 A 
HETATM   23  C10 UNL     1      29.524  -0.841  53.744  1.00  0.00     0.226 A 
HETATM   24  O1  UNL     1      30.634  -1.301  54.102  1.00  0.00    -0.273 OA
HETATM   25  H11 UNL     1      28.164  -2.521  53.416  1.00  0.00     0.169 HD
ENDBRANCH   1  15
TORSDOF 4
ENDMDL
MODEL 7
REMARK VINA RESULT:      -7.5      3.813      6.194
REMARK  4 active torsions:
REMARK  status: ('A' for Active; 'I' for Inactive)
REMARK    1  A    between atoms: C2_2  and  N1_3 
REMARK    2  A    between atoms: C2_2  and  S1_14 
REMARK    3  A    between atoms: N1_3  and  C3_4 
REMARK    4  A    between atoms: S1_14  and  C11_15 
ROOT
HETATM    1  N1  UNL     1      24.573   3.258  50.038  1.00  0.00    -0.377 N 
HETATM    2  H5  UNL     1      24.777   2.236  49.947  1.00  0.00     0.161 HD
ENDROOT
BRANCH   1   3
HETATM    3  C2  UNL     1      23.382   3.699  50.727  1.00  0.00     0.144 C 
HETATM    4  C1  UNL     1      23.692   4.322  52.066  1.00  0.00     0.044 C 
BRANCH   3   5
HETATM    5  S1  UNL     1      22.321   2.242  50.896  1.00  0.00    -0.109 SA
BRANCH   5   6
HETATM    6  C11 UNL     1      23.071   1.180  52.159  1.00  0.00    -0.020 C 
HETATM    7  C12 UNL     1      24.213   0.651  52.665  1.00  0.00     0.014 C 
HETATM    8  C13 UNL     1      24.889  -0.207  53.673  1.00  0.00    -0.001 C 
HETATM    9  C14 UNL     1      24.264  -0.870  54.630  1.00  0.00    -0.001 C 
HETATM   10  C15 UNL     1      23.401  -1.526  55.615  1.00  0.00     0.195 C 
HETATM   11  O2  UNL     1      22.079  -1.211  55.428  1.00  0.00    -0.387 OA
HETATM   12  C16 UNL     1      21.489  -1.565  54.267  1.00  0.00     0.168 C 
HETATM   13  C17 UNL     1      22.173  -0.958  53.046  1.00  0.00     0.031 C 
HETATM   14  C18 UNL     1      22.299   0.526  53.212  1.00  0.00     0.048 C 
ENDBRANCH   5   6
ENDBRANCH   3   5
ENDBRANCH   1   3
BRANCH   1  15
HETATM   15  C3  UNL     1      25.490   4.181  49.472  1.00  0.00     0.029 A 
HETATM   16  C4  UNL     1      26.824   3.931  49.327  1.00  0.00     0.031 A 
HETATM   17  C5  UNL     1      27.699   4.855  48.769  1.00  0.00     0.032 A 
HETATM   18  C6  UNL     1      27.254   6.077  48.334  1.00  0.00     0.041 A 
HETATM   19  C7  UNL     1      25.920   6.353  48.468  1.00  0.00    -0.021 A 
HETATM   20  N2  UNL     1      27.876   7.211  47.735  1.00  0.00    -0.326 N 
HETATM   21  C8  UNL     1      25.073   5.416  49.025  1.00  0.00     0.039 A 
HETATM   22  C9  UNL     1      25.598   7.724  47.946  1.00  0.00     0.144 A 
HETATM   23  C10 UNL     1      26.919   8.219  47.487  1.00  0.00     0.226 A 
HETATM   24  O1  UNL     1      27.038   9.360  46.981  1.00  0.00    -0.273 OA
HETATM   25  H11 UNL     1      28.890   7.275  47.518  1.00  0.00     0.169 HD
ENDBRANCH   1  15
TORSDOF 4
ENDMDL
MODEL 8
REMARK VINA RESULT:      -7.5      4.291      7.056
REMARK  4 active torsions:
REMARK  status: ('A' for Active; 'I' for Inactive)
REMARK    1  A    between atoms: C2_2  and  N1_3 
REMARK    2  A    between atoms: C2_2  and  S1_14 
REMARK    3  A    between atoms: N1_3  and  C3_4 
REMARK    4  A    between atoms: S1_14  and  C11_15 
ROOT
HETATM    1  N1  UNL     1      24.714   4.856  49.806  1.00  0.00    -0.377 N 
HETATM    2  H5  UNL     1      24.209   5.495  50.463  1.00  0.00     0.161 HD
ENDROOT
BRANCH   1   3
HETATM    3  C2  UNL     1      24.178   3.545  49.518  1.00  0.00     0.144 C 
HETATM    4  C1  UNL     1      23.037   3.597  48.531  1.00  0.00     0.044 C 
BRANCH   3   5
HETATM    5  S1  UNL     1      23.659   2.846  51.105  1.00  0.00    -0.109 SA
BRANCH   5   6
HETATM    6  C11 UNL     1      25.159   2.302  51.965  1.00  0.00    -0.020 C 
HETATM    7  C12 UNL     1      26.507   2.407  52.072  1.00  0.00     0.014 C 
HETATM    8  C13 UNL     1      27.774   2.002  52.737  1.00  0.00    -0.001 C 
HETATM    9  C14 UNL     1      27.853   1.129  53.725  1.00  0.00    -0.001 C 
HETATM   10  C15 UNL     1      27.741   0.145  54.804  1.00  0.00     0.195 C 
HETATM   11  O2  UNL     1      26.439  -0.231  55.019  1.00  0.00    -0.387 OA
HETATM   12  C16 UNL     1      25.769  -0.842  54.020  1.00  0.00     0.168 C 
HETATM   13  C17 UNL     1      25.686   0.009  52.756  1.00  0.00     0.031 C 
HETATM   14  C18 UNL     1      25.141   1.365  53.085  1.00  0.00     0.048 C 
ENDBRANCH   5   6
ENDBRANCH   3   5
ENDBRANCH   1   3
BRANCH   1  15
HETATM   15  C3  UNL     1      25.922   5.311  49.218  1.00  0.00     0.029 A 
HETATM   16  C4  UNL     1      27.025   4.525  49.049  1.00  0.00     0.031 A 
HETATM   17  C5  UNL     1      28.196   4.998  48.470  1.00  0.00     0.032 A 
HETATM   18  C6  UNL     1      28.297   6.295  48.038  1.00  0.00     0.041 A 
HETATM   19  C7  UNL     1      27.206   7.105  48.197  1.00  0.00    -0.021 A 
HETATM   20  N2  UNL     1      29.326   7.066  47.422  1.00  0.00    -0.326 N 
HETATM   21  C8  UNL     1      26.054   6.609  48.774  1.00  0.00     0.039 A 
HETATM   22  C9  UNL     1      27.480   8.488  47.675  1.00  0.00     0.144 A 
HETATM   23  C10 UNL     1      28.876   8.383  47.189  1.00  0.00     0.226 A 
HETATM   24  O1  UNL     1      29.454   9.371  46.675  1.00  0.00    -0.273 OA
HETATM   25  H11 UNL     1      30.268   6.699  47.185  1.00  0.00     0.169 HD
ENDBRANCH   1  15
TORSDOF 4
ENDMDL
MODEL 9
REMARK VINA RESULT:      -7.4      2.544      3.650
REMARK  4 active torsions:
REMARK  status: ('A' for Active; 'I' for Inactive)
REMARK    1  A    between atoms: C2_2  and  N1_3 
REMARK    2  A    between atoms: C2_2  and  S1_14 
REMARK    3  A    between atoms: N1_3  and  C3_4 
REMARK    4  A    between atoms: S1_14  and  C11_15 
ROOT
HETATM    1  N1  UNL     1      25.582   3.423  51.371  1.00  0.00    -0.377 N 
HETATM    2  H5  UNL     1      25.690   4.366  51.811  1.00  0.00     0.161 HD
ENDROOT
BRANCH   1   3
HETATM    3  C2  UNL     1      25.590   3.291  49.931  1.00  0.00     0.144 C 
HETATM    4  C1  UNL     1      26.824   3.897  49.308  1.00  0.00     0.044 C 
BRANCH   3   5
HETATM    5  S1  UNL     1      24.080   4.092  49.338  1.00  0.00    -0.109 SA
BRANCH   5   6
HETATM    6  C11 UNL     1      22.693   3.014  49.785  1.00  0.00    -0.020 C 
HETATM    7  C12 UNL     1      22.088   1.812  49.614  1.00  0.00     0.014 C 
HETATM    8  C13 UNL     1      20.976   0.881  49.937  1.00  0.00    -0.001 C 
HETATM    9  C14 UNL     1      19.989   1.157  50.772  1.00  0.00    -0.001 C 
HETATM   10  C15 UNL     1      18.985   1.642  51.721  1.00  0.00     0.195 C 
HETATM   11  O2  UNL     1      19.269   2.910  52.162  1.00  0.00    -0.387 OA
HETATM   12  C16 UNL     1      19.303   3.914  51.262  1.00  0.00     0.168 C 
HETATM   13  C17 UNL     1      20.332   3.686  50.159  1.00  0.00     0.031 C 
HETATM   14  C18 UNL     1      21.672   3.390  50.760  1.00  0.00     0.048 C 
ENDBRANCH   5   6
ENDBRANCH   3   5
ENDBRANCH   1   3
BRANCH   1  15
HETATM   15  C3  UNL     1      25.431   2.296  52.219  1.00  0.00     0.029 A 
HETATM   16  C4  UNL     1      26.478   1.622  52.779  1.00  0.00     0.031 A 
HETATM   17  C5  UNL     1      26.300   0.521  53.606  1.00  0.00     0.032 A 
HETATM   18  C6  UNL     1      25.045   0.053  53.900  1.00  0.00     0.041 A 
HETATM   19  C7  UNL     1      23.977   0.710  53.352  1.00  0.00    -0.021 A 
HETATM   20  N2  UNL     1      24.538  -1.020  54.689  1.00  0.00    -0.326 N 
HETATM   21  C8  UNL     1      24.183   1.803  52.534  1.00  0.00     0.039 A 
HETATM   22  C9  UNL     1      22.681   0.076  53.771  1.00  0.00     0.144 A 
HETATM   23  C10 UNL     1      23.127  -1.040  54.637  1.00  0.00     0.226 A 
HETATM   24  O1  UNL     1      22.295  -1.807  55.179  1.00  0.00    -0.273 OA
HETATM   25  H11 UNL     1      25.132  -1.685  55.221  1.00  0.00     0.169 HD
ENDBRANCH   1  15
TORSDOF 4
ENDMDL
