MODEL 1
REMARK VINA RESULT:      -8.4      0.000      0.000
REMARK  4 active torsions:
REMARK  status: ('A' for Active; 'I' for Inactive)
REMARK    1  A    between atoms: C5_5  and  C6_6 
REMARK    2  A    between atoms: N2_8  and  C7_9 
REMARK    3  A    between atoms: C8_11  and  O1_12 
REMARK    4  A    between atoms: C10_15  and  C11_16 
ROOT
HETATM    1  C6  UNL     1      25.601   2.083  52.456  1.00  0.00     0.067 C 
HETATM    2  N1  UNL     1      25.281   2.476  51.291  1.00  0.00    -0.173 NA
HETATM    3  N2  UNL     1      24.097   3.228  51.317  1.00  0.00    -0.237 N 
HETATM    4  C10 UNL     1      23.472   3.149  52.623  1.00  0.00     0.148 C 
HETATM    5  C17 UNL     1      24.590   2.567  53.458  1.00  0.00     0.094 C 
ENDROOT
BRANCH   4   6
HETATM    6  C11 UNL     1      22.254   2.269  52.616  1.00  0.00    -0.049 A 
HETATM    7  C12 UNL     1      22.332   1.086  53.154  1.00  0.00     0.019 A 
HETATM    8  C13 UNL     1      21.272   0.085  53.250  1.00  0.00    -0.008 A 
HETATM    9  C14 UNL     1      21.473  -1.091  53.825  1.00  0.00     0.199 C 
HETATM   10  C15 UNL     1      19.977   0.441  52.684  1.00  0.00     0.025 A 
HETATM   11  F1  UNL     1      20.510  -2.018  53.921  1.00  0.00    -0.218 F 
HETATM   12  P1  UNL     1      19.690   1.907  51.958  1.00  0.00    -0.056 P 
HETATM   13  C16 UNL     1      21.178   3.038  51.941  1.00  0.00     0.079 A 
ENDBRANCH   4   6
BRANCH   3  14
HETATM   14  C7  UNL     1      23.756   3.904  50.079  1.00  0.00     0.192 A 
HETATM   15  N3  UNL     1      23.076   3.586  48.978  1.00  0.00    -0.198 NA
HETATM   16  C8  UNL     1      23.042   4.585  48.087  1.00  0.00     0.171 A 
HETATM   17  C9  UNL     1      23.679   5.999  48.195  1.00  0.00     0.111 A 
HETATM   18  S1  UNL     1      24.410   5.682  49.919  1.00  0.00    -0.058 SA
BRANCH  16  19
HETATM   19  O1  UNL     1      22.292   4.085  46.997  1.00  0.00    -0.344 OA
HETATM   20  H6  UNL     1      21.907   3.159  47.065  1.00  0.00     0.219 HD
ENDBRANCH  16  19
ENDBRANCH   3  14
BRANCH   1  21
HETATM   21  C5  UNL     1      26.766   1.282  52.807  1.00  0.00    -0.010 A 
HETATM   22  C4  UNL     1      27.928   1.894  53.195  1.00  0.00     0.014 A 
HETATM   23  C3  UNL     1      29.027   1.108  53.526  1.00  0.00     0.007 A 
HETATM   24  C2  UNL     1      28.981  -0.278  53.475  1.00  0.00    -0.062 A 
HETATM   25  C1  UNL     1      30.168  -1.106  53.832  1.00  0.00     0.048 C 
HETATM   26  C19 UNL     1      27.807  -0.919  53.082  1.00  0.00     0.007 A 
HETATM   27  C18 UNL     1      26.744  -0.097  52.764  1.00  0.00     0.014 A 
ENDBRANCH   1  21
TORSDOF 4
ENDMDL
MODEL 2
REMARK VINA RESULT:      -8.2      3.082      4.964
REMARK  4 active torsions:
REMARK  status: ('A' for Active; 'I' for Inactive)
REMARK    1  A    between atoms: C5_5  and  C6_6 
REMARK    2  A    between atoms: N2_8  and  C7_9 
REMARK    3  A    between atoms: C8_11  and  O1_12 
REMARK    4  A    between atoms: C10_15  and  C11_16 
ROOT
HETATM    1  C6  UNL     1      24.085   4.200  50.491  1.00  0.00     0.067 C 
HETATM    2  N1  UNL     1      23.032   3.765  49.930  1.00  0.00    -0.173 NA
HETATM    3  N2  UNL     1      22.095   3.329  50.879  1.00  0.00    -0.237 N 
HETATM    4  C10 UNL     1      22.687   3.297  52.201  1.00  0.00     0.148 C 
HETATM    5  C17 UNL     1      23.954   4.094  51.984  1.00  0.00     0.094 C 
ENDROOT
BRANCH   4   6
HETATM    6  C11 UNL     1      22.972   1.896  52.662  1.00  0.00    -0.049 A 
HETATM    7  C12 UNL     1      24.186   1.437  52.561  1.00  0.00     0.019 A 
HETATM    8  C13 UNL     1      24.668   0.113  52.948  1.00  0.00    -0.008 A 
HETATM    9  C14 UNL     1      25.936  -0.240  52.796  1.00  0.00     0.199 C 
HETATM   10  C15 UNL     1      23.687  -0.805  53.512  1.00  0.00     0.025 A 
HETATM   11  F1  UNL     1      26.391  -1.450  53.147  1.00  0.00    -0.218 F 
HETATM   12  P1  UNL     1      22.091  -0.395  53.718  1.00  0.00    -0.056 P 
HETATM   13  C16 UNL     1      21.687   1.342  53.159  1.00  0.00     0.079 A 
ENDBRANCH   4   6
BRANCH   3  14
HETATM   14  C7  UNL     1      20.777   3.012  50.359  1.00  0.00     0.192 A 
HETATM   15  N3  UNL     1      20.140   1.900  49.997  1.00  0.00    -0.198 NA
HETATM   16  C8  UNL     1      18.894   2.137  49.566  1.00  0.00     0.171 A 
HETATM   17  C9  UNL     1      18.153   3.499  49.451  1.00  0.00     0.111 A 
HETATM   18  S1  UNL     1      19.626   4.504  50.107  1.00  0.00    -0.058 SA
BRANCH  16  19
HETATM   19  O1  UNL     1      18.371   0.867  49.228  1.00  0.00    -0.344 OA
HETATM   20  H6  UNL     1      17.800   0.389  49.903  1.00  0.00     0.219 HD
ENDBRANCH  16  19
ENDBRANCH   3  14
BRANCH   1  21
HETATM   21  C5  UNL     1      25.265   4.731  49.820  1.00  0.00    -0.010 A 
HETATM   22  C4  UNL     1      26.314   3.903  49.521  1.00  0.00     0.014 A 
HETATM   23  C3  UNL     1      27.429   4.432  48.880  1.00  0.00     0.007 A 
HETATM   24  C2  UNL     1      27.510   5.774  48.534  1.00  0.00    -0.062 A 
HETATM   25  C1  UNL     1      28.713   6.325  47.848  1.00  0.00     0.048 C 
HETATM   26  C19 UNL     1      26.453   6.632  48.830  1.00  0.00     0.007 A 
HETATM   27  C18 UNL     1      25.369   6.060  49.467  1.00  0.00     0.014 A 
ENDBRANCH   1  21
TORSDOF 4
ENDMDL
MODEL 3
REMARK VINA RESULT:      -8.2      3.714      7.340
REMARK  4 active torsions:
REMARK  status: ('A' for Active; 'I' for Inactive)
REMARK    1  A    between atoms: C5_5  and  C6_6 
REMARK    2  A    between atoms: N2_8  and  C7_9 
REMARK    3  A    between atoms: C8_11  and  O1_12 
REMARK    4  A    between atoms: C10_15  and  C11_16 
ROOT
HETATM    1  C6  UNL     1      21.208   0.604  52.746  1.00  0.00     0.067 C 
HETATM    2  N1  UNL     1      22.343   0.033  52.753  1.00  0.00    -0.173 NA
HETATM    3  N2  UNL     1      23.383   0.971  52.840  1.00  0.00    -0.237 N 
HETATM    4  C10 UNL     1      22.869   2.316  52.675  1.00  0.00     0.148 C 
HETATM    5  C17 UNL     1      21.382   2.094  52.836  1.00  0.00     0.094 C 
ENDROOT
BRANCH   4   6
HETATM    6  C11 UNL     1      23.213   2.893  51.331  1.00  0.00    -0.049 A 
HETATM    7  C12 UNL     1      22.724   2.330  50.263  1.00  0.00     0.019 A 
HETATM    8  C13 UNL     1      22.935   2.733  48.874  1.00  0.00    -0.008 A 
HETATM    9  C14 UNL     1      22.380   2.077  47.866  1.00  0.00     0.199 C 
HETATM   10  C15 UNL     1      23.787   3.893  48.646  1.00  0.00     0.025 A 
HETATM   11  F1  UNL     1      22.564   2.434  46.588  1.00  0.00    -0.218 F 
HETATM   12  P1  UNL     1      24.497   4.739  49.887  1.00  0.00    -0.056 P 
HETATM   13  C16 UNL     1      24.098   4.059  51.581  1.00  0.00     0.079 A 
ENDBRANCH   4   6
BRANCH   3  14
HETATM   14  C7  UNL     1      24.705   0.420  53.070  1.00  0.00     0.192 A 
HETATM   15  N3  UNL     1      25.274  -0.777  52.931  1.00  0.00    -0.198 NA
HETATM   16  C8  UNL     1      26.565  -0.778  53.288  1.00  0.00     0.171 A 
HETATM   17  C9  UNL     1      27.423   0.405  53.818  1.00  0.00     0.111 A 
HETATM   18  S1  UNL     1      25.993   1.653  53.731  1.00  0.00    -0.058 SA
BRANCH  16  19
HETATM   19  O1  UNL     1      27.006  -2.106  53.081  1.00  0.00    -0.344 OA
HETATM   20  H6  UNL     1      26.320  -2.840  53.054  1.00  0.00     0.219 HD
ENDBRANCH  16  19
ENDBRANCH   3  14
BRANCH   1  21
HETATM   21  C5  UNL     1      19.910  -0.053  52.665  1.00  0.00    -0.010 A 
HETATM   22  C4  UNL     1      19.557  -0.990  53.600  1.00  0.00     0.014 A 
HETATM   23  C3  UNL     1      18.312  -1.603  53.502  1.00  0.00     0.007 A 
HETATM   24  C2  UNL     1      17.419  -1.296  52.486  1.00  0.00    -0.062 A 
HETATM   25  C1  UNL     1      16.089  -1.963  52.395  1.00  0.00     0.048 C 
HETATM   26  C19 UNL     1      17.761  -0.345  51.525  1.00  0.00     0.007 A 
HETATM   27  C18 UNL     1      19.006   0.236  51.664  1.00  0.00     0.014 A 
ENDBRANCH   1  21
TORSDOF 4
ENDMDL
MODEL 4
REMARK VINA RESULT:      -8.2      3.178      4.787
REMARK  4 active torsions:
REMARK  status: ('A' for Active; 'I' for Inactive)
REMARK    1  A    between atoms: C5_5  and  C6_6 
REMARK    2  A    between atoms: N2_8  and  C7_9 
REMARK    3  A    between atoms: C8_11  and  O1_12 
REMARK    4  A    between atoms: C10_15  and  C11_16 
ROOT
HETATM    1  C6  UNL     1      24.065   4.207  50.480  1.00  0.00     0.067 C 
HETATM    2  N1  UNL     1      23.030   3.731  49.918  1.00  0.00    -0.173 NA
HETATM    3  N2  UNL     1      22.083   3.316  50.867  1.00  0.00    -0.237 N 
HETATM    4  C10 UNL     1      22.651   3.347  52.200  1.00  0.00     0.148 C 
HETATM    5  C17 UNL     1      23.907   4.157  51.974  1.00  0.00     0.094 C 
ENDROOT
BRANCH   4   6
HETATM    6  C11 UNL     1      22.952   1.970  52.720  1.00  0.00    -0.049 A 
HETATM    7  C12 UNL     1      21.967   1.231  53.144  1.00  0.00     0.019 A 
HETATM    8  C13 UNL     1      22.046  -0.125  53.684  1.00  0.00    -0.008 A 
HETATM    9  C14 UNL     1      20.967  -0.780  54.086  1.00  0.00     0.199 C 
HETATM   10  C15 UNL     1      23.371  -0.727  53.761  1.00  0.00     0.025 A 
HETATM   11  F1  UNL     1      21.024  -2.022  54.582  1.00  0.00    -0.218 F 
HETATM   12  P1  UNL     1      24.744   0.065  53.266  1.00  0.00    -0.056 P 
HETATM   13  C16 UNL     1      24.421   1.784  52.609  1.00  0.00     0.079 A 
ENDBRANCH   4   6
BRANCH   3  14
HETATM   14  C7  UNL     1      20.781   2.956  50.336  1.00  0.00     0.192 A 
HETATM   15  N3  UNL     1      20.119   1.817  50.131  1.00  0.00    -0.198 NA
HETATM   16  C8  UNL     1      18.906   2.016  49.600  1.00  0.00     0.171 A 
HETATM   17  C9  UNL     1      18.224   3.360  49.219  1.00  0.00     0.111 A 
HETATM   18  S1  UNL     1      19.701   4.417  49.777  1.00  0.00    -0.058 SA
BRANCH  16  19
HETATM   19  O1  UNL     1      18.351   0.723  49.451  1.00  0.00    -0.344 OA
HETATM   20  H6  UNL     1      18.130   0.198  50.278  1.00  0.00     0.219 HD
ENDBRANCH  16  19
ENDBRANCH   3  14
BRANCH   1  21
HETATM   21  C5  UNL     1      25.247   4.732  49.810  1.00  0.00    -0.010 A 
HETATM   22  C4  UNL     1      26.290   3.898  49.506  1.00  0.00     0.014 A 
HETATM   23  C3  UNL     1      27.408   4.422  48.866  1.00  0.00     0.007 A 
HETATM   24  C2  UNL     1      27.498   5.765  48.526  1.00  0.00    -0.062 A 
HETATM   25  C1  UNL     1      28.704   6.310  47.840  1.00  0.00     0.048 C 
HETATM   26  C19 UNL     1      26.447   6.629  48.827  1.00  0.00     0.007 A 
HETATM   27  C18 UNL     1      25.360   6.062  49.462  1.00  0.00     0.014 A 
ENDBRANCH   1  21
TORSDOF 4
ENDMDL
MODEL 5
REMARK VINA RESULT:      -8.0      1.572      2.052
REMARK  4 active torsions:
REMARK  status: ('A' for Active; 'I' for Inactive)
REMARK    1  A    between atoms: C5_5  and  C6_6 
REMARK    2  A    between atoms: N2_8  and  C7_9 
REMARK    3  A    between atoms: C8_11  and  O1_12 
REMARK    4  A    between atoms: C10_15  and  C11_16 
ROOT
HETATM    1  C6  UNL     1      25.647   2.359  52.395  1.00  0.00     0.067 C 
HETATM    2  N1  UNL     1      25.421   2.873  51.255  1.00  0.00    -0.173 NA
HETATM    3  N2  UNL     1      24.280   3.689  51.284  1.00  0.00    -0.237 N 
HETATM    4  C10 UNL     1      23.573   3.531  52.540  1.00  0.00     0.148 C 
HETATM    5  C17 UNL     1      24.605   2.811  53.379  1.00  0.00     0.094 C 
ENDROOT
BRANCH   4   6
HETATM    6  C11 UNL     1      22.312   2.730  52.384  1.00  0.00    -0.049 A 
HETATM    7  C12 UNL     1      21.214   3.346  52.054  1.00  0.00     0.019 A 
HETATM    8  C13 UNL     1      19.892   2.756  51.854  1.00  0.00    -0.008 A 
HETATM    9  C14 UNL     1      18.843   3.491  51.517  1.00  0.00     0.199 C 
HETATM   10  C15 UNL     1      19.779   1.315  52.042  1.00  0.00     0.025 A 
HETATM   11  F1  UNL     1      17.627   2.964  51.330  1.00  0.00    -0.218 F 
HETATM   12  P1  UNL     1      21.073   0.363  52.463  1.00  0.00    -0.056 P 
HETATM   13  C16 UNL     1      22.668   1.316  52.669  1.00  0.00     0.079 A 
ENDBRANCH   4   6
BRANCH   3  14
HETATM   14  C7  UNL     1      24.054   4.491  50.096  1.00  0.00     0.192 A 
HETATM   15  N3  UNL     1      23.234   4.427  49.048  1.00  0.00    -0.198 NA
HETATM   16  C8  UNL     1      23.417   5.438  48.188  1.00  0.00     0.171 A 
HETATM   17  C9  UNL     1      24.430   6.614  48.280  1.00  0.00     0.111 A 
HETATM   18  S1  UNL     1      25.165   6.024  49.929  1.00  0.00    -0.058 SA
BRANCH  16  19
HETATM   19  O1  UNL     1      22.480   5.218  47.152  1.00  0.00    -0.344 OA
HETATM   20  H6  UNL     1      21.518   5.065  47.400  1.00  0.00     0.219 HD
ENDBRANCH  16  19
ENDBRANCH   3  14
BRANCH   1  21
HETATM   21  C5  UNL     1      26.744   1.462  52.736  1.00  0.00    -0.010 A 
HETATM   22  C4  UNL     1      27.917   1.968  53.228  1.00  0.00     0.014 A 
HETATM   23  C3  UNL     1      28.949   1.092  53.548  1.00  0.00     0.007 A 
HETATM   24  C2  UNL     1      28.825  -0.280  53.381  1.00  0.00    -0.062 A 
HETATM   25  C1  UNL     1      29.941  -1.206  53.727  1.00  0.00     0.048 C 
HETATM   26  C19 UNL     1      27.639  -0.815  52.880  1.00  0.00     0.007 A 
HETATM   27  C18 UNL     1      26.644   0.095  52.579  1.00  0.00     0.014 A 
ENDBRANCH   1  21
TORSDOF 4
ENDMDL
MODEL 6
REMARK VINA RESULT:      -8.0      4.490      6.153
REMARK  4 active torsions:
REMARK  status: ('A' for Active; 'I' for Inactive)
REMARK    1  A    between atoms: C5_5  and  C6_6 
REMARK    2  A    between atoms: N2_8  and  C7_9 
REMARK    3  A    between atoms: C8_11  and  O1_12 
REMARK    4  A    between atoms: C10_15  and  C11_16 
ROOT
HETATM    1  C6  UNL     1      26.223   2.697  51.061  1.00  0.00     0.067 C 
HETATM    2  N1  UNL     1      25.211   3.374  51.423  1.00  0.00    -0.173 NA
HETATM    3  N2  UNL     1      24.703   4.135  50.359  1.00  0.00    -0.237 N 
HETATM    4  C10 UNL     1      25.608   4.096  49.228  1.00  0.00     0.148 C 
HETATM    5  C17 UNL     1      26.519   2.952  49.610  1.00  0.00     0.094 C 
ENDROOT
BRANCH   4   6
HETATM    6  C11 UNL     1      26.359   5.385  49.057  1.00  0.00    -0.049 A 
HETATM    7  C12 UNL     1      25.779   6.499  49.401  1.00  0.00     0.019 A 
HETATM    8  C13 UNL     1      26.333   7.849  49.315  1.00  0.00    -0.008 A 
HETATM    9  C14 UNL     1      25.641   8.912  49.699  1.00  0.00     0.199 C 
HETATM   10  C15 UNL     1      27.685   7.974  48.787  1.00  0.00     0.025 A 
HETATM   11  F1  UNL     1      26.136  10.155  49.626  1.00  0.00    -0.218 F 
HETATM   12  P1  UNL     1      28.580   6.663  48.298  1.00  0.00    -0.056 P 
HETATM   13  C16 UNL     1      27.686   5.033  48.491  1.00  0.00     0.079 A 
ENDBRANCH   4   6
BRANCH   3  14
HETATM   14  C7  UNL     1      23.425   4.779  50.604  1.00  0.00     0.192 A 
HETATM   15  N3  UNL     1      23.023   6.016  50.894  1.00  0.00    -0.198 NA
HETATM   16  C8  UNL     1      21.694   6.107  51.030  1.00  0.00     0.171 A 
HETATM   17  C9  UNL     1      20.629   4.984  50.891  1.00  0.00     0.111 A 
HETATM   18  S1  UNL     1      21.909   3.636  50.501  1.00  0.00    -0.058 SA
BRANCH  16  19
HETATM   19  O1  UNL     1      21.445   7.466  51.331  1.00  0.00    -0.344 OA
HETATM   20  H6  UNL     1      20.881   8.003  50.695  1.00  0.00     0.219 HD
ENDBRANCH  16  19
ENDBRANCH   3  14
BRANCH   1  21
HETATM   21  C5  UNL     1      27.005   1.797  51.899  1.00  0.00    -0.010 A 
HETATM   22  C4  UNL     1      26.755   0.451  51.878  1.00  0.00     0.014 A 
HETATM   23  C3  UNL     1      27.515  -0.389  52.686  1.00  0.00     0.007 A 
HETATM   24  C2  UNL     1      28.517   0.097  53.513  1.00  0.00    -0.062 A 
HETATM   25  C1  UNL     1      29.322  -0.816  54.373  1.00  0.00     0.048 C 
HETATM   26  C19 UNL     1      28.786   1.465  53.548  1.00  0.00     0.007 A 
HETATM   27  C18 UNL     1      28.006   2.257  52.729  1.00  0.00     0.014 A 
ENDBRANCH   1  21
TORSDOF 4
ENDMDL
MODEL 7
REMARK VINA RESULT:      -7.9      4.467      6.094
REMARK  4 active torsions:
REMARK  status: ('A' for Active; 'I' for Inactive)
REMARK    1  A    between atoms: C5_5  and  C6_6 
REMARK    2  A    between atoms: N2_8  and  C7_9 
REMARK    3  A    between atoms: C8_11  and  O1_12 
REMARK    4  A    between atoms: C10_15  and  C11_16 
ROOT
HETATM    1  C6  UNL     1      26.137   2.617  51.044  1.00  0.00     0.067 C 
HETATM    2  N1  UNL     1      25.169   3.359  51.401  1.00  0.00    -0.173 NA
HETATM    3  N2  UNL     1      24.617   4.035  50.302  1.00  0.00    -0.237 N 
HETATM    4  C10 UNL     1      25.447   3.860  49.127  1.00  0.00     0.148 C 
HETATM    5  C17 UNL     1      26.349   2.726  49.560  1.00  0.00     0.094 C 
ENDROOT
BRANCH   4   6
HETATM    6  C11 UNL     1      26.222   5.102  48.791  1.00  0.00    -0.049 A 
HETATM    7  C12 UNL     1      27.516   5.021  48.668  1.00  0.00     0.019 A 
HETATM    8  C13 UNL     1      28.445   6.102  48.348  1.00  0.00    -0.008 A 
HETATM    9  C14 UNL     1      29.749   5.894  48.250  1.00  0.00     0.199 C 
HETATM   10  C15 UNL     1      27.870   7.425  48.140  1.00  0.00     0.025 A 
HETATM   11  F1  UNL     1      30.613   6.876  47.957  1.00  0.00    -0.218 F 
HETATM   12  P1  UNL     1      26.239   7.720  48.254  1.00  0.00    -0.056 P 
HETATM   13  C16 UNL     1      25.232   6.203  48.672  1.00  0.00     0.079 A 
ENDBRANCH   4   6
BRANCH   3  14
HETATM   14  C7  UNL     1      23.376   4.741  50.561  1.00  0.00     0.192 A 
HETATM   15  N3  UNL     1      23.046   5.964  50.974  1.00  0.00    -0.198 NA
HETATM   16  C8  UNL     1      21.721   6.139  51.059  1.00  0.00     0.171 A 
HETATM   17  C9  UNL     1      20.588   5.122  50.743  1.00  0.00     0.111 A 
HETATM   18  S1  UNL     1      21.792   3.734  50.258  1.00  0.00    -0.058 SA
BRANCH  16  19
HETATM   19  O1  UNL     1      21.550   7.470  51.504  1.00  0.00    -0.344 OA
HETATM   20  H6  UNL     1      21.464   7.639  52.492  1.00  0.00     0.219 HD
ENDBRANCH  16  19
ENDBRANCH   3  14
BRANCH   1  21
HETATM   21  C5  UNL     1      26.945   1.772  51.914  1.00  0.00    -0.010 A 
HETATM   22  C4  UNL     1      27.919   2.330  52.699  1.00  0.00     0.014 A 
HETATM   23  C3  UNL     1      28.676   1.504  53.523  1.00  0.00     0.007 A 
HETATM   24  C2  UNL     1      28.475   0.131  53.572  1.00  0.00    -0.062 A 
HETATM   25  C1  UNL     1      29.296  -0.740  54.460  1.00  0.00     0.048 C 
HETATM   26  C19 UNL     1      27.488  -0.454  52.781  1.00  0.00     0.007 A 
HETATM   27  C18 UNL     1      26.763   0.407  51.981  1.00  0.00     0.014 A 
ENDBRANCH   1  21
TORSDOF 4
ENDMDL
MODEL 8
REMARK VINA RESULT:      -7.8      2.976      5.914
REMARK  4 active torsions:
REMARK  status: ('A' for Active; 'I' for Inactive)
REMARK    1  A    between atoms: C5_5  and  C6_6 
REMARK    2  A    between atoms: N2_8  and  C7_9 
REMARK    3  A    between atoms: C8_11  and  O1_12 
REMARK    4  A    between atoms: C10_15  and  C11_16 
ROOT
HETATM    1  C6  UNL     1      25.135   3.995  50.395  1.00  0.00     0.067 C 
HETATM    2  N1  UNL     1      25.830   3.327  51.222  1.00  0.00    -0.173 NA
HETATM    3  N2  UNL     1      25.390   1.997  51.296  1.00  0.00    -0.237 N 
HETATM    4  C10 UNL     1      24.140   1.834  50.580  1.00  0.00     0.148 C 
HETATM    5  C17 UNL     1      24.078   3.118  49.785  1.00  0.00     0.094 C 
ENDROOT
BRANCH   4   6
HETATM    6  C11 UNL     1      22.969   1.687  51.509  1.00  0.00    -0.049 A 
HETATM    7  C12 UNL     1      23.004   0.757  52.420  1.00  0.00     0.019 A 
HETATM    8  C13 UNL     1      21.976   0.450  53.413  1.00  0.00    -0.008 A 
HETATM    9  C14 UNL     1      22.127  -0.527  54.294  1.00  0.00     0.199 C 
HETATM   10  C15 UNL     1      20.773   1.272  53.390  1.00  0.00     0.025 A 
HETATM   11  F1  UNL     1      21.194  -0.819  55.210  1.00  0.00    -0.218 F 
HETATM   12  P1  UNL     1      20.551   2.505  52.300  1.00  0.00    -0.056 P 
HETATM   13  C16 UNL     1      21.984   2.728  51.121  1.00  0.00     0.079 A 
ENDBRANCH   4   6
BRANCH   3  14
HETATM   14  C7  UNL     1      26.244   1.095  52.046  1.00  0.00     0.192 A 
HETATM   15  N3  UNL     1      26.360  -0.227  52.166  1.00  0.00    -0.198 NA
HETATM   16  C8  UNL     1      27.335  -0.585  53.011  1.00  0.00     0.171 A 
HETATM   17  C9  UNL     1      28.295   0.330  53.823  1.00  0.00     0.111 A 
HETATM   18  S1  UNL     1      27.542   1.939  53.150  1.00  0.00    -0.058 SA
BRANCH  16  19
HETATM   19  O1  UNL     1      27.319  -1.999  53.019  1.00  0.00    -0.344 OA
HETATM   20  H6  UNL     1      26.472  -2.468  53.289  1.00  0.00     0.219 HD
ENDBRANCH  16  19
ENDBRANCH   3  14
BRANCH   1  21
HETATM   21  C5  UNL     1      25.306   5.404  50.063  1.00  0.00    -0.010 A 
HETATM   22  C4  UNL     1      26.196   5.776  49.092  1.00  0.00     0.014 A 
HETATM   23  C3  UNL     1      26.342   7.126  48.791  1.00  0.00     0.007 A 
HETATM   24  C2  UNL     1      25.612   8.108  49.448  1.00  0.00    -0.062 A 
HETATM   25  C1  UNL     1      25.780   9.551  49.114  1.00  0.00     0.048 C 
HETATM   26  C19 UNL     1      24.701   7.748  50.439  1.00  0.00     0.007 A 
HETATM   27  C18 UNL     1      24.592   6.397  50.701  1.00  0.00     0.014 A 
ENDBRANCH   1  21
TORSDOF 4
ENDMDL
MODEL 9
REMARK VINA RESULT:      -7.7      4.015      5.696
REMARK  4 active torsions:
REMARK  status: ('A' for Active; 'I' for Inactive)
REMARK    1  A    between atoms: C5_5  and  C6_6 
REMARK    2  A    between atoms: N2_8  and  C7_9 
REMARK    3  A    between atoms: C8_11  and  O1_12 
REMARK    4  A    between atoms: C10_15  and  C11_16 
ROOT
HETATM    1  C6  UNL     1      25.652   2.275  51.116  1.00  0.00     0.067 C 
HETATM    2  N1  UNL     1      24.432   2.475  51.407  1.00  0.00    -0.173 NA
HETATM    3  N2  UNL     1      23.795   3.243  50.421  1.00  0.00    -0.237 N 
HETATM    4  C10 UNL     1      24.764   3.766  49.479  1.00  0.00     0.148 C 
HETATM    5  C17 UNL     1      25.984   2.936  49.809  1.00  0.00     0.094 C 
ENDROOT
BRANCH   4   6
HETATM    6  C11 UNL     1      25.010   5.235  49.674  1.00  0.00    -0.049 A 
HETATM    7  C12 UNL     1      26.090   5.763  49.175  1.00  0.00     0.019 A 
HETATM    8  C13 UNL     1      26.512   7.160  49.252  1.00  0.00    -0.008 A 
HETATM    9  C14 UNL     1      27.641   7.579  48.701  1.00  0.00     0.199 C 
HETATM   10  C15 UNL     1      25.631   8.075  49.966  1.00  0.00     0.025 A 
HETATM   11  F1  UNL     1      28.039   8.856  48.763  1.00  0.00    -0.218 F 
HETATM   12  P1  UNL     1      24.209   7.583  50.669  1.00  0.00    -0.056 P 
HETATM   13  C16 UNL     1      23.859   5.760  50.453  1.00  0.00     0.079 A 
ENDBRANCH   4   6
BRANCH   3  14
HETATM   14  C7  UNL     1      22.353   3.351  50.545  1.00  0.00     0.192 A 
HETATM   15  N3  UNL     1      21.485   3.379  51.556  1.00  0.00    -0.198 NA
HETATM   16  C8  UNL     1      20.217   3.494  51.142  1.00  0.00     0.171 A 
HETATM   17  C9  UNL     1      19.679   3.593  49.686  1.00  0.00     0.111 A 
HETATM   18  S1  UNL     1      21.406   3.489  48.902  1.00  0.00    -0.058 SA
BRANCH  16  19
HETATM   19  O1  UNL     1      19.441   3.508  52.324  1.00  0.00    -0.344 OA
HETATM   20  H6  UNL     1      18.472   3.769  52.259  1.00  0.00     0.219 HD
ENDBRANCH  16  19
ENDBRANCH   3  14
BRANCH   1  21
HETATM   21  C5  UNL     1      26.616   1.521  51.908  1.00  0.00    -0.010 A 
HETATM   22  C4  UNL     1      26.533   0.156  51.972  1.00  0.00     0.014 A 
HETATM   23  C3  UNL     1      27.465  -0.542  52.733  1.00  0.00     0.007 A 
HETATM   24  C2  UNL     1      28.476   0.104  53.430  1.00  0.00    -0.062 A 
HETATM   25  C1  UNL     1      29.467  -0.658  54.241  1.00  0.00     0.048 C 
HETATM   26  C19 UNL     1      28.577   1.493  53.377  1.00  0.00     0.007 A 
HETATM   27  C18 UNL     1      27.630   2.141  52.609  1.00  0.00     0.014 A 
ENDBRANCH   1  21
TORSDOF 4
ENDMDL
