MODEL 1
REMARK VINA RESULT:      -7.6      0.000      0.000
REMARK  8 active torsions:
REMARK  status: ('A' for Active; 'I' for Inactive)
REMARK    1  A    between atoms: C2_2  and  C3_3 
REMARK    2  A    between atoms: C3_3  and  C4_4 
REMARK    3  A    between atoms: C4_4  and  C5_5 
REMARK    4  A    between atoms: C5_5  and  C6_6 
REMARK       I    between atoms: C6_6  and  N1_8 
REMARK    5  A    between atoms: N1_8  and  C7_9 
REMARK    6  A    between atoms: C11_13  and  N2_14 
REMARK    7  A    between atoms: N3_16  and  C13_17 
REMARK    8  A    between atoms: C15_19  and  N5_23 
ROOT
HETATM    1  C7  UNL     1      25.744   1.923  52.779  1.00  0.00     0.036 A 
HETATM    2  C8  UNL     1      26.485   1.548  51.685  1.00  0.00     0.029 A 
HETATM    3  C9  UNL     1      27.027   0.286  51.680  1.00  0.00     0.004 A 
HETATM    4  C10 UNL     1      26.854  -0.602  52.721  1.00  0.00     0.029 A 
HETATM    5  C11 UNL     1      26.111  -0.195  53.793  1.00  0.00     0.036 A 
HETATM    6  C18 UNL     1      25.554   1.044  53.847  1.00  0.00     0.059 A 
ENDROOT
BRANCH   5   7
HETATM    7  N2  UNL     1      25.742  -0.899  54.970  1.00  0.00    -0.324 N 
HETATM    8  C12 UNL     1      24.434  -1.002  54.901  1.00  0.00     0.306 A 
HETATM    9  N3  UNL     1      23.298  -1.002  54.638  1.00  0.00    -0.047 NA
HETATM   10  N5  UNL     1      23.432  -1.522  55.884  1.00  0.00     0.074 N 
HETATM   11  H22 UNL     1      23.789  -1.851  56.892  1.00  0.00     0.314 HD
HETATM   12  H16 UNL     1      26.056  -1.352  55.832  1.00  0.00     0.168 HD
BRANCH   9  13
HETATM   13  C13 UNL     1      21.993  -1.241  54.458  1.00  0.00     0.112 A 
HETATM   14  C14 UNL     1      20.957  -1.662  54.361  1.00  0.00     0.070 A 
HETATM   15  C15 UNL     1      22.077  -0.729  53.685  1.00  0.00     0.194 A 
HETATM   16  C16 UNL     1      21.506  -0.189  52.503  1.00  0.00     0.098 C 
HETATM   17  C17 UNL     1      20.974   0.101  54.491  1.00  0.00     0.175 A 
HETATM   18  N4  UNL     1      20.242   0.139  53.234  1.00  0.00    -0.396 N 
HETATM   19  H19 UNL     1      19.432   0.249  52.575  1.00  0.00     0.158 HD
ENDBRANCH   9  13
ENDBRANCH   5   7
BRANCH   1  20
HETATM   20  N1  UNL     1      25.179   3.221  52.738  1.00  0.00    -0.327 N 
HETATM   21  C6  UNL     1      23.989   3.721  52.242  1.00  0.00     0.222 C 
HETATM   22  O1  UNL     1      23.197   2.917  51.699  1.00  0.00    -0.273 OA
HETATM   23  H12 UNL     1      25.710   4.043  53.154  1.00  0.00     0.169 HD
BRANCH  21  24
HETATM   24  C5  UNL     1      23.402   5.051  52.203  1.00  0.00     0.103 C 
BRANCH  24  25
HETATM   25  C4  UNL     1      23.539   5.729  50.867  1.00  0.00     0.009 C 
BRANCH  25  26
HETATM   26  C3  UNL     1      24.930   5.896  50.371  1.00  0.00     0.000 C 
BRANCH  26  27
HETATM   27  C2  UNL     1      25.215   5.145  49.084  1.00  0.00    -0.005 C 
HETATM   28  C1  UNL     1      26.533   4.412  49.307  1.00  0.00     0.005 C 
ENDBRANCH  26  27
ENDBRANCH  25  26
ENDBRANCH  24  25
ENDBRANCH  21  24
ENDBRANCH   1  20
TORSDOF 8
ENDMDL
MODEL 2
REMARK VINA RESULT:      -7.5      2.939      7.181
REMARK  8 active torsions:
REMARK  status: ('A' for Active; 'I' for Inactive)
REMARK    1  A    between atoms: C2_2  and  C3_3 
REMARK    2  A    between atoms: C3_3  and  C4_4 
REMARK    3  A    between atoms: C4_4  and  C5_5 
REMARK    4  A    between atoms: C5_5  and  C6_6 
REMARK       I    between atoms: C6_6  and  N1_8 
REMARK    5  A    between atoms: N1_8  and  C7_9 
REMARK    6  A    between atoms: C11_13  and  N2_14 
REMARK    7  A    between atoms: N3_16  and  C13_17 
REMARK    8  A    between atoms: C15_19  and  N5_23 
ROOT
HETATM    1  C7  UNL     1      24.829   2.512  53.041  1.00  0.00     0.036 A 
HETATM    2  C8  UNL     1      24.349   1.361  52.465  1.00  0.00     0.029 A 
HETATM    3  C9  UNL     1      23.133   1.423  51.829  1.00  0.00     0.004 A 
HETATM    4  C10 UNL     1      22.391   2.582  51.751  1.00  0.00     0.029 A 
HETATM    5  C11 UNL     1      22.900   3.707  52.336  1.00  0.00     0.036 A 
HETATM    6  C18 UNL     1      24.098   3.700  52.978  1.00  0.00     0.059 A 
ENDROOT
BRANCH   5   7
HETATM    7  N2  UNL     1      22.381   5.029  52.379  1.00  0.00    -0.324 N 
HETATM    8  C12 UNL     1      23.120   5.705  51.529  1.00  0.00     0.306 A 
HETATM    9  N3  UNL     1      23.865   6.108  50.727  1.00  0.00    -0.047 NA
HETATM   10  N5  UNL     1      23.166   7.167  51.208  1.00  0.00     0.074 N 
HETATM   11  H22 UNL     1      22.518   7.867  51.793  1.00  0.00     0.314 HD
HETATM   12  H16 UNL     1      21.690   5.666  52.785  1.00  0.00     0.168 HD
BRANCH   9  13
HETATM   13  C13 UNL     1      24.516   6.727  49.736  1.00  0.00     0.112 A 
HETATM   14  C14 UNL     1      24.849   7.262  48.806  1.00  0.00     0.070 A 
HETATM   15  C15 UNL     1      25.138   6.040  49.808  1.00  0.00     0.194 A 
HETATM   16  C16 UNL     1      26.320   5.400  49.349  1.00  0.00     0.098 C 
HETATM   17  C17 UNL     1      26.051   7.319  50.102  1.00  0.00     0.175 A 
HETATM   18  N4  UNL     1      26.995   6.724  49.167  1.00  0.00    -0.396 N 
HETATM   19  H19 UNL     1      27.800   6.658  48.496  1.00  0.00     0.158 HD
ENDBRANCH   9  13
ENDBRANCH   5   7
BRANCH   1  20
HETATM   20  N1  UNL     1      26.097   2.419  53.665  1.00  0.00    -0.327 N 
HETATM   21  C6  UNL     1      27.390   2.357  53.179  1.00  0.00     0.222 C 
HETATM   22  O1  UNL     1      27.551   2.382  51.937  1.00  0.00    -0.273 OA
HETATM   23  H12 UNL     1      26.164   2.385  54.726  1.00  0.00     0.169 HD
BRANCH  21  24
HETATM   24  C5  UNL     1      28.694   2.267  53.816  1.00  0.00     0.103 C 
BRANCH  24  25
HETATM   25  C4  UNL     1      29.310   0.897  53.733  1.00  0.00     0.009 C 
BRANCH  25  26
HETATM   26  C3  UNL     1      28.426  -0.230  54.130  1.00  0.00     0.000 C 
BRANCH  26  27
HETATM   27  C2  UNL     1      28.282  -1.300  53.064  1.00  0.00    -0.005 C 
HETATM   28  C1  UNL     1      26.787  -1.427  52.794  1.00  0.00     0.005 C 
ENDBRANCH  26  27
ENDBRANCH  25  26
ENDBRANCH  24  25
ENDBRANCH  21  24
ENDBRANCH   1  20
TORSDOF 8
ENDMDL
MODEL 3
REMARK VINA RESULT:      -7.3      2.014      5.593
REMARK  8 active torsions:
REMARK  status: ('A' for Active; 'I' for Inactive)
REMARK    1  A    between atoms: C2_2  and  C3_3 
REMARK    2  A    between atoms: C3_3  and  C4_4 
REMARK    3  A    between atoms: C4_4  and  C5_5 
REMARK    4  A    between atoms: C5_5  and  C6_6 
REMARK       I    between atoms: C6_6  and  N1_8 
REMARK    5  A    between atoms: N1_8  and  C7_9 
REMARK    6  A    between atoms: C11_13  and  N2_14 
REMARK    7  A    between atoms: N3_16  and  C13_17 
REMARK    8  A    between atoms: C15_19  and  N5_23 
ROOT
HETATM    1  C7  UNL     1      23.873   0.060  53.434  1.00  0.00     0.036 A 
HETATM    2  C8  UNL     1      23.887  -0.803  54.503  1.00  0.00     0.029 A 
HETATM    3  C9  UNL     1      22.680  -1.168  55.048  1.00  0.00     0.004 A 
HETATM    4  C10 UNL     1      21.475  -0.704  54.565  1.00  0.00     0.029 A 
HETATM    5  C11 UNL     1      21.499   0.152  53.500  1.00  0.00     0.036 A 
HETATM    6  C18 UNL     1      22.667   0.544  52.925  1.00  0.00     0.059 A 
ENDROOT
BRANCH   5   7
HETATM    7  N2  UNL     1      20.428   0.748  52.782  1.00  0.00    -0.324 N 
HETATM    8  C12 UNL     1      20.820   1.982  52.563  1.00  0.00     0.306 A 
HETATM    9  N3  UNL     1      21.360   3.011  52.458  1.00  0.00    -0.047 NA
HETATM   10  N5  UNL     1      20.102   3.154  51.969  1.00  0.00     0.074 N 
HETATM   11  H22 UNL     1      19.025   3.038  51.686  1.00  0.00     0.314 HD
HETATM   12  H16 UNL     1      19.499   0.626  52.371  1.00  0.00     0.168 HD
BRANCH   9  13
HETATM   13  C13 UNL     1      21.853   4.203  52.102  1.00  0.00     0.112 A 
HETATM   14  C14 UNL     1      22.045   5.248  51.740  1.00  0.00     0.070 A 
HETATM   15  C15 UNL     1      22.544   3.722  51.707  1.00  0.00     0.194 A 
HETATM   16  C16 UNL     1      23.735   3.693  50.936  1.00  0.00     0.098 C 
HETATM   17  C17 UNL     1      23.349   4.621  52.755  1.00  0.00     0.175 A 
HETATM   18  N4  UNL     1      24.257   4.899  51.653  1.00  0.00    -0.396 N 
HETATM   19  H19 UNL     1      25.000   5.389  51.095  1.00  0.00     0.158 HD
ENDBRANCH   9  13
ENDBRANCH   5   7
BRANCH   1  20
HETATM   20  N1  UNL     1      25.133   0.394  52.881  1.00  0.00    -0.327 N 
HETATM   21  C6  UNL     1      25.952   1.504  52.990  1.00  0.00     0.222 C 
HETATM   22  O1  UNL     1      25.561   2.452  53.709  1.00  0.00    -0.273 OA
HETATM   23  H12 UNL     1      25.629  -0.294  52.238  1.00  0.00     0.169 HD
BRANCH  21  24
HETATM   24  C5  UNL     1      27.249   1.848  52.430  1.00  0.00     0.103 C 
BRANCH  24  25
HETATM   25  C4  UNL     1      28.360   1.850  53.444  1.00  0.00     0.009 C 
BRANCH  25  26
HETATM   26  C3  UNL     1      28.604   0.556  54.133  1.00  0.00     0.000 C 
BRANCH  26  27
HETATM   27  C2  UNL     1      29.768  -0.231  53.562  1.00  0.00    -0.005 C 
HETATM   28  C1  UNL     1      29.253  -1.650  53.347  1.00  0.00     0.005 C 
ENDBRANCH  26  27
ENDBRANCH  25  26
ENDBRANCH  24  25
ENDBRANCH  21  24
ENDBRANCH   1  20
TORSDOF 8
ENDMDL
MODEL 4
REMARK VINA RESULT:      -7.1      2.565      4.668
REMARK  8 active torsions:
REMARK  status: ('A' for Active; 'I' for Inactive)
REMARK    1  A    between atoms: C2_2  and  C3_3 
REMARK    2  A    between atoms: C3_3  and  C4_4 
REMARK    3  A    between atoms: C4_4  and  C5_5 
REMARK    4  A    between atoms: C5_5  and  C6_6 
REMARK       I    between atoms: C6_6  and  N1_8 
REMARK    5  A    between atoms: N1_8  and  C7_9 
REMARK    6  A    between atoms: C11_13  and  N2_14 
REMARK    7  A    between atoms: N3_16  and  C13_17 
REMARK    8  A    between atoms: C15_19  and  N5_23 
ROOT
HETATM    1  C7  UNL     1      23.204   2.886  49.506  1.00  0.00     0.036 A 
HETATM    2  C8  UNL     1      22.638   2.380  48.361  1.00  0.00     0.029 A 
HETATM    3  C9  UNL     1      21.752   1.339  48.491  1.00  0.00     0.004 A 
HETATM    4  C10 UNL     1      21.417   0.795  49.712  1.00  0.00     0.029 A 
HETATM    5  C11 UNL     1      21.999   1.324  50.830  1.00  0.00     0.036 A 
HETATM    6  C18 UNL     1      22.883   2.354  50.756  1.00  0.00     0.059 A 
ENDROOT
BRANCH   5   7
HETATM    7  N2  UNL     1      21.816   0.994  52.200  1.00  0.00    -0.324 N 
HETATM    8  C12 UNL     1      22.968   0.490  52.578  1.00  0.00     0.306 A 
HETATM    9  N3  UNL     1      24.060   0.102  52.711  1.00  0.00    -0.047 NA
HETATM   10  N5  UNL     1      23.388  -0.157  53.861  1.00  0.00     0.074 N 
HETATM   11  H22 UNL     1      22.621  -0.314  54.660  1.00  0.00     0.314 HD
HETATM   12  H16 UNL     1      21.179   0.982  53.001  1.00  0.00     0.168 HD
BRANCH   9  13
HETATM   13  C13 UNL     1      25.289  -0.244  53.112  1.00  0.00     0.112 A 
HETATM   14  C14 UNL     1      26.205  -0.673  53.600  1.00  0.00     0.070 A 
HETATM   15  C15 UNL     1      25.477   0.667  53.093  1.00  0.00     0.194 A 
HETATM   16  C16 UNL     1      26.378   1.739  53.323  1.00  0.00     0.098 C 
HETATM   17  C17 UNL     1      26.551   0.104  52.050  1.00  0.00     0.175 A 
HETATM   18  N4  UNL     1      27.510   0.941  52.754  1.00  0.00    -0.396 N 
HETATM   19  H19 UNL     1      28.440   1.302  53.081  1.00  0.00     0.158 HD
ENDBRANCH   9  13
ENDBRANCH   5   7
BRANCH   1  20
HETATM   20  N1  UNL     1      24.094   3.976  49.337  1.00  0.00    -0.327 N 
HETATM   21  C6  UNL     1      25.472   4.087  49.367  1.00  0.00     0.222 C 
HETATM   22  O1  UNL     1      26.139   3.050  49.588  1.00  0.00    -0.273 OA
HETATM   23  H12 UNL     1      23.709   4.947  49.140  1.00  0.00     0.169 HD
BRANCH  21  24
HETATM   24  C5  UNL     1      26.389   5.202  49.188  1.00  0.00     0.103 C 
BRANCH  24  25
HETATM   25  C4  UNL     1      27.714   4.801  48.600  1.00  0.00     0.009 C 
BRANCH  25  26
HETATM   26  C3  UNL     1      28.648   5.918  48.300  1.00  0.00     0.000 C 
BRANCH  26  27
HETATM   27  C2  UNL     1      28.002   7.290  48.366  1.00  0.00    -0.005 C 
HETATM   28  C1  UNL     1      27.990   7.819  46.937  1.00  0.00     0.005 C 
ENDBRANCH  26  27
ENDBRANCH  25  26
ENDBRANCH  24  25
ENDBRANCH  21  24
ENDBRANCH   1  20
TORSDOF 8
ENDMDL
MODEL 5
REMARK VINA RESULT:      -7.0      1.667      2.449
REMARK  8 active torsions:
REMARK  status: ('A' for Active; 'I' for Inactive)
REMARK    1  A    between atoms: C2_2  and  C3_3 
REMARK    2  A    between atoms: C3_3  and  C4_4 
REMARK    3  A    between atoms: C4_4  and  C5_5 
REMARK    4  A    between atoms: C5_5  and  C6_6 
REMARK       I    between atoms: C6_6  and  N1_8 
REMARK    5  A    between atoms: N1_8  and  C7_9 
REMARK    6  A    between atoms: C11_13  and  N2_14 
REMARK    7  A    between atoms: N3_16  and  C13_17 
REMARK    8  A    between atoms: C15_19  and  N5_23 
ROOT
HETATM    1  C7  UNL     1      25.335   2.053  52.218  1.00  0.00     0.036 A 
HETATM    2  C8  UNL     1      26.447   1.427  51.708  1.00  0.00     0.029 A 
HETATM    3  C9  UNL     1      26.617   0.093  51.992  1.00  0.00     0.004 A 
HETATM    4  C10 UNL     1      25.723  -0.624  52.758  1.00  0.00     0.029 A 
HETATM    5  C11 UNL     1      24.629   0.032  53.248  1.00  0.00     0.036 A 
HETATM    6  C18 UNL     1      24.415   1.351  52.997  1.00  0.00     0.059 A 
ENDROOT
BRANCH   5   7
HETATM    7  N2  UNL     1      23.542  -0.455  54.022  1.00  0.00    -0.324 N 
HETATM    8  C12 UNL     1      22.472  -0.137  53.331  1.00  0.00     0.306 A 
HETATM    9  N3  UNL     1      21.666   0.213  52.562  1.00  0.00    -0.047 NA
HETATM   10  N5  UNL     1      21.016  -0.256  53.656  1.00  0.00     0.074 N 
HETATM   11  H22 UNL     1      20.720  -0.629  54.669  1.00  0.00     0.314 HD
HETATM   12  H16 UNL     1      23.245  -0.938  54.874  1.00  0.00     0.168 HD
BRANCH   9  13
HETATM   13  C13 UNL     1      20.611   0.395  51.761  1.00  0.00     0.112 A 
HETATM   14  C14 UNL     1      19.641   0.357  51.196  1.00  0.00     0.070 A 
HETATM   15  C15 UNL     1      21.235   0.522  51.083  1.00  0.00     0.194 A 
HETATM   16  C16 UNL     1      21.531   0.750  49.713  1.00  0.00     0.098 C 
HETATM   17  C17 UNL     1      20.458   1.919  51.057  1.00  0.00     0.175 A 
HETATM   18  N4  UNL     1      20.415   1.743  49.613  1.00  0.00    -0.396 N 
HETATM   19  H19 UNL     1      20.105   1.877  48.618  1.00  0.00     0.158 HD
ENDBRANCH   9  13
ENDBRANCH   5   7
BRANCH   1  20
HETATM   20  N1  UNL     1      25.179   3.421  51.883  1.00  0.00    -0.327 N 
HETATM   21  C6  UNL     1      24.410   4.085  50.945  1.00  0.00     0.222 C 
HETATM   22  O1  UNL     1      23.675   3.399  50.198  1.00  0.00    -0.273 OA
HETATM   23  H12 UNL     1      25.727   4.162  52.414  1.00  0.00     0.169 HD
BRANCH  21  24
HETATM   24  C5  UNL     1      24.241   5.488  50.603  1.00  0.00     0.103 C 
BRANCH  24  25
HETATM   25  C4  UNL     1      25.501   6.140  50.102  1.00  0.00     0.009 C 
BRANCH  25  26
HETATM   26  C3  UNL     1      26.003   5.645  48.793  1.00  0.00     0.000 C 
BRANCH  26  27
HETATM   27  C2  UNL     1      27.187   4.703  48.908  1.00  0.00    -0.005 C 
HETATM   28  C1  UNL     1      28.387   5.465  48.358  1.00  0.00     0.005 C 
ENDBRANCH  26  27
ENDBRANCH  25  26
ENDBRANCH  24  25
ENDBRANCH  21  24
ENDBRANCH   1  20
TORSDOF 8
ENDMDL
MODEL 6
REMARK VINA RESULT:      -7.0      2.504      6.514
REMARK  8 active torsions:
REMARK  status: ('A' for Active; 'I' for Inactive)
REMARK    1  A    between atoms: C2_2  and  C3_3 
REMARK    2  A    between atoms: C3_3  and  C4_4 
REMARK    3  A    between atoms: C4_4  and  C5_5 
REMARK    4  A    between atoms: C5_5  and  C6_6 
REMARK       I    between atoms: C6_6  and  N1_8 
REMARK    5  A    between atoms: N1_8  and  C7_9 
REMARK    6  A    between atoms: C11_13  and  N2_14 
REMARK    7  A    between atoms: N3_16  and  C13_17 
REMARK    8  A    between atoms: C15_19  and  N5_23 
ROOT
HETATM    1  C7  UNL     1      23.137   0.578  52.674  1.00  0.00     0.036 A 
HETATM    2  C8  UNL     1      22.135   0.344  53.584  1.00  0.00     0.029 A 
HETATM    3  C9  UNL     1      20.840   0.348  53.126  1.00  0.00     0.004 A 
HETATM    4  C10 UNL     1      20.519   0.575  51.805  1.00  0.00     0.029 A 
HETATM    5  C11 UNL     1      21.541   0.804  50.928  1.00  0.00     0.036 A 
HETATM    6  C18 UNL     1      22.840   0.812  51.330  1.00  0.00     0.059 A 
ENDROOT
BRANCH   5   7
HETATM    7  N2  UNL     1      21.511   1.027  49.525  1.00  0.00    -0.324 N 
HETATM    8  C12 UNL     1      22.212   2.123  49.346  1.00  0.00     0.306 A 
HETATM    9  N3  UNL     1      22.878   3.079  49.404  1.00  0.00    -0.047 NA
HETATM   10  N5  UNL     1      22.454   2.950  48.122  1.00  0.00     0.074 N 
HETATM   11  H22 UNL     1      21.936   2.667  47.171  1.00  0.00     0.314 HD
HETATM   12  H16 UNL     1      21.180   0.702  48.613  1.00  0.00     0.168 HD
BRANCH   9  13
HETATM   13  C13 UNL     1      23.735   4.093  49.234  1.00  0.00     0.112 A 
HETATM   14  C14 UNL     1      24.356   4.958  48.878  1.00  0.00     0.070 A 
HETATM   15  C15 UNL     1      24.372   3.526  49.605  1.00  0.00     0.194 A 
HETATM   16  C16 UNL     1      25.715   3.271  49.986  1.00  0.00     0.098 C 
HETATM   17  C17 UNL     1      24.406   4.750  50.633  1.00  0.00     0.175 A 
HETATM   18  N4  UNL     1      25.854   4.663  50.518  1.00  0.00    -0.396 N 
HETATM   19  H19 UNL     1      26.861   4.956  50.578  1.00  0.00     0.158 HD
ENDBRANCH   9  13
ENDBRANCH   5   7
BRANCH   1  20
HETATM   20  N1  UNL     1      24.461   0.541  53.177  1.00  0.00    -0.327 N 
HETATM   21  C6  UNL     1      25.386   1.522  53.483  1.00  0.00     0.222 C 
HETATM   22  O1  UNL     1      25.055   2.716  53.301  1.00  0.00    -0.273 OA
HETATM   23  H12 UNL     1      24.918  -0.394  53.394  1.00  0.00     0.169 HD
BRANCH  21  24
HETATM   24  C5  UNL     1      26.743   1.489  54.005  1.00  0.00     0.103 C 
BRANCH  24  25
HETATM   25  C4  UNL     1      27.326   0.104  54.074  1.00  0.00     0.009 C 
BRANCH  25  26
HETATM   26  C3  UNL     1      28.682   0.006  54.674  1.00  0.00     0.000 C 
BRANCH  26  27
HETATM   27  C2  UNL     1      29.749  -0.460  53.702  1.00  0.00    -0.005 C 
HETATM   28  C1  UNL     1      29.340  -1.863  53.268  1.00  0.00     0.005 C 
ENDBRANCH  26  27
ENDBRANCH  25  26
ENDBRANCH  24  25
ENDBRANCH  21  24
ENDBRANCH   1  20
TORSDOF 8
ENDMDL
MODEL 7
REMARK VINA RESULT:      -7.0      2.841      7.309
REMARK  8 active torsions:
REMARK  status: ('A' for Active; 'I' for Inactive)
REMARK    1  A    between atoms: C2_2  and  C3_3 
REMARK    2  A    between atoms: C3_3  and  C4_4 
REMARK    3  A    between atoms: C4_4  and  C5_5 
REMARK    4  A    between atoms: C5_5  and  C6_6 
REMARK       I    between atoms: C6_6  and  N1_8 
REMARK    5  A    between atoms: N1_8  and  C7_9 
REMARK    6  A    between atoms: C11_13  and  N2_14 
REMARK    7  A    between atoms: N3_16  and  C13_17 
REMARK    8  A    between atoms: C15_19  and  N5_23 
ROOT
HETATM    1  C7  UNL     1      23.884   1.852  52.142  1.00  0.00     0.036 A 
HETATM    2  C8  UNL     1      22.629   1.522  51.690  1.00  0.00     0.029 A 
HETATM    3  C9  UNL     1      21.676   2.511  51.669  1.00  0.00     0.004 A 
HETATM    4  C10 UNL     1      21.933   3.801  52.078  1.00  0.00     0.029 A 
HETATM    5  C11 UNL     1      23.192   4.094  52.521  1.00  0.00     0.036 A 
HETATM    6  C18 UNL     1      24.171   3.151  52.563  1.00  0.00     0.059 A 
ENDROOT
BRANCH   5   7
HETATM    7  N2  UNL     1      23.744   5.327  52.961  1.00  0.00    -0.324 N 
HETATM    8  C12 UNL     1      23.884   6.039  51.866  1.00  0.00     0.306 A 
HETATM    9  N3  UNL     1      23.903   6.502  50.795  1.00  0.00    -0.047 NA
HETATM   10  N5  UNL     1      24.522   7.373  51.632  1.00  0.00     0.074 N 
HETATM   11  H22 UNL     1      25.030   7.884  52.488  1.00  0.00     0.314 HD
HETATM   12  H16 UNL     1      24.073   5.884  53.753  1.00  0.00     0.168 HD
BRANCH   9  13
HETATM   13  C13 UNL     1      23.875   7.263  49.695  1.00  0.00     0.112 A 
HETATM   14  C14 UNL     1      23.828   8.078  48.924  1.00  0.00     0.070 A 
HETATM   15  C15 UNL     1      23.282   6.630  49.357  1.00  0.00     0.194 A 
HETATM   16  C16 UNL     1      22.419   6.188  48.321  1.00  0.00     0.098 C 
HETATM   17  C17 UNL     1      24.463   6.559  48.281  1.00  0.00     0.175 A 
HETATM   18  N4  UNL     1      23.407   6.613  47.281  1.00  0.00    -0.396 N 
HETATM   19  H19 UNL     1      22.949   6.754  46.347  1.00  0.00     0.158 HD
ENDBRANCH   9  13
ENDBRANCH   5   7
BRANCH   1  20
HETATM   20  N1  UNL     1      24.848   0.814  52.126  1.00  0.00    -0.327 N 
HETATM   21  C6  UNL     1      25.173  -0.191  53.019  1.00  0.00     0.222 C 
HETATM   22  O1  UNL     1      24.523  -0.258  54.087  1.00  0.00    -0.273 OA
HETATM   23  H12 UNL     1      25.500   0.710  51.292  1.00  0.00     0.169 HD
BRANCH  21  24
HETATM   24  C5  UNL     1      26.157  -1.261  53.004  1.00  0.00     0.103 C 
BRANCH  24  25
HETATM   25  C4  UNL     1      27.565  -0.779  52.788  1.00  0.00     0.009 C 
BRANCH  25  26
HETATM   26  C3  UNL     1      28.021   0.303  53.699  1.00  0.00     0.000 C 
BRANCH  26  27
HETATM   27  C2  UNL     1      29.528   0.380  53.853  1.00  0.00    -0.005 C 
HETATM   28  C1  UNL     1      30.038  -1.052  53.725  1.00  0.00     0.005 C 
ENDBRANCH  26  27
ENDBRANCH  25  26
ENDBRANCH  24  25
ENDBRANCH  21  24
ENDBRANCH   1  20
TORSDOF 8
ENDMDL
MODEL 8
REMARK VINA RESULT:      -6.8      3.343      7.977
REMARK  8 active torsions:
REMARK  status: ('A' for Active; 'I' for Inactive)
REMARK    1  A    between atoms: C2_2  and  C3_3 
REMARK    2  A    between atoms: C3_3  and  C4_4 
REMARK    3  A    between atoms: C4_4  and  C5_5 
REMARK    4  A    between atoms: C5_5  and  C6_6 
REMARK       I    between atoms: C6_6  and  N1_8 
REMARK    5  A    between atoms: N1_8  and  C7_9 
REMARK    6  A    between atoms: C11_13  and  N2_14 
REMARK    7  A    between atoms: N3_16  and  C13_17 
REMARK    8  A    between atoms: C15_19  and  N5_23 
ROOT
HETATM    1  C7  UNL     1      24.740   2.883  51.742  1.00  0.00     0.036 A 
HETATM    2  C8  UNL     1      24.356   3.352  52.975  1.00  0.00     0.029 A 
HETATM    3  C9  UNL     1      23.407   4.345  53.015  1.00  0.00     0.004 A 
HETATM    4  C10 UNL     1      22.836   4.874  51.878  1.00  0.00     0.029 A 
HETATM    5  C11 UNL     1      23.241   4.382  50.669  1.00  0.00     0.036 A 
HETATM    6  C18 UNL     1      24.178   3.402  50.574  1.00  0.00     0.059 A 
ENDROOT
BRANCH   5   7
HETATM    7  N2  UNL     1      22.804   4.707  49.357  1.00  0.00    -0.324 N 
HETATM    8  C12 UNL     1      23.705   5.550  48.905  1.00  0.00     0.306 A 
HETATM    9  N3  UNL     1      24.612   6.252  48.693  1.00  0.00    -0.047 NA
HETATM   10  N5  UNL     1      23.758   6.353  47.643  1.00  0.00     0.074 N 
HETATM   11  H22 UNL     1      22.887   6.312  46.942  1.00  0.00     0.314 HD
HETATM   12  H16 UNL     1      22.100   4.566  48.628  1.00  0.00     0.168 HD
BRANCH   9  13
HETATM   13  C13 UNL     1      25.628   6.969  48.199  1.00  0.00     0.112 A 
HETATM   14  C14 UNL     1      26.341   7.594  47.597  1.00  0.00     0.070 A 
HETATM   15  C15 UNL     1      26.173   6.281  48.507  1.00  0.00     0.194 A 
HETATM   16  C16 UNL     1      27.460   5.696  48.629  1.00  0.00     0.098 C 
HETATM   17  C17 UNL     1      26.761   7.530  49.313  1.00  0.00     0.175 A 
HETATM   18  N4  UNL     1      28.069   7.034  48.910  1.00  0.00    -0.396 N 
HETATM   19  H19 UNL     1      29.100   7.039  48.712  1.00  0.00     0.158 HD
ENDBRANCH   9  13
ENDBRANCH   5   7
BRANCH   1  20
HETATM   20  N1  UNL     1      25.701   1.842  51.739  1.00  0.00    -0.327 N 
HETATM   21  C6  UNL     1      25.678   0.530  52.175  1.00  0.00     0.222 C 
HETATM   22  O1  UNL     1      24.621   0.103  52.692  1.00  0.00    -0.273 OA
HETATM   23  H12 UNL     1      26.670   2.017  51.336  1.00  0.00     0.169 HD
BRANCH  21  24
HETATM   24  C5  UNL     1      26.660  -0.543  52.168  1.00  0.00     0.103 C 
BRANCH  24  25
HETATM   25  C4  UNL     1      27.200  -0.870  53.533  1.00  0.00     0.009 C 
BRANCH  25  26
HETATM   26  C3  UNL     1      27.948   0.223  54.208  1.00  0.00     0.000 C 
BRANCH  26  27
HETATM   27  C2  UNL     1      29.326   0.473  53.625  1.00  0.00    -0.005 C 
HETATM   28  C1  UNL     1      30.047  -0.870  53.659  1.00  0.00     0.005 C 
ENDBRANCH  26  27
ENDBRANCH  25  26
ENDBRANCH  24  25
ENDBRANCH  21  24
ENDBRANCH   1  20
TORSDOF 8
ENDMDL
MODEL 9
REMARK VINA RESULT:      -6.8      7.138     11.438
REMARK  8 active torsions:
REMARK  status: ('A' for Active; 'I' for Inactive)
REMARK    1  A    between atoms: C2_2  and  C3_3 
REMARK    2  A    between atoms: C3_3  and  C4_4 
REMARK    3  A    between atoms: C4_4  and  C5_5 
REMARK    4  A    between atoms: C5_5  and  C6_6 
REMARK       I    between atoms: C6_6  and  N1_8 
REMARK    5  A    between atoms: N1_8  and  C7_9 
REMARK    6  A    between atoms: C11_13  and  N2_14 
REMARK    7  A    between atoms: N3_16  and  C13_17 
REMARK    8  A    between atoms: C15_19  and  N5_23 
ROOT
HETATM    1  C7  UNL     1      30.171   7.155  48.256  1.00  0.00     0.036 A 
HETATM    2  C8  UNL     1      30.559   8.196  49.064  1.00  0.00     0.029 A 
HETATM    3  C9  UNL     1      31.598   8.987  48.634  1.00  0.00     0.004 A 
HETATM    4  C10 UNL     1      32.250   8.773  47.439  1.00  0.00     0.029 A 
HETATM    5  C11 UNL     1      31.836   7.728  46.661  1.00  0.00     0.036 A 
HETATM    6  C18 UNL     1      30.814   6.916  47.041  1.00  0.00     0.059 A 
ENDROOT
BRANCH   5   7
HETATM    7  N2  UNL     1      32.291   7.301  45.385  1.00  0.00    -0.324 N 
HETATM    8  C12 UNL     1      33.098   6.296  45.638  1.00  0.00     0.306 A 
HETATM    9  N3  UNL     1      33.746   5.430  46.072  1.00  0.00    -0.047 NA
HETATM   10  N5  UNL     1      33.989   5.497  44.739  1.00  0.00     0.074 N 
HETATM   11  H22 UNL     1      34.065   5.787  43.661  1.00  0.00     0.314 HD
HETATM   12  H16 UNL     1      32.258   7.442  44.372  1.00  0.00     0.168 HD
BRANCH   9  13
HETATM   13  C13 UNL     1      34.423   4.308  46.345  1.00  0.00     0.112 A 
HETATM   14  C14 UNL     1      35.036   3.367  46.344  1.00  0.00     0.070 A 
HETATM   15  C15 UNL     1      33.680   4.064  46.849  1.00  0.00     0.194 A 
HETATM   16  C16 UNL     1      33.000   3.112  47.652  1.00  0.00     0.098 C 
HETATM   17  C17 UNL     1      34.829   4.051  47.961  1.00  0.00     0.175 A 
HETATM   18  N4  UNL     1      34.272   2.769  48.364  1.00  0.00    -0.396 N 
HETATM   19  H19 UNL     1      34.219   1.823  48.816  1.00  0.00     0.158 HD
ENDBRANCH   9  13
ENDBRANCH   5   7
BRANCH   1  20
HETATM   20  N1  UNL     1      29.081   6.377  48.719  1.00  0.00    -0.327 N 
HETATM   21  C6  UNL     1      27.727   6.379  48.434  1.00  0.00     0.222 C 
HETATM   22  O1  UNL     1      27.304   7.217  47.606  1.00  0.00    -0.273 OA
HETATM   23  H12 UNL     1      29.246   5.607  49.434  1.00  0.00     0.169 HD
BRANCH  21  24
HETATM   24  C5  UNL     1      26.607   5.578  48.902  1.00  0.00     0.103 C 
BRANCH  24  25
HETATM   25  C4  UNL     1      26.957   4.135  49.137  1.00  0.00     0.009 C 
BRANCH  25  26
HETATM   26  C3  UNL     1      26.114   3.423  50.133  1.00  0.00     0.000 C 
BRANCH  26  27
HETATM   27  C2  UNL     1      24.702   3.969  50.242  1.00  0.00    -0.005 C 
HETATM   28  C1  UNL     1      23.859   3.153  49.269  1.00  0.00     0.005 C 
ENDBRANCH  26  27
ENDBRANCH  25  26
ENDBRANCH  24  25
ENDBRANCH  21  24
ENDBRANCH   1  20
TORSDOF 8
ENDMDL
