MODEL 1
REMARK VINA RESULT:      -8.9      0.000      0.000
REMARK  8 active torsions:
REMARK  status: ('A' for Active; 'I' for Inactive)
REMARK    1  A    between atoms: C5_6  and  C6_7 
REMARK    2  A    between atoms: C9_10  and  C10_11 
REMARK    3  A    between atoms: C10_11  and  C11_12 
REMARK    4  A    between atoms: C11_12  and  C12_13 
REMARK    5  A    between atoms: C12_13  and  O2_15 
REMARK    6  A    between atoms: C16_19  and  C17_20 
REMARK    7  A    between atoms: C18_21  and  C19_22 
REMARK    8  A    between atoms: C23_26  and  O3_27 
ROOT
HETATM    1  C1  UNL     1      23.277   4.561  52.803  1.00  0.00     0.063 C 
HETATM    2  C2  UNL     1      23.871   5.174  51.828  1.00  0.00     0.016 C 
HETATM    3  N1  UNL     1      24.237   6.524  51.959  1.00  0.00    -0.388 N 
HETATM    4  C3  UNL     1      24.294   6.880  50.551  1.00  0.00     0.159 C 
HETATM    5  C4  UNL     1      24.988   5.688  49.947  1.00  0.00    -0.028 C 
HETATM    6  C5  UNL     1      25.976   5.537  49.072  1.00  0.00     0.021 C 
HETATM    7  C15 UNL     1      24.310   4.532  50.566  1.00  0.00    -0.009 C 
HETATM    8  C16 UNL     1      24.181   3.263  50.121  1.00  0.00    -0.007 C 
HETATM    9  H3  UNL     1      24.405   7.060  52.836  1.00  0.00     0.159 HD
ENDROOT
BRANCH   6  10
HETATM   10  C6  UNL     1      26.790   6.461  48.341  1.00  0.00    -0.028 C 
HETATM   11  C7  UNL     1      28.092   6.400  48.021  1.00  0.00    -0.044 C 
HETATM   12  C8  UNL     1      29.016   5.303  48.373  1.00  0.00     0.049 C 
HETATM   13  C9  UNL     1      28.455   7.586  47.266  1.00  0.00    -0.040 C 
HETATM   14  C13 UNL     1      27.274   8.105  46.951  1.00  0.00    -0.018 C 
HETATM   15  C14 UNL     1      26.340   7.723  47.789  1.00  0.00     0.025 C 
BRANCH  13  16
HETATM   16  C10 UNL     1      29.863   7.974  47.001  1.00  0.00     0.050 C 
BRANCH  16  17
HETATM   17  C11 UNL     1      30.172   9.259  47.732  1.00  0.00     0.114 C 
BRANCH  17  18
HETATM   18  C12 UNL     1      30.198   8.991  49.185  1.00  0.00     0.139 C 
HETATM   19  O1  UNL     1      31.171   8.279  49.523  1.00  0.00    -0.650 OA
BRANCH  18  20
HETATM   20  O2  UNL     1      29.276   9.445  50.141  1.00  0.00    -0.776 OA
HETATM   21  H14 UNL     1      29.652  10.168  50.763  1.00  0.00     0.167 HD
ENDBRANCH  18  20
ENDBRANCH  17  18
ENDBRANCH  16  17
ENDBRANCH  13  16
ENDBRANCH   6  10
BRANCH   8  22
HETATM   22  C17 UNL     1      23.455   2.364  51.091  1.00  0.00     0.054 C 
HETATM   23  C18 UNL     1      24.124   1.309  51.687  1.00  0.00     0.013 C 
BRANCH  23  24
HETATM   24  C19 UNL     1      23.216   0.577  52.584  1.00  0.00    -0.054 A 
HETATM   25  C20 UNL     1      23.624  -0.180  53.671  1.00  0.00     0.007 A 
HETATM   26  C21 UNL     1      22.851  -0.912  54.539  1.00  0.00     0.003 A 
HETATM   27  C22 UNL     1      21.491  -0.907  54.322  1.00  0.00     0.037 A 
HETATM   28  C23 UNL     1      20.975  -0.197  53.282  1.00  0.00     0.068 A 
HETATM   29  C25 UNL     1      21.838   0.501  52.472  1.00  0.00     0.044 A 
BRANCH  28  30
HETATM   30  O3  UNL     1      19.617  -0.126  52.976  1.00  0.00    -0.356 OA
HETATM   31  C24 UNL     1      19.117   0.288  51.750  1.00  0.00     0.210 C 
ENDBRANCH  28  30
ENDBRANCH  23  24
ENDBRANCH   8  22
TORSDOF 8
ENDMDL
MODEL 2
REMARK VINA RESULT:      -8.5      2.450     11.198
REMARK  8 active torsions:
REMARK  status: ('A' for Active; 'I' for Inactive)
REMARK    1  A    between atoms: C5_6  and  C6_7 
REMARK    2  A    between atoms: C9_10  and  C10_11 
REMARK    3  A    between atoms: C10_11  and  C11_12 
REMARK    4  A    between atoms: C11_12  and  C12_13 
REMARK    5  A    between atoms: C12_13  and  O2_15 
REMARK    6  A    between atoms: C16_19  and  C17_20 
REMARK    7  A    between atoms: C18_21  and  C19_22 
REMARK    8  A    between atoms: C23_26  and  O3_27 
ROOT
HETATM    1  C1  UNL     1      27.054   2.555  51.976  1.00  0.00     0.063 C 
HETATM    2  C2  UNL     1      25.991   1.842  52.181  1.00  0.00     0.016 C 
HETATM    3  N1  UNL     1      25.941   0.941  53.258  1.00  0.00    -0.388 N 
HETATM    4  C3  UNL     1      24.917   0.041  52.752  1.00  0.00     0.159 C 
HETATM    5  C4  UNL     1      23.909   0.998  52.171  1.00  0.00    -0.028 C 
HETATM    6  C5  UNL     1      22.586   1.097  52.232  1.00  0.00     0.021 C 
HETATM    7  C15 UNL     1      24.730   1.961  51.412  1.00  0.00    -0.009 C 
HETATM    8  C16 UNL     1      24.398   2.744  50.363  1.00  0.00    -0.007 C 
HETATM    9  H3  UNL     1      26.498   0.962  54.138  1.00  0.00     0.159 HD
ENDROOT
BRANCH   6  10
HETATM   10  C6  UNL     1      21.572   0.323  52.883  1.00  0.00    -0.028 C 
HETATM   11  C7  UNL     1      20.350  -0.034  52.457  1.00  0.00    -0.044 C 
HETATM   12  C8  UNL     1      19.757   0.313  51.150  1.00  0.00     0.049 C 
HETATM   13  C9  UNL     1      19.698  -0.826  53.486  1.00  0.00    -0.040 C 
HETATM   14  C13 UNL     1      20.698  -1.116  54.309  1.00  0.00    -0.018 C 
HETATM   15  C14 UNL     1      21.671  -0.243  54.213  1.00  0.00     0.025 C 
BRANCH  13  16
HETATM   16  C10 UNL     1      18.247  -1.140  53.463  1.00  0.00     0.050 C 
BRANCH  16  17
HETATM   17  C11 UNL     1      18.055  -2.626  53.651  1.00  0.00     0.114 C 
BRANCH  17  18
HETATM   18  C12 UNL     1      16.687  -2.991  53.225  1.00  0.00     0.139 C 
HETATM   19  O1  UNL     1      16.480  -4.225  53.288  1.00  0.00    -0.650 OA
BRANCH  18  20
HETATM   20  O2  UNL     1      15.680  -2.117  52.788  1.00  0.00    -0.776 OA
HETATM   21  H14 UNL     1      16.036  -1.311  52.263  1.00  0.00     0.167 HD
ENDBRANCH  18  20
ENDBRANCH  17  18
ENDBRANCH  16  17
ENDBRANCH  13  16
ENDBRANCH   6  10
BRANCH   8  22
HETATM   22  C17 UNL     1      25.525   3.638  49.908  1.00  0.00     0.054 C 
HETATM   23  C18 UNL     1      25.246   4.795  49.203  1.00  0.00     0.013 C 
BRANCH  23  24
HETATM   24  C19 UNL     1      26.495   5.496  48.866  1.00  0.00    -0.054 A 
HETATM   25  C20 UNL     1      26.609   6.867  48.702  1.00  0.00     0.007 A 
HETATM   26  C21 UNL     1      27.724   7.596  48.364  1.00  0.00     0.003 A 
HETATM   27  C22 UNL     1      28.891   6.895  48.156  1.00  0.00     0.037 A 
HETATM   28  C23 UNL     1      28.898   5.540  48.289  1.00  0.00     0.068 A 
HETATM   29  C25 UNL     1      27.726   4.908  48.631  1.00  0.00     0.044 A 
BRANCH  28  30
HETATM   30  O3  UNL     1      30.023   4.738  48.102  1.00  0.00    -0.356 OA
HETATM   31  C24 UNL     1      31.205   5.178  47.524  1.00  0.00     0.210 C 
ENDBRANCH  28  30
ENDBRANCH  23  24
ENDBRANCH   8  22
TORSDOF 8
ENDMDL
MODEL 3
REMARK VINA RESULT:      -8.3      1.975     10.562
REMARK  8 active torsions:
REMARK  status: ('A' for Active; 'I' for Inactive)
REMARK    1  A    between atoms: C5_6  and  C6_7 
REMARK    2  A    between atoms: C9_10  and  C10_11 
REMARK    3  A    between atoms: C10_11  and  C11_12 
REMARK    4  A    between atoms: C11_12  and  C12_13 
REMARK    5  A    between atoms: C12_13  and  O2_15 
REMARK    6  A    between atoms: C16_19  and  C17_20 
REMARK    7  A    between atoms: C18_21  and  C19_22 
REMARK    8  A    between atoms: C23_26  and  O3_27 
ROOT
HETATM    1  C1  UNL     1      25.984   7.479  48.682  1.00  0.00     0.063 C 
HETATM    2  C2  UNL     1      25.440   6.528  49.374  1.00  0.00     0.016 C 
HETATM    3  N1  UNL     1      24.186   6.721  49.978  1.00  0.00    -0.388 N 
HETATM    4  C3  UNL     1      24.285   5.719  51.027  1.00  0.00     0.159 C 
HETATM    5  C4  UNL     1      24.900   4.552  50.299  1.00  0.00    -0.028 C 
HETATM    6  C5  UNL     1      24.645   3.250  50.256  1.00  0.00     0.021 C 
HETATM    7  C15 UNL     1      25.993   5.161  49.516  1.00  0.00    -0.009 C 
HETATM    8  C16 UNL     1      27.129   4.607  49.039  1.00  0.00    -0.007 C 
HETATM    9  H3  UNL     1      23.442   7.399  49.709  1.00  0.00     0.159 HD
ENDROOT
BRANCH   6  10
HETATM   10  C6  UNL     1      23.668   2.419  50.892  1.00  0.00    -0.028 C 
HETATM   11  C7  UNL     1      23.470   2.161  52.194  1.00  0.00    -0.044 C 
HETATM   12  C8  UNL     1      24.261   2.712  53.313  1.00  0.00     0.049 C 
HETATM   13  C9  UNL     1      22.345   1.253  52.336  1.00  0.00    -0.040 C 
HETATM   14  C13 UNL     1      21.791   1.283  51.130  1.00  0.00    -0.018 C 
HETATM   15  C14 UNL     1      22.657   1.638  50.210  1.00  0.00     0.025 C 
BRANCH  13  16
HETATM   16  C10 UNL     1      22.034   0.545  53.603  1.00  0.00     0.050 C 
BRANCH  16  17
HETATM   17  C11 UNL     1      22.630  -0.842  53.559  1.00  0.00     0.114 C 
BRANCH  17  18
HETATM   18  C12 UNL     1      22.301  -1.546  54.817  1.00  0.00     0.139 C 
HETATM   19  O1  UNL     1      21.106  -1.919  54.857  1.00  0.00    -0.650 OA
BRANCH  18  20
HETATM   20  O2  UNL     1      23.170  -1.805  55.888  1.00  0.00    -0.776 OA
HETATM   21  H14 UNL     1      22.899  -1.335  56.758  1.00  0.00     0.167 HD
ENDBRANCH  18  20
ENDBRANCH  17  18
ENDBRANCH  16  17
ENDBRANCH  13  16
ENDBRANCH   6  10
BRANCH   8  22
HETATM   22  C17 UNL     1      27.966   5.568  48.232  1.00  0.00     0.054 C 
HETATM   23  C18 UNL     1      29.347   5.505  48.298  1.00  0.00     0.013 C 
BRANCH  23  24
HETATM   24  C19 UNL     1      29.943   6.536  47.435  1.00  0.00    -0.054 A 
HETATM   25  C20 UNL     1      29.222   7.488  46.733  1.00  0.00     0.007 A 
HETATM   26  C21 UNL     1      29.694   8.465  45.889  1.00  0.00     0.003 A 
HETATM   27  C22 UNL     1      31.057   8.525  45.701  1.00  0.00     0.037 A 
HETATM   28  C23 UNL     1      31.866   7.638  46.341  1.00  0.00     0.068 A 
HETATM   29  C25 UNL     1      31.291   6.699  47.164  1.00  0.00     0.044 A 
BRANCH  28  30
HETATM   30  O3  UNL     1      33.255   7.613  46.221  1.00  0.00    -0.356 OA
HETATM   31  C24 UNL     1      34.120   7.308  47.262  1.00  0.00     0.210 C 
ENDBRANCH  28  30
ENDBRANCH  23  24
ENDBRANCH   8  22
TORSDOF 8
ENDMDL
MODEL 4
REMARK VINA RESULT:      -8.1      0.987      1.885
REMARK  8 active torsions:
REMARK  status: ('A' for Active; 'I' for Inactive)
REMARK    1  A    between atoms: C5_6  and  C6_7 
REMARK    2  A    between atoms: C9_10  and  C10_11 
REMARK    3  A    between atoms: C10_11  and  C11_12 
REMARK    4  A    between atoms: C11_12  and  C12_13 
REMARK    5  A    between atoms: C12_13  and  O2_15 
REMARK    6  A    between atoms: C16_19  and  C17_20 
REMARK    7  A    between atoms: C18_21  and  C19_22 
REMARK    8  A    between atoms: C23_26  and  O3_27 
ROOT
HETATM    1  C1  UNL     1      22.984   4.586  52.663  1.00  0.00     0.063 C 
HETATM    2  C2  UNL     1      23.643   5.215  51.741  1.00  0.00     0.016 C 
HETATM    3  N1  UNL     1      24.191   6.482  52.002  1.00  0.00    -0.388 N 
HETATM    4  C3  UNL     1      24.277   6.977  50.638  1.00  0.00     0.159 C 
HETATM    5  C4  UNL     1      24.794   5.774  49.893  1.00  0.00    -0.028 C 
HETATM    6  C5  UNL     1      25.740   5.587  48.980  1.00  0.00     0.021 C 
HETATM    7  C15 UNL     1      23.974   4.660  50.407  1.00  0.00    -0.009 C 
HETATM    8  C16 UNL     1      23.667   3.475  49.836  1.00  0.00    -0.007 C 
HETATM    9  H3  UNL     1      24.443   6.894  52.926  1.00  0.00     0.159 HD
ENDROOT
BRANCH   6  10
HETATM   10  C6  UNL     1      26.663   6.466  48.328  1.00  0.00    -0.028 C 
HETATM   11  C7  UNL     1      27.972   6.313  48.077  1.00  0.00    -0.044 C 
HETATM   12  C8  UNL     1      28.788   5.137  48.439  1.00  0.00     0.049 C 
HETATM   13  C9  UNL     1      28.467   7.490  47.385  1.00  0.00    -0.040 C 
HETATM   14  C13 UNL     1      27.349   8.109  47.025  1.00  0.00    -0.018 C 
HETATM   15  C14 UNL     1      26.343   7.775  47.797  1.00  0.00     0.025 C 
BRANCH  13  16
HETATM   16  C10 UNL     1      29.913   7.775  47.211  1.00  0.00     0.050 C 
BRANCH  16  17
HETATM   17  C11 UNL     1      30.128   9.269  47.179  1.00  0.00     0.114 C 
BRANCH  17  18
HETATM   18  C12 UNL     1      30.619   9.712  48.501  1.00  0.00     0.139 C 
HETATM   19  O1  UNL     1      31.412  10.679  48.417  1.00  0.00    -0.650 OA
BRANCH  18  20
HETATM   20  O2  UNL     1      30.286   9.166  49.749  1.00  0.00    -0.776 OA
HETATM   21  H14 UNL     1      30.099   9.871  50.469  1.00  0.00     0.167 HD
ENDBRANCH  18  20
ENDBRANCH  17  18
ENDBRANCH  16  17
ENDBRANCH  13  16
ENDBRANCH   6  10
BRANCH   8  22
HETATM   22  C17 UNL     1      22.838   2.582  50.727  1.00  0.00     0.054 C 
HETATM   23  C18 UNL     1      21.806   1.835  50.186  1.00  0.00     0.013 C 
BRANCH  23  24
HETATM   24  C19 UNL     1      21.143   1.051  51.241  1.00  0.00    -0.054 A 
HETATM   25  C20 UNL     1      19.871   0.513  51.139  1.00  0.00     0.007 A 
HETATM   26  C21 UNL     1      19.170  -0.205  52.078  1.00  0.00     0.003 A 
HETATM   27  C22 UNL     1      19.794  -0.431  53.285  1.00  0.00     0.037 A 
HETATM   28  C23 UNL     1      21.048   0.052  53.499  1.00  0.00     0.068 A 
HETATM   29  C25 UNL     1      21.660   0.758  52.491  1.00  0.00     0.044 A 
BRANCH  28  30
HETATM   30  O3  UNL     1      21.766  -0.122  54.681  1.00  0.00    -0.356 OA
HETATM   31  C24 UNL     1      22.573  -1.219  54.946  1.00  0.00     0.210 C 
ENDBRANCH  28  30
ENDBRANCH  23  24
ENDBRANCH   8  22
TORSDOF 8
ENDMDL
MODEL 5
REMARK VINA RESULT:      -8.0      2.248      2.959
REMARK  8 active torsions:
REMARK  status: ('A' for Active; 'I' for Inactive)
REMARK    1  A    between atoms: C5_6  and  C6_7 
REMARK    2  A    between atoms: C9_10  and  C10_11 
REMARK    3  A    between atoms: C10_11  and  C11_12 
REMARK    4  A    between atoms: C11_12  and  C12_13 
REMARK    5  A    between atoms: C12_13  and  O2_15 
REMARK    6  A    between atoms: C16_19  and  C17_20 
REMARK    7  A    between atoms: C18_21  and  C19_22 
REMARK    8  A    between atoms: C23_26  and  O3_27 
ROOT
HETATM    1  C1  UNL     1      24.200   4.719  51.096  1.00  0.00     0.063 C 
HETATM    2  C2  UNL     1      25.018   5.199  50.213  1.00  0.00     0.016 C 
HETATM    3  N1  UNL     1      24.949   6.553  49.847  1.00  0.00    -0.388 N 
HETATM    4  C3  UNL     1      25.573   6.465  48.537  1.00  0.00     0.159 C 
HETATM    5  C4  UNL     1      26.729   5.534  48.795  1.00  0.00    -0.028 C 
HETATM    6  C5  UNL     1      28.015   5.542  48.465  1.00  0.00     0.021 C 
HETATM    7  C15 UNL     1      26.134   4.445  49.595  1.00  0.00    -0.009 C 
HETATM    8  C16 UNL     1      26.533   3.163  49.744  1.00  0.00    -0.007 C 
HETATM    9  H3  UNL     1      24.555   7.347  50.396  1.00  0.00     0.159 HD
ENDROOT
BRANCH   6  10
HETATM   10  C6  UNL     1      28.833   6.452  47.722  1.00  0.00    -0.028 C 
HETATM   11  C7  UNL     1      30.136   6.385  47.406  1.00  0.00    -0.044 C 
HETATM   12  C8  UNL     1      31.057   5.293  47.779  1.00  0.00     0.049 C 
HETATM   13  C9  UNL     1      30.502   7.557  46.632  1.00  0.00    -0.040 C 
HETATM   14  C13 UNL     1      29.322   8.072  46.305  1.00  0.00    -0.018 C 
HETATM   15  C14 UNL     1      28.386   7.705  47.147  1.00  0.00     0.025 C 
BRANCH  13  16
HETATM   16  C10 UNL     1      31.911   7.940  46.365  1.00  0.00     0.050 C 
BRANCH  16  17
HETATM   17  C11 UNL     1      32.288   7.514  44.966  1.00  0.00     0.114 C 
BRANCH  17  18
HETATM   18  C12 UNL     1      33.307   6.447  45.047  1.00  0.00     0.139 C 
HETATM   19  O1  UNL     1      33.063   5.492  44.274  1.00  0.00    -0.650 OA
BRANCH  18  20
HETATM   20  O2  UNL     1      34.445   6.430  45.869  1.00  0.00    -0.776 OA
HETATM   21  H14 UNL     1      35.123   5.705  45.615  1.00  0.00     0.167 HD
ENDBRANCH  18  20
ENDBRANCH  17  18
ENDBRANCH  16  17
ENDBRANCH  13  16
ENDBRANCH   6  10
BRANCH   8  22
HETATM   22  C17 UNL     1      25.672   2.381  50.705  1.00  0.00     0.054 C 
HETATM   23  C18 UNL     1      26.262   1.532  51.625  1.00  0.00     0.013 C 
BRANCH  23  24
HETATM   24  C19 UNL     1      25.229   0.880  52.446  1.00  0.00    -0.054 A 
HETATM   25  C20 UNL     1      25.476  -0.123  53.370  1.00  0.00     0.007 A 
HETATM   26  C21 UNL     1      24.573  -0.800  54.155  1.00  0.00     0.003 A 
HETATM   27  C22 UNL     1      23.247  -0.454  54.024  1.00  0.00     0.037 A 
HETATM   28  C23 UNL     1      22.886   0.520  53.145  1.00  0.00     0.068 A 
HETATM   29  C25 UNL     1      23.869   1.135  52.407  1.00  0.00     0.044 A 
BRANCH  28  30
HETATM   30  O3  UNL     1      21.575   0.945  52.937  1.00  0.00    -0.356 OA
HETATM   31  C24 UNL     1      20.481   0.467  53.644  1.00  0.00     0.210 C 
ENDBRANCH  28  30
ENDBRANCH  23  24
ENDBRANCH   8  22
TORSDOF 8
ENDMDL
MODEL 6
REMARK VINA RESULT:      -7.9      5.831     11.136
REMARK  8 active torsions:
REMARK  status: ('A' for Active; 'I' for Inactive)
REMARK    1  A    between atoms: C5_6  and  C6_7 
REMARK    2  A    between atoms: C9_10  and  C10_11 
REMARK    3  A    between atoms: C10_11  and  C11_12 
REMARK    4  A    between atoms: C11_12  and  C12_13 
REMARK    5  A    between atoms: C12_13  and  O2_15 
REMARK    6  A    between atoms: C16_19  and  C17_20 
REMARK    7  A    between atoms: C18_21  and  C19_22 
REMARK    8  A    between atoms: C23_26  and  O3_27 
ROOT
HETATM    1  C1  UNL     1      21.600  -0.975  53.957  1.00  0.00     0.063 C 
HETATM    2  C2  UNL     1      20.463  -0.675  53.410  1.00  0.00     0.016 C 
HETATM    3  N1  UNL     1      19.260  -1.006  54.055  1.00  0.00    -0.388 N 
HETATM    4  C3  UNL     1      18.381  -1.025  52.897  1.00  0.00     0.159 C 
HETATM    5  C4  UNL     1      18.831   0.194  52.134  1.00  0.00    -0.028 C 
HETATM    6  C5  UNL     1      18.198   1.194  51.532  1.00  0.00     0.021 C 
HETATM    7  C15 UNL     1      20.304   0.105  52.161  1.00  0.00    -0.009 C 
HETATM    8  C16 UNL     1      21.218   0.627  51.315  1.00  0.00    -0.007 C 
HETATM    9  H3  UNL     1      19.102  -1.176  55.071  1.00  0.00     0.159 HD
ENDROOT
BRANCH   6  10
HETATM   10  C6  UNL     1      16.814   1.521  51.364  1.00  0.00    -0.028 C 
HETATM   11  C7  UNL     1      16.187   2.703  51.467  1.00  0.00    -0.044 C 
HETATM   12  C8  UNL     1      16.826   3.994  51.794  1.00  0.00     0.049 C 
HETATM   13  C9  UNL     1      14.771   2.518  51.202  1.00  0.00    -0.040 C 
HETATM   14  C13 UNL     1      14.729   1.299  50.677  1.00  0.00    -0.018 C 
HETATM   15  C14 UNL     1      15.761   0.579  51.047  1.00  0.00     0.025 C 
BRANCH  13  16
HETATM   16  C10 UNL     1      13.751   3.552  51.507  1.00  0.00     0.050 C 
BRANCH  16  17
HETATM   17  C11 UNL     1      13.456   3.542  52.988  1.00  0.00     0.114 C 
BRANCH  17  18
HETATM   18  C12 UNL     1      12.408   4.544  53.276  1.00  0.00     0.139 C 
HETATM   19  O1  UNL     1      11.951   4.437  54.437  1.00  0.00    -0.650 OA
BRANCH  18  20
HETATM   20  O2  UNL     1      11.925   5.531  52.404  1.00  0.00    -0.776 OA
HETATM   21  H14 UNL     1      12.425   6.423  52.476  1.00  0.00     0.167 HD
ENDBRANCH  18  20
ENDBRANCH  17  18
ENDBRANCH  16  17
ENDBRANCH  13  16
ENDBRANCH   6  10
BRANCH   8  22
HETATM   22  C17 UNL     1      22.641   0.348  51.732  1.00  0.00     0.054 C 
HETATM   23  C18 UNL     1      23.446   1.383  52.173  1.00  0.00     0.013 C 
BRANCH  23  24
HETATM   24  C19 UNL     1      24.783   0.874  52.518  1.00  0.00    -0.054 A 
HETATM   25  C20 UNL     1      25.046  -0.416  52.951  1.00  0.00     0.007 A 
HETATM   26  C21 UNL     1      26.253  -0.963  53.316  1.00  0.00     0.003 A 
HETATM   27  C22 UNL     1      27.357  -0.143  53.251  1.00  0.00     0.037 A 
HETATM   28  C23 UNL     1      27.218   1.146  52.838  1.00  0.00     0.068 A 
HETATM   29  C25 UNL     1      25.965   1.594  52.495  1.00  0.00     0.044 A 
BRANCH  28  30
HETATM   30  O3  UNL     1      28.269   2.056  52.736  1.00  0.00    -0.356 OA
HETATM   31  C24 UNL     1      29.071   2.442  53.801  1.00  0.00     0.210 C 
ENDBRANCH  28  30
ENDBRANCH  23  24
ENDBRANCH   8  22
TORSDOF 8
ENDMDL
MODEL 7
REMARK VINA RESULT:      -7.9      5.618     11.223
REMARK  8 active torsions:
REMARK  status: ('A' for Active; 'I' for Inactive)
REMARK    1  A    between atoms: C5_6  and  C6_7 
REMARK    2  A    between atoms: C9_10  and  C10_11 
REMARK    3  A    between atoms: C10_11  and  C11_12 
REMARK    4  A    between atoms: C11_12  and  C12_13 
REMARK    5  A    between atoms: C12_13  and  O2_15 
REMARK    6  A    between atoms: C16_19  and  C17_20 
REMARK    7  A    between atoms: C18_21  and  C19_22 
REMARK    8  A    between atoms: C23_26  and  O3_27 
ROOT
HETATM    1  C1  UNL     1      23.379   2.831  52.155  1.00  0.00     0.063 C 
HETATM    2  C2  UNL     1      22.201   2.312  52.308  1.00  0.00     0.016 C 
HETATM    3  N1  UNL     1      21.065   2.983  51.826  1.00  0.00    -0.388 N 
HETATM    4  C3  UNL     1      20.063   2.377  52.688  1.00  0.00     0.159 C 
HETATM    5  C4  UNL     1      20.472   0.927  52.685  1.00  0.00    -0.028 C 
HETATM    6  C5  UNL     1      19.815  -0.219  52.550  1.00  0.00     0.021 C 
HETATM    7  C15 UNL     1      21.934   0.971  52.881  1.00  0.00    -0.009 C 
HETATM    8  C16 UNL     1      22.768   0.038  53.388  1.00  0.00    -0.007 C 
HETATM    9  H3  UNL     1      21.014   3.696  51.068  1.00  0.00     0.159 HD
ENDROOT
BRANCH   6  10
HETATM   10  C6  UNL     1      18.435  -0.542  52.348  1.00  0.00    -0.028 C 
HETATM   11  C7  UNL     1      17.617  -0.240  51.327  1.00  0.00    -0.044 C 
HETATM   12  C8  UNL     1      17.988   0.532  50.124  1.00  0.00     0.049 C 
HETATM   13  C9  UNL     1      16.302  -0.799  51.587  1.00  0.00    -0.040 C 
HETATM   14  C13 UNL     1      16.532  -1.631  52.596  1.00  0.00    -0.018 C 
HETATM   15  C14 UNL     1      17.603  -1.287  53.270  1.00  0.00     0.025 C 
BRANCH  13  16
HETATM   16  C10 UNL     1      15.096  -0.418  50.810  1.00  0.00     0.050 C 
BRANCH  16  17
HETATM   17  C11 UNL     1      14.336   0.650  51.559  1.00  0.00     0.114 C 
BRANCH  17  18
HETATM   18  C12 UNL     1      13.448   0.004  52.549  1.00  0.00     0.139 C 
HETATM   19  O1  UNL     1      12.461  -0.552  52.015  1.00  0.00    -0.650 OA
BRANCH  18  20
HETATM   20  O2  UNL     1      13.622  -0.027  53.941  1.00  0.00    -0.776 OA
HETATM   21  H14 UNL     1      12.996  -0.684  54.418  1.00  0.00     0.167 HD
ENDBRANCH  18  20
ENDBRANCH  17  18
ENDBRANCH  16  17
ENDBRANCH  13  16
ENDBRANCH   6  10
BRANCH   8  22
HETATM   22  C17 UNL     1      24.217   0.459  53.363  1.00  0.00     0.054 C 
HETATM   23  C18 UNL     1      25.158  -0.263  54.075  1.00  0.00     0.013 C 
BRANCH  23  24
HETATM   24  C19 UNL     1      26.492   0.335  53.903  1.00  0.00    -0.054 A 
HETATM   25  C20 UNL     1      26.730   1.687  53.724  1.00  0.00     0.007 A 
HETATM   26  C21 UNL     1      27.934   2.323  53.532  1.00  0.00     0.003 A 
HETATM   27  C22 UNL     1      29.062   1.534  53.511  1.00  0.00     0.037 A 
HETATM   28  C23 UNL     1      28.948   0.188  53.677  1.00  0.00     0.068 A 
HETATM   29  C25 UNL     1      27.696  -0.347  53.862  1.00  0.00     0.044 A 
BRANCH  28  30
HETATM   30  O3  UNL     1      30.024  -0.698  53.673  1.00  0.00    -0.356 OA
HETATM   31  C24 UNL     1      29.906  -2.065  53.461  1.00  0.00     0.210 C 
ENDBRANCH  28  30
ENDBRANCH  23  24
ENDBRANCH   8  22
TORSDOF 8
ENDMDL
MODEL 8
REMARK VINA RESULT:      -7.8      3.098     11.658
REMARK  8 active torsions:
REMARK  status: ('A' for Active; 'I' for Inactive)
REMARK    1  A    between atoms: C5_6  and  C6_7 
REMARK    2  A    between atoms: C9_10  and  C10_11 
REMARK    3  A    between atoms: C10_11  and  C11_12 
REMARK    4  A    between atoms: C11_12  and  C12_13 
REMARK    5  A    between atoms: C12_13  and  O2_15 
REMARK    6  A    between atoms: C16_19  and  C17_20 
REMARK    7  A    between atoms: C18_21  and  C19_22 
REMARK    8  A    between atoms: C23_26  and  O3_27 
ROOT
HETATM    1  C1  UNL     1      24.541   1.884  52.146  1.00  0.00     0.063 C 
HETATM    2  C2  UNL     1      23.442   1.199  52.196  1.00  0.00     0.016 C 
HETATM    3  N1  UNL     1      23.118   0.463  53.348  1.00  0.00    -0.388 N 
HETATM    4  C3  UNL     1      22.218  -0.509  52.750  1.00  0.00     0.159 C 
HETATM    5  C4  UNL     1      21.398   0.345  51.819  1.00  0.00    -0.028 C 
HETATM    6  C5  UNL     1      20.100   0.441  51.552  1.00  0.00     0.021 C 
HETATM    7  C15 UNL     1      22.399   1.195  51.144  1.00  0.00    -0.009 C 
HETATM    8  C16 UNL     1      22.341   1.814  49.945  1.00  0.00    -0.007 C 
HETATM    9  H3  UNL     1      23.455   0.616  54.323  1.00  0.00     0.159 HD
ENDROOT
BRANCH   6  10
HETATM   10  C6  UNL     1      18.943  -0.239  52.051  1.00  0.00    -0.028 C 
HETATM   11  C7  UNL     1      17.750  -0.451  51.474  1.00  0.00    -0.044 C 
HETATM   12  C8  UNL     1      17.354  -0.005  50.123  1.00  0.00     0.049 C 
HETATM   13  C9  UNL     1      16.903  -1.197  52.387  1.00  0.00    -0.040 C 
HETATM   14  C13 UNL     1      17.763  -1.617  53.308  1.00  0.00    -0.018 C 
HETATM   15  C14 UNL     1      18.826  -0.850  53.359  1.00  0.00     0.025 C 
BRANCH  13  16
HETATM   16  C10 UNL     1      15.441  -1.355  52.186  1.00  0.00     0.050 C 
BRANCH  16  17
HETATM   17  C11 UNL     1      15.101  -2.824  52.118  1.00  0.00     0.114 C 
BRANCH  17  18
HETATM   18  C12 UNL     1      14.527  -3.124  50.789  1.00  0.00     0.139 C 
HETATM   19  O1  UNL     1      14.337  -2.091  50.107  1.00  0.00    -0.650 OA
BRANCH  18  20
HETATM   20  O2  UNL     1      14.204  -4.390  50.278  1.00  0.00    -0.776 OA
HETATM   21  H14 UNL     1      14.121  -4.411  49.257  1.00  0.00     0.167 HD
ENDBRANCH  18  20
ENDBRANCH  17  18
ENDBRANCH  16  17
ENDBRANCH  13  16
ENDBRANCH   6  10
BRANCH   8  22
HETATM   22  C17 UNL     1      23.567   2.642  49.645  1.00  0.00     0.054 C 
HETATM   23  C18 UNL     1      23.440   3.998  49.399  1.00  0.00     0.013 C 
BRANCH  23  24
HETATM   24  C19 UNL     1      24.760   4.589  49.129  1.00  0.00    -0.054 A 
HETATM   25  C20 UNL     1      25.965   3.920  49.269  1.00  0.00     0.007 A 
HETATM   26  C21 UNL     1      27.236   4.401  49.064  1.00  0.00     0.003 A 
HETATM   27  C22 UNL     1      27.352   5.715  48.667  1.00  0.00     0.037 A 
HETATM   28  C23 UNL     1      26.233   6.470  48.498  1.00  0.00     0.068 A 
HETATM   29  C25 UNL     1      25.008   5.891  48.730  1.00  0.00     0.044 A 
BRANCH  28  30
HETATM   30  O3  UNL     1      26.239   7.806  48.099  1.00  0.00    -0.356 OA
HETATM   31  C24 UNL     1      25.741   8.258  46.885  1.00  0.00     0.210 C 
ENDBRANCH  28  30
ENDBRANCH  23  24
ENDBRANCH   8  22
TORSDOF 8
ENDMDL
MODEL 9
REMARK VINA RESULT:      -7.7      1.815     10.731
REMARK  8 active torsions:
REMARK  status: ('A' for Active; 'I' for Inactive)
REMARK    1  A    between atoms: C5_6  and  C6_7 
REMARK    2  A    between atoms: C9_10  and  C10_11 
REMARK    3  A    between atoms: C10_11  and  C11_12 
REMARK    4  A    between atoms: C11_12  and  C12_13 
REMARK    5  A    between atoms: C12_13  and  O2_15 
REMARK    6  A    between atoms: C16_19  and  C17_20 
REMARK    7  A    between atoms: C18_21  and  C19_22 
REMARK    8  A    between atoms: C23_26  and  O3_27 
ROOT
HETATM    1  C1  UNL     1      24.637   6.733  50.677  1.00  0.00     0.063 C 
HETATM    2  C2  UNL     1      23.898   5.712  50.979  1.00  0.00     0.016 C 
HETATM    3  N1  UNL     1      22.656   5.899  51.607  1.00  0.00    -0.388 N 
HETATM    4  C3  UNL     1      22.516   4.592  52.227  1.00  0.00     0.159 C 
HETATM    5  C4  UNL     1      22.979   3.667  51.131  1.00  0.00    -0.028 C 
HETATM    6  C5  UNL     1      22.517   2.531  50.623  1.00  0.00     0.021 C 
HETATM    7  C15 UNL     1      24.208   4.307  50.623  1.00  0.00    -0.009 C 
HETATM    8  C16 UNL     1      25.267   3.764  49.985  1.00  0.00    -0.007 C 
HETATM    9  H3  UNL     1      22.053   6.750  51.596  1.00  0.00     0.159 HD
ENDROOT
BRANCH   6  10
HETATM   10  C6  UNL     1      21.376   1.717  50.915  1.00  0.00    -0.028 C 
HETATM   11  C7  UNL     1      21.065   1.031  52.025  1.00  0.00    -0.044 C 
HETATM   12  C8  UNL     1      21.880   0.966  53.255  1.00  0.00     0.049 C 
HETATM   13  C9  UNL     1      19.792   0.360  51.833  1.00  0.00    -0.040 C 
HETATM   14  C13 UNL     1      19.317   0.942  50.738  1.00  0.00    -0.018 C 
HETATM   15  C14 UNL     1      20.280   1.450  50.006  1.00  0.00     0.025 C 
BRANCH  13  16
HETATM   16  C10 UNL     1      19.293  -0.702  52.742  1.00  0.00     0.050 C 
BRANCH  16  17
HETATM   17  C11 UNL     1      17.819  -0.918  52.498  1.00  0.00     0.114 C 
BRANCH  17  18
HETATM   18  C12 UNL     1      17.379  -2.116  53.243  1.00  0.00     0.139 C 
HETATM   19  O1  UNL     1      18.312  -2.648  53.887  1.00  0.00    -0.650 OA
BRANCH  18  20
HETATM   20  O2  UNL     1      16.086  -2.660  53.274  1.00  0.00    -0.776 OA
HETATM   21  H14 UNL     1      16.036  -3.621  52.922  1.00  0.00     0.167 HD
ENDBRANCH  18  20
ENDBRANCH  17  18
ENDBRANCH  16  17
ENDBRANCH  13  16
ENDBRANCH   6  10
BRANCH   8  22
HETATM   22  C17 UNL     1      26.304   4.783  49.579  1.00  0.00     0.054 C 
HETATM   23  C18 UNL     1      27.304   4.433  48.689  1.00  0.00     0.013 C 
BRANCH  23  24
HETATM   24  C19 UNL     1      28.192   5.581  48.450  1.00  0.00    -0.054 A 
HETATM   25  C20 UNL     1      27.759   6.868  48.174  1.00  0.00     0.007 A 
HETATM   26  C21 UNL     1      28.516   7.985  47.914  1.00  0.00     0.003 A 
HETATM   27  C22 UNL     1      29.884   7.830  47.923  1.00  0.00     0.037 A 
HETATM   28  C23 UNL     1      30.424   6.608  48.182  1.00  0.00     0.068 A 
HETATM   29  C25 UNL     1      29.576   5.555  48.430  1.00  0.00     0.044 A 
BRANCH  28  30
HETATM   30  O3  UNL     1      31.793   6.345  48.217  1.00  0.00    -0.356 OA
HETATM   31  C24 UNL     1      32.338   5.073  48.317  1.00  0.00     0.210 C 
ENDBRANCH  28  30
ENDBRANCH  23  24
ENDBRANCH   8  22
TORSDOF 8
ENDMDL
