MODEL 1
REMARK VINA RESULT:      -8.2      0.000      0.000
REMARK  3 active torsions:
REMARK  status: ('A' for Active; 'I' for Inactive)
REMARK    1  A    between atoms: C8_10  and  N3_11 
REMARK    2  A    between atoms: N3_11  and  C9_12 
REMARK    3  A    between atoms: C15_21  and  O1_22 
ROOT
HETATM    1  C1  UNL     1      27.224   1.861  52.694  1.00  0.00     0.024 C 
HETATM    2  C2  UNL     1      26.771   0.841  53.405  1.00  0.00    -0.003 C 
HETATM    3  C3  UNL     1      25.405   0.335  53.535  1.00  0.00     0.048 A 
HETATM    4  C4  UNL     1      25.357  -0.413  54.696  1.00  0.00     0.138 A 
HETATM    5  N1  UNL     1      24.172  -0.975  55.003  1.00  0.00    -0.241 NA
HETATM    6  C5  UNL     1      23.076  -0.835  54.243  1.00  0.00     0.144 A 
HETATM    7  C6  UNL     1      23.114  -0.085  53.075  1.00  0.00     0.089 A 
HETATM    8  C7  UNL     1      21.954   0.078  52.247  1.00  0.00     0.103 C 
HETATM    9  N2  UNL     1      21.013   0.231  51.576  1.00  0.00    -0.191 NA
HETATM   10  C8  UNL     1      24.313   0.529  52.694  1.00  0.00     0.070 A 
HETATM   11  N4  UNL     1      26.653  -0.388  55.292  1.00  0.00    -0.344 N 
HETATM   12  C15 UNL     1      27.615  -0.016  54.242  1.00  0.00     0.256 C 
HETATM   13  H8  UNL     1      26.827  -0.607  56.308  1.00  0.00     0.164 HD
ENDROOT
BRANCH  10  14
HETATM   14  N3  UNL     1      24.417   1.311  51.508  1.00  0.00    -0.354 N 
HETATM   15  H4  UNL     1      24.664   0.692  50.717  1.00  0.00     0.166 HD
BRANCH  14  16
HETATM   16  C9  UNL     1      24.201   2.714  51.488  1.00  0.00     0.034 A 
HETATM   17  C10 UNL     1      23.704   3.294  52.618  1.00  0.00     0.032 A 
HETATM   18  C11 UNL     1      23.486   4.668  52.619  1.00  0.00     0.046 A 
HETATM   19  C12 UNL     1      23.783   5.386  51.472  1.00  0.00     0.138 A 
HETATM   20  F1  UNL     1      23.579   6.733  51.445  1.00  0.00    -0.204 F 
HETATM   21  C13 UNL     1      24.287   4.748  50.352  1.00  0.00     0.074 A 
HETATM   22 CL1  UNL     1      24.669   5.656  48.884  1.00  0.00    -0.081 Cl
HETATM   23  C14 UNL     1      24.506   3.384  50.344  1.00  0.00     0.056 A 
ENDBRANCH  14  16
ENDBRANCH  10  14
BRANCH  12  24
HETATM   24  O1  UNL     1      28.169  -1.089  53.621  1.00  0.00    -0.367 OA
HETATM   25  C16 UNL     1      29.547  -1.009  53.458  1.00  0.00     0.204 C 
ENDBRANCH  12  24
TORSDOF 3
ENDMDL
MODEL 2
REMARK VINA RESULT:      -8.0      3.566      5.829
REMARK  3 active torsions:
REMARK  status: ('A' for Active; 'I' for Inactive)
REMARK    1  A    between atoms: C8_10  and  N3_11 
REMARK    2  A    between atoms: N3_11  and  C9_12 
REMARK    3  A    between atoms: C15_21  and  O1_22 
ROOT
HETATM    1  C1  UNL     1      25.420   2.745  51.117  1.00  0.00     0.024 C 
HETATM    2  C2  UNL     1      24.150   2.469  50.869  1.00  0.00    -0.003 C 
HETATM    3  C3  UNL     1      23.277   1.479  51.498  1.00  0.00     0.048 A 
HETATM    4  C4  UNL     1      22.228   1.249  50.627  1.00  0.00     0.138 A 
HETATM    5  N1  UNL     1      21.299   0.358  51.023  1.00  0.00    -0.241 NA
HETATM    6  C5  UNL     1      21.358  -0.291  52.196  1.00  0.00     0.144 A 
HETATM    7  C6  UNL     1      22.407  -0.067  53.077  1.00  0.00     0.089 A 
HETATM    8  C7  UNL     1      22.491  -0.749  54.337  1.00  0.00     0.103 C 
HETATM    9  N2  UNL     1      22.577  -1.310  55.355  1.00  0.00    -0.191 NA
HETATM   10  C8  UNL     1      23.411   0.847  52.731  1.00  0.00     0.070 A 
HETATM   11  N4  UNL     1      22.424   2.067  49.474  1.00  0.00    -0.344 N 
HETATM   12  C15 UNL     1      23.344   3.151  49.854  1.00  0.00     0.256 C 
HETATM   13  H8  UNL     1      21.964   1.878  48.546  1.00  0.00     0.164 HD
ENDROOT
BRANCH  10  14
HETATM   14  N3  UNL     1      24.511   1.120  53.592  1.00  0.00    -0.354 N 
HETATM   15  H4  UNL     1      24.233   1.843  54.277  1.00  0.00     0.166 HD
BRANCH  14  16
HETATM   16  C9  UNL     1      25.766   0.467  53.470  1.00  0.00     0.034 A 
HETATM   17  C10 UNL     1      25.786  -0.759  52.872  1.00  0.00     0.032 A 
HETATM   18  C11 UNL     1      27.006  -1.416  52.743  1.00  0.00     0.046 A 
HETATM   19  C12 UNL     1      28.146  -0.796  53.228  1.00  0.00     0.138 A 
HETATM   20  F1  UNL     1      29.353  -1.417  53.115  1.00  0.00    -0.204 F 
HETATM   21  C13 UNL     1      28.071   0.450  53.827  1.00  0.00     0.074 A 
HETATM   22 CL1  UNL     1      29.519   1.249  54.448  1.00  0.00    -0.081 Cl
HETATM   23  C14 UNL     1      26.863   1.108  53.958  1.00  0.00     0.056 A 
ENDBRANCH  14  16
ENDBRANCH  10  14
BRANCH  12  24
HETATM   24  O1  UNL     1      22.703   4.276  50.264  1.00  0.00    -0.367 OA
HETATM   25  C16 UNL     1      23.295   5.460  49.842  1.00  0.00     0.204 C 
ENDBRANCH  12  24
TORSDOF 3
ENDMDL
MODEL 3
REMARK VINA RESULT:      -7.9      1.921      3.869
REMARK  3 active torsions:
REMARK  status: ('A' for Active; 'I' for Inactive)
REMARK    1  A    between atoms: C8_10  and  N3_11 
REMARK    2  A    between atoms: N3_11  and  C9_12 
REMARK    3  A    between atoms: C15_21  and  O1_22 
ROOT
HETATM    1  C1  UNL     1      22.456  -0.753  52.289  1.00  0.00     0.024 C 
HETATM    2  C2  UNL     1      23.015  -0.736  53.488  1.00  0.00    -0.003 C 
HETATM    3  C3  UNL     1      24.358  -0.310  53.879  1.00  0.00     0.048 A 
HETATM    4  C4  UNL     1      24.630  -0.889  55.104  1.00  0.00     0.138 A 
HETATM    5  N1  UNL     1      25.832  -0.619  55.647  1.00  0.00    -0.241 NA
HETATM    6  C5  UNL     1      26.743   0.168  55.054  1.00  0.00     0.144 A 
HETATM    7  C6  UNL     1      26.481   0.754  53.823  1.00  0.00     0.089 A 
HETATM    8  C7  UNL     1      27.440   1.599  53.172  1.00  0.00     0.103 C 
HETATM    9  N2  UNL     1      28.219   2.273  52.626  1.00  0.00    -0.191 NA
HETATM   10  C8  UNL     1      25.250   0.517  53.200  1.00  0.00     0.070 A 
HETATM   11  N4  UNL     1      23.494  -1.664  55.488  1.00  0.00    -0.344 N 
HETATM   12  C15 UNL     1      22.343  -1.171  54.714  1.00  0.00     0.256 C 
HETATM   13  H8  UNL     1      23.535  -2.436  56.202  1.00  0.00     0.164 HD
ENDROOT
BRANCH  10  14
HETATM   14  N3  UNL     1      24.920   1.089  51.938  1.00  0.00    -0.354 N 
HETATM   15  H4  UNL     1      24.989   0.359  51.208  1.00  0.00     0.166 HD
BRANCH  14  16
HETATM   16  C9  UNL     1      24.564   2.454  51.780  1.00  0.00     0.034 A 
HETATM   17  C10 UNL     1      23.804   3.027  52.757  1.00  0.00     0.032 A 
HETATM   18  C11 UNL     1      23.443   4.364  52.621  1.00  0.00     0.046 A 
HETATM   19  C12 UNL     1      23.871   5.054  51.499  1.00  0.00     0.138 A 
HETATM   20  F1  UNL     1      23.533   6.364  51.340  1.00  0.00    -0.204 F 
HETATM   21  C13 UNL     1      24.642   4.425  50.536  1.00  0.00     0.074 A 
HETATM   22 CL1  UNL     1      25.193   5.297  49.101  1.00  0.00    -0.081 Cl
HETATM   23  C14 UNL     1      25.003   3.098  50.665  1.00  0.00     0.056 A 
ENDBRANCH  14  16
ENDBRANCH  10  14
BRANCH  12  24
HETATM   24  O1  UNL     1      21.630  -0.217  55.368  1.00  0.00    -0.367 OA
HETATM   25  C16 UNL     1      20.621   0.365  54.611  1.00  0.00     0.204 C 
ENDBRANCH  12  24
TORSDOF 3
ENDMDL
MODEL 4
REMARK VINA RESULT:      -7.7      1.945      2.153
REMARK  3 active torsions:
REMARK  status: ('A' for Active; 'I' for Inactive)
REMARK    1  A    between atoms: C8_10  and  N3_11 
REMARK    2  A    between atoms: N3_11  and  C9_12 
REMARK    3  A    between atoms: C15_21  and  O1_22 
ROOT
HETATM    1  C1  UNL     1      26.526   1.390  51.935  1.00  0.00     0.024 C 
HETATM    2  C2  UNL     1      26.539   0.535  52.945  1.00  0.00    -0.003 C 
HETATM    3  C3  UNL     1      25.419  -0.038  53.690  1.00  0.00     0.048 A 
HETATM    4  C4  UNL     1      25.919  -0.490  54.896  1.00  0.00     0.138 A 
HETATM    5  N1  UNL     1      25.038  -1.059  55.740  1.00  0.00    -0.241 NA
HETATM    6  C5  UNL     1      23.734  -1.196  55.456  1.00  0.00     0.144 A 
HETATM    7  C6  UNL     1      23.221  -0.745  54.247  1.00  0.00     0.089 A 
HETATM    8  C7  UNL     1      21.831  -0.882  53.922  1.00  0.00     0.103 C 
HETATM    9  N2  UNL     1      20.699  -0.972  53.654  1.00  0.00    -0.191 NA
HETATM   10  C8  UNL     1      24.080  -0.142  53.320  1.00  0.00     0.070 A 
HETATM   11  N4  UNL     1      27.319  -0.215  54.924  1.00  0.00    -0.344 N 
HETATM   12  C15 UNL     1      27.759  -0.024  53.532  1.00  0.00     0.256 C 
HETATM   13  H8  UNL     1      27.883  -0.170  55.812  1.00  0.00     0.164 HD
ENDROOT
BRANCH  10  14
HETATM   14  N3  UNL     1      23.615   0.340  52.064  1.00  0.00    -0.354 N 
HETATM   15  H4  UNL     1      23.895  -0.324  51.322  1.00  0.00     0.166 HD
BRANCH  14  16
HETATM   16  C9  UNL     1      22.888   1.552  51.924  1.00  0.00     0.034 A 
HETATM   17  C10 UNL     1      23.365   2.655  52.570  1.00  0.00     0.032 A 
HETATM   18  C11 UNL     1      22.668   3.852  52.445  1.00  0.00     0.046 A 
HETATM   19  C12 UNL     1      21.520   3.871  51.672  1.00  0.00     0.138 A 
HETATM   20  F1  UNL     1      20.817   5.030  51.532  1.00  0.00    -0.204 F 
HETATM   21  C13 UNL     1      21.078   2.723  51.035  1.00  0.00     0.074 A 
HETATM   22 CL1  UNL     1      19.615   2.738  50.045  1.00  0.00    -0.081 Cl
HETATM   23  C14 UNL     1      21.766   1.531  51.155  1.00  0.00     0.056 A 
ENDBRANCH  14  16
ENDBRANCH  10  14
BRANCH  12  24
HETATM   24  O1  UNL     1      28.223  -1.164  52.958  1.00  0.00    -0.367 OA
HETATM   25  C16 UNL     1      29.476  -1.564  53.408  1.00  0.00     0.204 C 
ENDBRANCH  12  24
TORSDOF 3
ENDMDL
MODEL 5
REMARK VINA RESULT:      -7.7      3.722      6.278
REMARK  3 active torsions:
REMARK  status: ('A' for Active; 'I' for Inactive)
REMARK    1  A    between atoms: C8_10  and  N3_11 
REMARK    2  A    between atoms: N3_11  and  C9_12 
REMARK    3  A    between atoms: C15_21  and  O1_22 
ROOT
HETATM    1  C1  UNL     1      22.582  -0.649  53.263  1.00  0.00     0.024 C 
HETATM    2  C2  UNL     1      22.064   0.456  52.750  1.00  0.00    -0.003 C 
HETATM    3  C3  UNL     1      22.742   1.625  52.191  1.00  0.00     0.048 A 
HETATM    4  C4  UNL     1      21.838   2.670  52.212  1.00  0.00     0.138 A 
HETATM    5  N1  UNL     1      22.270   3.852  51.733  1.00  0.00    -0.241 NA
HETATM    6  C5  UNL     1      23.508   4.040  51.254  1.00  0.00     0.144 A 
HETATM    7  C6  UNL     1      24.424   2.997  51.228  1.00  0.00     0.089 A 
HETATM    8  C7  UNL     1      25.754   3.175  50.720  1.00  0.00     0.103 C 
HETATM    9  N2  UNL     1      26.842   3.313  50.324  1.00  0.00    -0.191 NA
HETATM   10  C8  UNL     1      24.044   1.739  51.711  1.00  0.00     0.070 A 
HETATM   11  N4  UNL     1      20.616   2.185  52.768  1.00  0.00    -0.344 N 
HETATM   12  C15 UNL     1      20.627   0.718  52.646  1.00  0.00     0.256 C 
HETATM   13  H8  UNL     1      19.877   2.814  53.178  1.00  0.00     0.164 HD
ENDROOT
BRANCH  10  14
HETATM   14  N3  UNL     1      24.937   0.629  51.711  1.00  0.00    -0.354 N 
HETATM   15  H4  UNL     1      24.720   0.021  50.904  1.00  0.00     0.166 HD
BRANCH  14  16
HETATM   16  C9  UNL     1      25.944   0.450  52.697  1.00  0.00     0.034 A 
HETATM   17  C10 UNL     1      25.821   1.150  53.861  1.00  0.00     0.032 A 
HETATM   18  C11 UNL     1      26.797   0.988  54.840  1.00  0.00     0.046 A 
HETATM   19  C12 UNL     1      27.850   0.125  54.588  1.00  0.00     0.138 A 
HETATM   20  F1  UNL     1      28.820  -0.053  55.528  1.00  0.00    -0.204 F 
HETATM   21  C13 UNL     1      27.927  -0.562  53.388  1.00  0.00     0.074 A 
HETATM   22 CL1  UNL     1      29.267  -1.666  53.057  1.00  0.00    -0.081 Cl
HETATM   23  C14 UNL     1      26.962  -0.406  52.412  1.00  0.00     0.056 A 
ENDBRANCH  14  16
ENDBRANCH  10  14
BRANCH  12  24
HETATM   24  O1  UNL     1      20.024   0.273  51.513  1.00  0.00    -0.367 OA
HETATM   25  C16 UNL     1      18.689  -0.075  51.672  1.00  0.00     0.204 C 
ENDBRANCH  12  24
TORSDOF 3
ENDMDL
MODEL 6
REMARK VINA RESULT:      -7.4      3.002      4.378
REMARK  3 active torsions:
REMARK  status: ('A' for Active; 'I' for Inactive)
REMARK    1  A    between atoms: C8_10  and  N3_11 
REMARK    2  A    between atoms: N3_11  and  C9_12 
REMARK    3  A    between atoms: C15_21  and  O1_22 
ROOT
HETATM    1  C1  UNL     1      23.897  -0.586  53.684  1.00  0.00     0.024 C 
HETATM    2  C2  UNL     1      25.038  -0.040  53.296  1.00  0.00    -0.003 C 
HETATM    3  C3  UNL     1      25.265   1.141  52.464  1.00  0.00     0.048 A 
HETATM    4  C4  UNL     1      26.552   1.050  51.970  1.00  0.00     0.138 A 
HETATM    5  N1  UNL     1      26.965   2.052  51.171  1.00  0.00    -0.241 NA
HETATM    6  C5  UNL     1      26.191   3.099  50.849  1.00  0.00     0.144 A 
HETATM    7  C6  UNL     1      24.895   3.200  51.340  1.00  0.00     0.089 A 
HETATM    8  C7  UNL     1      24.050   4.311  51.010  1.00  0.00     0.103 C 
HETATM    9  N2  UNL     1      23.348   5.201  50.734  1.00  0.00    -0.191 NA
HETATM   10  C8  UNL     1      24.399   2.193  52.177  1.00  0.00     0.070 A 
HETATM   11  N4  UNL     1      27.134  -0.153  52.471  1.00  0.00    -0.344 N 
HETATM   12  C15 UNL     1      26.360  -0.556  53.657  1.00  0.00     0.256 C 
HETATM   13  H8  UNL     1      27.967  -0.621  52.029  1.00  0.00     0.164 HD
ENDROOT
BRANCH  10  14
HETATM   14  N3  UNL     1      23.081   2.239  52.713  1.00  0.00    -0.354 N 
HETATM   15  H4  UNL     1      23.129   2.519  53.707  1.00  0.00     0.166 HD
BRANCH  14  16
HETATM   16  C9  UNL     1      21.926   1.935  51.945  1.00  0.00     0.034 A 
HETATM   17  C10 UNL     1      22.022   0.931  51.026  1.00  0.00     0.032 A 
HETATM   18  C11 UNL     1      20.902   0.617  50.264  1.00  0.00     0.046 A 
HETATM   19  C12 UNL     1      19.738   1.339  50.470  1.00  0.00     0.138 A 
HETATM   20  F1  UNL     1      18.626   1.053  49.737  1.00  0.00    -0.204 F 
HETATM   21  C13 UNL     1      19.693   2.349  51.415  1.00  0.00     0.074 A 
HETATM   22 CL1  UNL     1      18.212   3.276  51.686  1.00  0.00    -0.081 Cl
HETATM   23  C14 UNL     1      20.802   2.666  52.176  1.00  0.00     0.056 A 
ENDBRANCH  14  16
ENDBRANCH  10  14
BRANCH  12  24
HETATM   24  O1  UNL     1      26.882  -0.087  54.819  1.00  0.00    -0.367 OA
HETATM   25  C16 UNL     1      28.267   0.026  54.822  1.00  0.00     0.204 C 
ENDBRANCH  12  24
TORSDOF 3
ENDMDL
MODEL 7
REMARK VINA RESULT:      -7.4      2.325      3.214
REMARK  3 active torsions:
REMARK  status: ('A' for Active; 'I' for Inactive)
REMARK    1  A    between atoms: C8_10  and  N3_11 
REMARK    2  A    between atoms: N3_11  and  C9_12 
REMARK    3  A    between atoms: C15_21  and  O1_22 
ROOT
HETATM    1  C1  UNL     1      26.031   2.192  53.915  1.00  0.00     0.024 C 
HETATM    2  C2  UNL     1      25.232   1.307  53.342  1.00  0.00    -0.003 C 
HETATM    3  C3  UNL     1      23.990   1.522  52.600  1.00  0.00     0.048 A 
HETATM    4  C4  UNL     1      23.302   0.324  52.599  1.00  0.00     0.138 A 
HETATM    5  N1  UNL     1      22.117   0.308  51.960  1.00  0.00    -0.241 NA
HETATM    6  C5  UNL     1      21.601   1.383  51.345  1.00  0.00     0.144 A 
HETATM    7  C6  UNL     1      22.284   2.592  51.341  1.00  0.00     0.089 A 
HETATM    8  C7  UNL     1      21.752   3.755  50.690  1.00  0.00     0.103 C 
HETATM    9  N2  UNL     1      21.321   4.710  50.179  1.00  0.00    -0.191 NA
HETATM   10  C8  UNL     1      23.523   2.682  51.987  1.00  0.00     0.070 A 
HETATM   11  N4  UNL     1      24.080  -0.633  53.319  1.00  0.00    -0.344 N 
HETATM   12  C15 UNL     1      25.466  -0.139  53.350  1.00  0.00     0.256 C 
HETATM   13  H8  UNL     1      23.677  -1.515  53.730  1.00  0.00     0.164 HD
ENDROOT
BRANCH  10  14
HETATM   14  N3  UNL     1      24.272   3.893  52.018  1.00  0.00    -0.354 N 
HETATM   15  H4  UNL     1      24.086   4.383  52.909  1.00  0.00     0.166 HD
BRANCH  14  16
HETATM   16  C9  UNL     1      25.121   4.302  50.955  1.00  0.00     0.034 A 
HETATM   17  C10 UNL     1      25.988   3.379  50.448  1.00  0.00     0.032 A 
HETATM   18  C11 UNL     1      26.829   3.759  49.406  1.00  0.00     0.046 A 
HETATM   19  C12 UNL     1      26.749   5.058  48.932  1.00  0.00     0.138 A 
HETATM   20  F1  UNL     1      27.560   5.457  47.913  1.00  0.00    -0.204 F 
HETATM   21  C13 UNL     1      25.850   5.955  49.482  1.00  0.00     0.074 A 
HETATM   22 CL1  UNL     1      25.739   7.614  48.883  1.00  0.00    -0.081 Cl
HETATM   23  C14 UNL     1      25.012   5.584  50.516  1.00  0.00     0.056 A 
ENDBRANCH  14  16
ENDBRANCH  10  14
BRANCH  12  24
HETATM   24  O1  UNL     1      26.227  -0.621  52.334  1.00  0.00    -0.367 OA
HETATM   25  C16 UNL     1      26.858  -1.828  52.612  1.00  0.00     0.204 C 
ENDBRANCH  12  24
TORSDOF 3
ENDMDL
MODEL 8
REMARK VINA RESULT:      -7.3      3.616      5.749
REMARK  3 active torsions:
REMARK  status: ('A' for Active; 'I' for Inactive)
REMARK    1  A    between atoms: C8_10  and  N3_11 
REMARK    2  A    between atoms: N3_11  and  C9_12 
REMARK    3  A    between atoms: C15_21  and  O1_22 
ROOT
HETATM    1  C1  UNL     1      23.951   3.497  49.700  1.00  0.00     0.024 C 
HETATM    2  C2  UNL     1      22.994   3.848  50.544  1.00  0.00    -0.003 C 
HETATM    3  C3  UNL     1      22.202   3.013  51.446  1.00  0.00     0.048 A 
HETATM    4  C4  UNL     1      21.063   3.727  51.767  1.00  0.00     0.138 A 
HETATM    5  N1  UNL     1      20.189   3.129  52.598  1.00  0.00    -0.241 NA
HETATM    6  C5  UNL     1      20.383   1.903  53.107  1.00  0.00     0.144 A 
HETATM    7  C6  UNL     1      21.524   1.177  52.791  1.00  0.00     0.089 A 
HETATM    8  C7  UNL     1      21.753  -0.135  53.323  1.00  0.00     0.103 C 
HETATM    9  N2  UNL     1      21.941  -1.209  53.737  1.00  0.00    -0.191 NA
HETATM   10  C8  UNL     1      22.477   1.737  51.931  1.00  0.00     0.070 A 
HETATM   11  N4  UNL     1      21.123   4.983  51.090  1.00  0.00    -0.344 N 
HETATM   12  C15 UNL     1      22.531   5.224  50.734  1.00  0.00     0.256 C 
HETATM   13  H8  UNL     1      20.278   5.583  50.908  1.00  0.00     0.164 HD
ENDROOT
BRANCH  10  14
HETATM   14  N3  UNL     1      23.667   1.044  51.569  1.00  0.00    -0.354 N 
HETATM   15  H4  UNL     1      23.514   0.559  50.669  1.00  0.00     0.166 HD
BRANCH  14  16
HETATM   16  C9  UNL     1      24.841   1.060  52.367  1.00  0.00     0.034 A 
HETATM   17  C10 UNL     1      25.055   2.152  53.157  1.00  0.00     0.032 A 
HETATM   18  C11 UNL     1      26.200   2.187  53.946  1.00  0.00     0.046 A 
HETATM   19  C12 UNL     1      27.073   1.113  53.894  1.00  0.00     0.138 A 
HETATM   20  F1  UNL     1      28.202   1.121  54.656  1.00  0.00    -0.204 F 
HETATM   21  C13 UNL     1      26.809   0.028  53.075  1.00  0.00     0.074 A 
HETATM   22 CL1  UNL     1      27.916  -1.347  53.002  1.00  0.00    -0.081 Cl
HETATM   23  C14 UNL     1      25.674  -0.013  52.289  1.00  0.00     0.056 A 
ENDBRANCH  14  16
ENDBRANCH  10  14
BRANCH  12  24
HETATM   24  O1  UNL     1      23.200   5.951  51.666  1.00  0.00    -0.367 OA
HETATM   25  C16 UNL     1      24.142   6.827  51.142  1.00  0.00     0.204 C 
ENDBRANCH  12  24
TORSDOF 3
ENDMDL
MODEL 9
REMARK VINA RESULT:      -7.2      2.711      5.017
REMARK  3 active torsions:
REMARK  status: ('A' for Active; 'I' for Inactive)
REMARK    1  A    between atoms: C8_10  and  N3_11 
REMARK    2  A    between atoms: N3_11  and  C9_12 
REMARK    3  A    between atoms: C15_21  and  O1_22 
ROOT
HETATM    1  C1  UNL     1      21.136   1.031  49.955  1.00  0.00     0.024 C 
HETATM    2  C2  UNL     1      20.701   0.699  51.160  1.00  0.00    -0.003 C 
HETATM    3  C3  UNL     1      21.451   0.194  52.309  1.00  0.00     0.048 A 
HETATM    4  C4  UNL     1      20.544  -0.424  53.149  1.00  0.00     0.138 A 
HETATM    5  N1  UNL     1      21.037  -0.961  54.281  1.00  0.00    -0.241 NA
HETATM    6  C5  UNL     1      22.338  -0.918  54.607  1.00  0.00     0.144 A 
HETATM    7  C6  UNL     1      23.257  -0.300  53.770  1.00  0.00     0.089 A 
HETATM    8  C7  UNL     1      24.653  -0.241  54.098  1.00  0.00     0.103 C 
HETATM    9  N2  UNL     1      25.791  -0.203  54.347  1.00  0.00    -0.191 NA
HETATM   10  C8  UNL     1      22.815   0.281  52.575  1.00  0.00     0.070 A 
HETATM   11  N4  UNL     1      19.250  -0.318  52.556  1.00  0.00    -0.344 N 
HETATM   12  C15 UNL     1      19.301   0.783  51.581  1.00  0.00     0.256 C 
HETATM   13  H8  UNL     1      18.443  -0.945  52.811  1.00  0.00     0.164 HD
ENDROOT
BRANCH  10  14
HETATM   14  N3  UNL     1      23.709   0.929  51.675  1.00  0.00    -0.354 N 
HETATM   15  H4  UNL     1      24.207   0.213  51.120  1.00  0.00     0.166 HD
BRANCH  14  16
HETATM   16  C9  UNL     1      23.842   2.341  51.605  1.00  0.00     0.034 A 
HETATM   17  C10 UNL     1      23.377   3.074  52.657  1.00  0.00     0.032 A 
HETATM   18  C11 UNL     1      23.498   4.459  52.608  1.00  0.00     0.046 A 
HETATM   19  C12 UNL     1      24.086   5.033  51.493  1.00  0.00     0.138 A 
HETATM   20  F1  UNL     1      24.218   6.386  51.418  1.00  0.00    -0.204 F 
HETATM   21  C13 UNL     1      24.543   4.243  50.451  1.00  0.00     0.074 A 
HETATM   22 CL1  UNL     1      25.294   4.965  49.024  1.00  0.00    -0.081 Cl
HETATM   23  C14 UNL     1      24.425   2.867  50.494  1.00  0.00     0.056 A 
ENDBRANCH  14  16
ENDBRANCH  10  14
BRANCH  12  24
HETATM   24  O1  UNL     1      18.910   1.975  52.102  1.00  0.00    -0.367 OA
HETATM   25  C16 UNL     1      17.865   2.585  51.419  1.00  0.00     0.204 C 
ENDBRANCH  12  24
TORSDOF 3
ENDMDL
