MODEL 1
REMARK VINA RESULT:      -7.8      0.000      0.000
REMARK  5 active torsions:
REMARK  status: ('A' for Active; 'I' for Inactive)
REMARK    1  A    between atoms: O1_2  and  C2_3 
REMARK    2  A    between atoms: C3_5  and  N2_6 
REMARK    3  A    between atoms: N2_6  and  C5_8 
REMARK    4  A    between atoms: C13_16  and  O2_17 
REMARK    5  A    between atoms: C15_19  and  O3_20 
ROOT
HETATM    1  C2  UNL     1      22.223  -0.429  53.893  1.00  0.00     0.270 A 
HETATM    2  N1  UNL     1      22.208   0.673  53.143  1.00  0.00    -0.188 NA
HETATM    3  C3  UNL     1      23.303   1.323  52.728  1.00  0.00     0.147 A 
HETATM    4  C11 UNL     1      24.520   0.830  53.092  1.00  0.00     0.042 A 
HETATM    5  C12 UNL     1      25.661   1.484  52.675  1.00  0.00     0.057 A 
HETATM    6  C13 UNL     1      26.869   0.930  53.081  1.00  0.00     0.102 A 
HETATM    7  C15 UNL     1      26.972  -0.206  53.856  1.00  0.00     0.103 A 
HETATM    8  C17 UNL     1      25.788  -0.802  54.232  1.00  0.00     0.072 A 
HETATM    9  C18 UNL     1      24.550  -0.312  53.869  1.00  0.00     0.078 A 
HETATM   10  N3  UNL     1      23.420  -0.930  54.262  1.00  0.00    -0.206 NA
ENDROOT
BRANCH   3  11
HETATM   11  N2  UNL     1      23.111   2.485  51.932  1.00  0.00    -0.335 N 
HETATM   12  C4  UNL     1      23.192   3.854  52.463  1.00  0.00     0.158 C 
BRANCH  11  13
HETATM   13  C5  UNL     1      22.822   2.321  50.548  1.00  0.00     0.035 A 
HETATM   14  C6  UNL     1      21.964   1.375  50.081  1.00  0.00     0.029 A 
HETATM   15  C7  UNL     1      21.654   1.177  48.746  1.00  0.00     0.002 A 
HETATM   16  C8  UNL     1      22.243   1.985  47.801  1.00  0.00     0.000 A 
HETATM   17  C9  UNL     1      23.131   2.966  48.246  1.00  0.00     0.002 A 
HETATM   18  C10 UNL     1      23.407   3.123  49.589  1.00  0.00     0.029 A 
ENDBRANCH  11  13
ENDBRANCH   3  11
BRANCH   1  19
HETATM   19  O1  UNL     1      21.087  -1.097  54.319  1.00  0.00    -0.324 OA
HETATM   20  C1  UNL     1      19.828  -0.903  53.716  1.00  0.00     0.213 C 
ENDBRANCH   1  19
BRANCH   6  21
HETATM   21  O2  UNL     1      28.014   1.589  52.661  1.00  0.00    -0.353 OA
HETATM   22  C14 UNL     1      28.645   2.542  53.487  1.00  0.00     0.210 C 
ENDBRANCH   6  21
BRANCH   7  23
HETATM   23  O3  UNL     1      28.240  -0.640  54.181  1.00  0.00    -0.353 OA
HETATM   24  C16 UNL     1      28.939  -1.546  53.369  1.00  0.00     0.210 C 
ENDBRANCH   7  23
TORSDOF 5
ENDMDL
MODEL 2
REMARK VINA RESULT:      -7.6      2.234      5.553
REMARK  5 active torsions:
REMARK  status: ('A' for Active; 'I' for Inactive)
REMARK    1  A    between atoms: O1_2  and  C2_3 
REMARK    2  A    between atoms: C3_5  and  N2_6 
REMARK    3  A    between atoms: N2_6  and  C5_8 
REMARK    4  A    between atoms: C13_16  and  O2_17 
REMARK    5  A    between atoms: C15_19  and  O3_20 
ROOT
HETATM    1  C2  UNL     1      22.997  -0.408  53.697  1.00  0.00     0.270 A 
HETATM    2  N1  UNL     1      24.288  -0.129  53.875  1.00  0.00    -0.188 NA
HETATM    3  C3  UNL     1      25.000   0.698  53.099  1.00  0.00     0.147 A 
HETATM    4  C11 UNL     1      24.368   1.302  52.054  1.00  0.00     0.042 A 
HETATM    5  C12 UNL     1      25.081   2.159  51.243  1.00  0.00     0.057 A 
HETATM    6  C13 UNL     1      24.378   2.740  50.195  1.00  0.00     0.102 A 
HETATM    7  C15 UNL     1      23.044   2.506  49.941  1.00  0.00     0.103 A 
HETATM    8  C17 UNL     1      22.399   1.639  50.797  1.00  0.00     0.072 A 
HETATM    9  C18 UNL     1      23.029   1.022  51.858  1.00  0.00     0.078 A 
HETATM   10  N3  UNL     1      22.356   0.182  52.667  1.00  0.00    -0.206 NA
ENDROOT
BRANCH   3  11
HETATM   11  N2  UNL     1      26.370   0.887  53.429  1.00  0.00    -0.335 N 
HETATM   12  C4  UNL     1      26.924   2.167  53.892  1.00  0.00     0.158 C 
BRANCH  11  13
HETATM   13  C5  UNL     1      27.257  -0.220  53.303  1.00  0.00     0.035 A 
HETATM   14  C6  UNL     1      26.874  -1.417  52.783  1.00  0.00     0.029 A 
HETATM   15  C7  UNL     1      27.700  -2.520  52.643  1.00  0.00     0.002 A 
HETATM   16  C8  UNL     1      29.010  -2.424  53.051  1.00  0.00     0.000 A 
HETATM   17  C9  UNL     1      29.436  -1.210  53.591  1.00  0.00     0.002 A 
HETATM   18  C10 UNL     1      28.574  -0.138  53.710  1.00  0.00     0.029 A 
ENDBRANCH  11  13
ENDBRANCH   3  11
BRANCH   1  19
HETATM   19  O1  UNL     1      22.266  -1.265  54.503  1.00  0.00    -0.324 OA
HETATM   20  C1  UNL     1      20.912  -1.566  54.252  1.00  0.00     0.213 C 
ENDBRANCH   1  19
BRANCH   6  21
HETATM   21  O2  UNL     1      25.098   3.601  49.380  1.00  0.00    -0.353 OA
HETATM   22  C14 UNL     1      26.491   3.755  49.540  1.00  0.00     0.210 C 
ENDBRANCH   6  21
BRANCH   7  23
HETATM   23  O3  UNL     1      22.478   3.156  48.864  1.00  0.00    -0.353 OA
HETATM   24  C16 UNL     1      21.671   2.480  47.937  1.00  0.00     0.210 C 
ENDBRANCH   7  23
TORSDOF 5
ENDMDL
MODEL 3
REMARK VINA RESULT:      -7.6      2.478      6.762
REMARK  5 active torsions:
REMARK  status: ('A' for Active; 'I' for Inactive)
REMARK    1  A    between atoms: O1_2  and  C2_3 
REMARK    2  A    between atoms: C3_5  and  N2_6 
REMARK    3  A    between atoms: N2_6  and  C5_8 
REMARK    4  A    between atoms: C13_16  and  O2_17 
REMARK    5  A    between atoms: C15_19  and  O3_20 
ROOT
HETATM    1  C2  UNL     1      26.324   2.987  50.567  1.00  0.00     0.270 A 
HETATM    2  N1  UNL     1      26.711   2.325  51.657  1.00  0.00    -0.188 NA
HETATM    3  C3  UNL     1      25.909   1.547  52.397  1.00  0.00     0.147 A 
HETATM    4  C11 UNL     1      24.608   1.418  52.015  1.00  0.00     0.042 A 
HETATM    5  C12 UNL     1      23.765   0.622  52.762  1.00  0.00     0.057 A 
HETATM    6  C13 UNL     1      22.451   0.534  52.318  1.00  0.00     0.102 A 
HETATM    7  C15 UNL     1      21.971   1.185  51.202  1.00  0.00     0.103 A 
HETATM    8  C17 UNL     1      22.874   1.961  50.509  1.00  0.00     0.072 A 
HETATM    9  C18 UNL     1      24.194   2.099  50.886  1.00  0.00     0.078 A 
HETATM   10  N3  UNL     1      25.039   2.869  50.175  1.00  0.00    -0.206 NA
ENDROOT
BRANCH   3  11
HETATM   11  N2  UNL     1      26.482   0.910  53.532  1.00  0.00    -0.335 N 
HETATM   12  C4  UNL     1      26.288   1.383  54.910  1.00  0.00     0.158 C 
BRANCH  11  13
HETATM   13  C5  UNL     1      27.287  -0.246  53.328  1.00  0.00     0.035 A 
HETATM   14  C6  UNL     1      28.614  -0.282  53.624  1.00  0.00     0.029 A 
HETATM   15  C7  UNL     1      29.436  -1.381  53.441  1.00  0.00     0.002 A 
HETATM   16  C8  UNL     1      28.895  -2.536  52.925  1.00  0.00     0.000 A 
HETATM   17  C9  UNL     1      27.536  -2.533  52.609  1.00  0.00     0.002 A 
HETATM   18  C10 UNL     1      26.758  -1.411  52.810  1.00  0.00     0.029 A 
ENDBRANCH  11  13
ENDBRANCH   3  11
BRANCH   1  19
HETATM   19  O1  UNL     1      27.158   3.789  49.806  1.00  0.00    -0.324 OA
HETATM   20  C1  UNL     1      26.672   4.866  49.036  1.00  0.00     0.213 C 
ENDBRANCH   1  19
BRANCH   6  21
HETATM   21  O2  UNL     1      21.605  -0.267  53.071  1.00  0.00    -0.353 OA
HETATM   22  C14 UNL     1      21.159   0.146  54.344  1.00  0.00     0.210 C 
ENDBRANCH   6  21
BRANCH   7  23
HETATM   23  O3  UNL     1      20.642   1.002  50.883  1.00  0.00    -0.353 OA
HETATM   24  C16 UNL     1      19.662   1.940  51.244  1.00  0.00     0.210 C 
ENDBRANCH   7  23
TORSDOF 5
ENDMDL
MODEL 4
REMARK VINA RESULT:      -7.4      2.214      4.452
REMARK  5 active torsions:
REMARK  status: ('A' for Active; 'I' for Inactive)
REMARK    1  A    between atoms: O1_2  and  C2_3 
REMARK    2  A    between atoms: C3_5  and  N2_6 
REMARK    3  A    between atoms: N2_6  and  C5_8 
REMARK    4  A    between atoms: C13_16  and  O2_17 
REMARK    5  A    between atoms: C15_19  and  O3_20 
ROOT
HETATM    1  C2  UNL     1      26.190   3.578  50.108  1.00  0.00     0.270 A 
HETATM    2  N1  UNL     1      24.926   3.795  50.471  1.00  0.00    -0.188 NA
HETATM    3  C3  UNL     1      24.239   3.025  51.325  1.00  0.00     0.147 A 
HETATM    4  C11 UNL     1      24.869   1.944  51.864  1.00  0.00     0.042 A 
HETATM    5  C12 UNL     1      24.181   1.137  52.746  1.00  0.00     0.057 A 
HETATM    6  C13 UNL     1      24.880   0.051  53.259  1.00  0.00     0.102 A 
HETATM    7  C15 UNL     1      26.187  -0.244  52.935  1.00  0.00     0.103 A 
HETATM    8  C17 UNL     1      26.807   0.609  52.048  1.00  0.00     0.072 A 
HETATM    9  C18 UNL     1      26.180   1.707  51.496  1.00  0.00     0.078 A 
HETATM   10  N3  UNL     1      26.828   2.511  50.633  1.00  0.00    -0.206 NA
ENDROOT
BRANCH   3  11
HETATM   11  N2  UNL     1      22.897   3.398  51.606  1.00  0.00    -0.335 N 
HETATM   12  C4  UNL     1      22.532   4.600  52.369  1.00  0.00     0.158 C 
BRANCH  11  13
HETATM   13  C5  UNL     1      21.846   2.565  51.127  1.00  0.00     0.035 A 
HETATM   14  C6  UNL     1      21.825   2.054  49.867  1.00  0.00     0.029 A 
HETATM   15  C7  UNL     1      20.826   1.243  49.358  1.00  0.00     0.002 A 
HETATM   16  C8  UNL     1      19.764   0.911  50.167  1.00  0.00     0.000 A 
HETATM   17  C9  UNL     1      19.753   1.418  51.467  1.00  0.00     0.002 A 
HETATM   18  C10 UNL     1      20.774   2.225  51.928  1.00  0.00     0.029 A 
ENDBRANCH  11  13
ENDBRANCH   3  11
BRANCH   1  19
HETATM   19  O1  UNL     1      26.896   4.379  49.225  1.00  0.00    -0.324 OA
HETATM   20  C1  UNL     1      26.509   5.703  48.934  1.00  0.00     0.213 C 
ENDBRANCH   1  19
BRANCH   6  21
HETATM   21  O2  UNL     1      24.185  -0.758  54.145  1.00  0.00    -0.353 OA
HETATM   22  C14 UNL     1      22.778  -0.844  54.098  1.00  0.00     0.210 C 
ENDBRANCH   6  21
BRANCH   7  23
HETATM   23  O3  UNL     1      26.751  -1.356  53.524  1.00  0.00    -0.353 OA
HETATM   24  C16 UNL     1      27.361  -2.364  52.761  1.00  0.00     0.210 C 
ENDBRANCH   7  23
TORSDOF 5
ENDMDL
MODEL 5
REMARK VINA RESULT:      -6.9      2.494      5.451
REMARK  5 active torsions:
REMARK  status: ('A' for Active; 'I' for Inactive)
REMARK    1  A    between atoms: O1_2  and  C2_3 
REMARK    2  A    between atoms: C3_5  and  N2_6 
REMARK    3  A    between atoms: N2_6  and  C5_8 
REMARK    4  A    between atoms: C13_16  and  O2_17 
REMARK    5  A    between atoms: C15_19  and  O3_20 
ROOT
HETATM    1  C2  UNL     1      26.932   2.065  52.250  1.00  0.00     0.270 A 
HETATM    2  N1  UNL     1      26.318   2.807  51.328  1.00  0.00    -0.188 NA
HETATM    3  C3  UNL     1      25.030   2.676  50.984  1.00  0.00     0.147 A 
HETATM    4  C11 UNL     1      24.289   1.724  51.616  1.00  0.00     0.042 A 
HETATM    5  C12 UNL     1      22.961   1.573  51.278  1.00  0.00     0.057 A 
HETATM    6  C13 UNL     1      22.262   0.584  51.960  1.00  0.00     0.102 A 
HETATM    7  C15 UNL     1      22.821  -0.225  52.926  1.00  0.00     0.103 A 
HETATM    8  C17 UNL     1      24.153  -0.013  53.209  1.00  0.00     0.072 A 
HETATM    9  C18 UNL     1      24.913   0.949  52.575  1.00  0.00     0.078 A 
HETATM   10  N3  UNL     1      26.212   1.118  52.886  1.00  0.00    -0.206 NA
ENDROOT
BRANCH   3  11
HETATM   11  N2  UNL     1      24.530   3.549  49.979  1.00  0.00    -0.335 N 
HETATM   12  C4  UNL     1      23.671   3.104  48.873  1.00  0.00     0.158 C 
BRANCH  11  13
HETATM   13  C5  UNL     1      24.879   4.928  50.042  1.00  0.00     0.035 A 
HETATM   14  C6  UNL     1      24.279   5.803  50.894  1.00  0.00     0.029 A 
HETATM   15  C7  UNL     1      24.584   7.150  50.990  1.00  0.00     0.002 A 
HETATM   16  C8  UNL     1      25.564   7.668  50.175  1.00  0.00     0.000 A 
HETATM   17  C9  UNL     1      26.200   6.798  49.288  1.00  0.00     0.002 A 
HETATM   18  C10 UNL     1      25.860   5.462  49.230  1.00  0.00     0.029 A 
ENDBRANCH  11  13
ENDBRANCH   3  11
BRANCH   1  19
HETATM   19  O1  UNL     1      28.264   2.205  52.602  1.00  0.00    -0.324 OA
HETATM   20  C1  UNL     1      28.883   1.373  53.557  1.00  0.00     0.213 C 
ENDBRANCH   1  19
BRANCH   6  21
HETATM   21  O2  UNL     1      20.927   0.434  51.618  1.00  0.00    -0.353 OA
HETATM   22  C14 UNL     1      20.441   0.891  50.375  1.00  0.00     0.210 C 
ENDBRANCH   6  21
BRANCH   7  23
HETATM   23  O3  UNL     1      22.003  -1.164  53.519  1.00  0.00    -0.353 OA
HETATM   24  C16 UNL     1      21.506  -0.992  54.820  1.00  0.00     0.210 C 
ENDBRANCH   7  23
TORSDOF 5
ENDMDL
MODEL 6
REMARK VINA RESULT:      -6.8      2.741      5.148
REMARK  5 active torsions:
REMARK  status: ('A' for Active; 'I' for Inactive)
REMARK    1  A    between atoms: O1_2  and  C2_3 
REMARK    2  A    between atoms: C3_5  and  N2_6 
REMARK    3  A    between atoms: N2_6  and  C5_8 
REMARK    4  A    between atoms: C13_16  and  O2_17 
REMARK    5  A    between atoms: C15_19  and  O3_20 
ROOT
HETATM    1  C2  UNL     1      26.589   3.690  49.661  1.00  0.00     0.270 A 
HETATM    2  N1  UNL     1      25.296   3.716  49.335  1.00  0.00    -0.188 NA
HETATM    3  C3  UNL     1      24.331   3.079  50.011  1.00  0.00     0.147 A 
HETATM    4  C11 UNL     1      24.686   2.354  51.108  1.00  0.00     0.042 A 
HETATM    5  C12 UNL     1      23.708   1.690  51.819  1.00  0.00     0.057 A 
HETATM    6  C13 UNL     1      24.136   0.969  52.926  1.00  0.00     0.102 A 
HETATM    7  C15 UNL     1      25.451   0.890  53.331  1.00  0.00     0.103 A 
HETATM    8  C17 UNL     1      26.370   1.580  52.570  1.00  0.00     0.072 A 
HETATM    9  C18 UNL     1      26.022   2.318  51.457  1.00  0.00     0.078 A 
HETATM   10  N3  UNL     1      26.956   2.976  50.745  1.00  0.00    -0.206 NA
ENDROOT
BRANCH   3  11
HETATM   11  N2  UNL     1      23.000   3.211  49.529  1.00  0.00    -0.335 N 
HETATM   12  C4  UNL     1      22.253   2.113  48.898  1.00  0.00     0.158 C 
BRANCH  11  13
HETATM   13  C5  UNL     1      22.352   4.472  49.660  1.00  0.00     0.035 A 
HETATM   14  C6  UNL     1      22.230   5.118  50.851  1.00  0.00     0.029 A 
HETATM   15  C7  UNL     1      21.609   6.343  51.027  1.00  0.00     0.002 A 
HETATM   16  C8  UNL     1      21.066   6.975  49.932  1.00  0.00     0.000 A 
HETATM   17  C9  UNL     1      21.172   6.339  48.694  1.00  0.00     0.002 A 
HETATM   18  C10 UNL     1      21.802   5.117  48.570  1.00  0.00     0.029 A 
ENDBRANCH  11  13
ENDBRANCH   3  11
BRANCH   1  19
HETATM   19  O1  UNL     1      27.583   4.351  48.958  1.00  0.00    -0.324 OA
HETATM   20  C1  UNL     1      27.457   5.698  48.561  1.00  0.00     0.213 C 
ENDBRANCH   1  19
BRANCH   6  21
HETATM   21  O2  UNL     1      23.151   0.303  53.639  1.00  0.00    -0.353 OA
HETATM   22  C14 UNL     1      21.788   0.458  53.310  1.00  0.00     0.210 C 
ENDBRANCH   6  21
BRANCH   7  23
HETATM   23  O3  UNL     1      25.727   0.135  54.452  1.00  0.00    -0.353 OA
HETATM   24  C16 UNL     1      27.026   0.042  54.975  1.00  0.00     0.210 C 
ENDBRANCH   7  23
TORSDOF 5
ENDMDL
MODEL 7
REMARK VINA RESULT:      -6.7      2.804      5.259
REMARK  5 active torsions:
REMARK  status: ('A' for Active; 'I' for Inactive)
REMARK    1  A    between atoms: O1_2  and  C2_3 
REMARK    2  A    between atoms: C3_5  and  N2_6 
REMARK    3  A    between atoms: N2_6  and  C5_8 
REMARK    4  A    between atoms: C13_16  and  O2_17 
REMARK    5  A    between atoms: C15_19  and  O3_20 
ROOT
HETATM    1  C2  UNL     1      26.826   4.077  49.548  1.00  0.00     0.270 A 
HETATM    2  N1  UNL     1      25.595   4.549  49.354  1.00  0.00    -0.188 NA
HETATM    3  C3  UNL     1      24.487   4.026  49.895  1.00  0.00     0.147 A 
HETATM    4  C11 UNL     1      24.620   2.937  50.703  1.00  0.00     0.042 A 
HETATM    5  C12 UNL     1      23.493   2.382  51.272  1.00  0.00     0.057 A 
HETATM    6  C13 UNL     1      23.697   1.273  52.084  1.00  0.00     0.102 A 
HETATM    7  C15 UNL     1      24.936   0.723  52.337  1.00  0.00     0.103 A 
HETATM    8  C17 UNL     1      26.013   1.334  51.733  1.00  0.00     0.072 A 
HETATM    9  C18 UNL     1      25.891   2.437  50.914  1.00  0.00     0.078 A 
HETATM   10  N3  UNL     1      26.974   2.999  50.345  1.00  0.00    -0.206 NA
ENDROOT
BRANCH   3  11
HETATM   11  N2  UNL     1      23.249   4.652  49.585  1.00  0.00    -0.335 N 
HETATM   12  C4  UNL     1      22.485   5.459  50.548  1.00  0.00     0.158 C 
BRANCH  11  13
HETATM   13  C5  UNL     1      22.716   4.491  48.275  1.00  0.00     0.035 A 
HETATM   14  C6  UNL     1      22.356   3.281  47.768  1.00  0.00     0.029 A 
HETATM   15  C7  UNL     1      21.835   3.077  46.502  1.00  0.00     0.002 A 
HETATM   16  C8  UNL     1      21.657   4.161  45.674  1.00  0.00     0.000 A 
HETATM   17  C9  UNL     1      22.018   5.418  46.162  1.00  0.00     0.002 A 
HETATM   18  C10 UNL     1      22.533   5.570  47.434  1.00  0.00     0.029 A 
ENDBRANCH  11  13
ENDBRANCH   3  11
BRANCH   1  19
HETATM   19  O1  UNL     1      27.968   4.623  48.985  1.00  0.00    -0.324 OA
HETATM   20  C1  UNL     1      27.967   5.881  48.348  1.00  0.00     0.213 C 
ENDBRANCH   1  19
BRANCH   6  21
HETATM   21  O2  UNL     1      22.562   0.717  52.655  1.00  0.00    -0.353 OA
HETATM   22  C14 UNL     1      21.384   1.476  52.812  1.00  0.00     0.210 C 
ENDBRANCH   6  21
BRANCH   7  23
HETATM   23  O3  UNL     1      24.984  -0.379  53.165  1.00  0.00    -0.353 OA
HETATM   24  C16 UNL     1      25.585  -0.321  54.432  1.00  0.00     0.210 C 
ENDBRANCH   7  23
TORSDOF 5
ENDMDL
MODEL 8
REMARK VINA RESULT:      -6.7      2.355      5.723
REMARK  5 active torsions:
REMARK  status: ('A' for Active; 'I' for Inactive)
REMARK    1  A    between atoms: O1_2  and  C2_3 
REMARK    2  A    between atoms: C3_5  and  N2_6 
REMARK    3  A    between atoms: N2_6  and  C5_8 
REMARK    4  A    between atoms: C13_16  and  O2_17 
REMARK    5  A    between atoms: C15_19  and  O3_20 
ROOT
HETATM    1  C2  UNL     1      22.724   0.185  53.761  1.00  0.00     0.270 A 
HETATM    2  N1  UNL     1      23.987  -0.162  53.509  1.00  0.00    -0.188 NA
HETATM    3  C3  UNL     1      24.788   0.466  52.639  1.00  0.00     0.147 A 
HETATM    4  C11 UNL     1      24.286   1.535  51.961  1.00  0.00     0.042 A 
HETATM    5  C12 UNL     1      25.093   2.198  51.060  1.00  0.00     0.057 A 
HETATM    6  C13 UNL     1      24.520   3.279  50.401  1.00  0.00     0.102 A 
HETATM    7  C15 UNL     1      23.225   3.704  50.603  1.00  0.00     0.103 A 
HETATM    8  C17 UNL     1      22.481   2.991  51.519  1.00  0.00     0.072 A 
HETATM    9  C18 UNL     1      22.979   1.907  52.212  1.00  0.00     0.078 A 
HETATM   10  N3  UNL     1      22.213   1.243  53.097  1.00  0.00    -0.206 NA
ENDROOT
BRANCH   3  11
HETATM   11  N2  UNL     1      26.110  -0.034  52.489  1.00  0.00    -0.335 N 
HETATM   12  C4  UNL     1      26.452  -1.177  51.631  1.00  0.00     0.158 C 
BRANCH  11  13
HETATM   13  C5  UNL     1      27.162   0.602  53.207  1.00  0.00     0.035 A 
HETATM   14  C6  UNL     1      27.648   1.828  52.873  1.00  0.00     0.029 A 
HETATM   15  C7  UNL     1      28.668   2.484  53.540  1.00  0.00     0.002 A 
HETATM   16  C8  UNL     1      29.250   1.874  54.627  1.00  0.00     0.000 A 
HETATM   17  C9  UNL     1      28.776   0.615  54.998  1.00  0.00     0.002 A 
HETATM   18  C10 UNL     1      27.755   0.001  54.299  1.00  0.00     0.029 A 
ENDBRANCH  11  13
ENDBRANCH   3  11
BRANCH   1  19
HETATM   19  O1  UNL     1      21.901  -0.468  54.663  1.00  0.00    -0.324 OA
HETATM   20  C1  UNL     1      21.442  -1.784  54.448  1.00  0.00     0.213 C 
ENDBRANCH   1  19
BRANCH   6  21
HETATM   21  O2  UNL     1      25.334   3.943  49.496  1.00  0.00    -0.353 OA
HETATM   22  C14 UNL     1      26.719   3.681  49.439  1.00  0.00     0.210 C 
ENDBRANCH   6  21
BRANCH   7  23
HETATM   23  O3  UNL     1      22.793   4.794  49.877  1.00  0.00    -0.353 OA
HETATM   24  C16 UNL     1      21.617   5.483  50.211  1.00  0.00     0.210 C 
ENDBRANCH   7  23
TORSDOF 5
ENDMDL
MODEL 9
REMARK VINA RESULT:      -6.6      2.191      5.918
REMARK  5 active torsions:
REMARK  status: ('A' for Active; 'I' for Inactive)
REMARK    1  A    between atoms: O1_2  and  C2_3 
REMARK    2  A    between atoms: C3_5  and  N2_6 
REMARK    3  A    between atoms: N2_6  and  C5_8 
REMARK    4  A    between atoms: C13_16  and  O2_17 
REMARK    5  A    between atoms: C15_19  and  O3_20 
ROOT
HETATM    1  C2  UNL     1      23.881   0.031  53.048  1.00  0.00     0.270 A 
HETATM    2  N1  UNL     1      23.704   0.812  51.983  1.00  0.00    -0.188 NA
HETATM    3  C3  UNL     1      22.513   1.090  51.435  1.00  0.00     0.147 A 
HETATM    4  C11 UNL     1      21.403   0.541  52.002  1.00  0.00     0.042 A 
HETATM    5  C12 UNL     1      20.166   0.815  51.455  1.00  0.00     0.057 A 
HETATM    6  C13 UNL     1      19.074   0.225  52.080  1.00  0.00     0.102 A 
HETATM    7  C15 UNL     1      19.170  -0.594  53.184  1.00  0.00     0.103 A 
HETATM    8  C17 UNL     1      20.439  -0.819  53.673  1.00  0.00     0.072 A 
HETATM    9  C18 UNL     1      21.572  -0.270  53.108  1.00  0.00     0.078 A 
HETATM   10  N3  UNL     1      22.791  -0.519  53.621  1.00  0.00    -0.206 NA
ENDROOT
BRANCH   3  11
HETATM   11  N2  UNL     1      22.500   1.943  50.298  1.00  0.00    -0.335 N 
HETATM   12  C4  UNL     1      21.970   1.539  48.988  1.00  0.00     0.158 C 
BRANCH  11  13
HETATM   13  C5  UNL     1      23.028   3.258  50.430  1.00  0.00     0.035 A 
HETATM   14  C6  UNL     1      22.546   4.160  51.327  1.00  0.00     0.029 A 
HETATM   15  C7  UNL     1      23.027   5.448  51.490  1.00  0.00     0.002 A 
HETATM   16  C8  UNL     1      24.069   5.874  50.699  1.00  0.00     0.000 A 
HETATM   17  C9  UNL     1      24.586   4.973  49.766  1.00  0.00     0.002 A 
HETATM   18  C10 UNL     1      24.073   3.698  49.642  1.00  0.00     0.029 A 
ENDBRANCH  11  13
ENDBRANCH   3  11
BRANCH   1  19
HETATM   19  O1  UNL     1      25.116  -0.253  53.610  1.00  0.00    -0.324 OA
HETATM   20  C1  UNL     1      25.252  -0.725  54.932  1.00  0.00     0.213 C 
ENDBRANCH   1  19
BRANCH   6  21
HETATM   21  O2  UNL     1      17.833   0.501  51.528  1.00  0.00    -0.353 OA
HETATM   22  C14 UNL     1      17.505   0.065  50.227  1.00  0.00     0.210 C 
ENDBRANCH   6  21
BRANCH   7  23
HETATM   23  O3  UNL     1      17.998  -1.109  53.698  1.00  0.00    -0.353 OA
HETATM   24  C16 UNL     1      17.692  -2.476  53.606  1.00  0.00     0.210 C 
ENDBRANCH   7  23
TORSDOF 5
ENDMDL
