MODEL 1
REMARK VINA RESULT:      -8.6      0.000      0.000
REMARK  2 active torsions:
REMARK  status: ('A' for Active; 'I' for Inactive)
REMARK    1  A    between atoms: C16_21  and  C17_22 
REMARK    2  A    between atoms: C17_22  and  C18_23 
ROOT
HETATM    1  C1  UNL     1      22.005   4.380  52.362  1.00  0.00     0.045 A 
HETATM    2  C2  UNL     1      22.364   4.059  51.157  1.00  0.00    -0.065 A 
HETATM    3  C3  UNL     1      23.250   3.688  52.214  1.00  0.00     0.076 A 
HETATM    4  C4  UNL     1      24.484   2.991  52.307  1.00  0.00     0.027 C 
HETATM    5 BR1  UNL     1      24.369   2.850  50.366  1.00  0.00    -0.093 Br
HETATM    6  C5  UNL     1      25.820   2.266  52.264  1.00  0.00     0.298 A 
HETATM    7  C6  UNL     1      26.796   1.900  51.613  1.00  0.00     0.279 A 
HETATM    8  N1  UNL     1      27.080   1.363  52.866  1.00  0.00     0.011 N 
HETATM    9  C7  UNL     1      27.284   1.191  54.257  1.00  0.00     0.261 C 
HETATM   10  C8  UNL     1      26.310   0.216  54.877  1.00  0.00     0.039 C 
HETATM   11  C9  UNL     1      25.643  -0.736  53.975  1.00  0.00     0.026 C 
HETATM   12  C10 UNL     1      24.165  -0.653  54.068  1.00  0.00     0.014 C 
HETATM   13  C11 UNL     1      22.828  -0.523  53.867  1.00  0.00     0.141 C 
HETATM   14  C12 UNL     1      21.672  -0.635  54.841  1.00  0.00     0.079 C 
HETATM   15  N2  UNL     1      22.389  -0.259  52.533  1.00  0.00     0.116 N 
HETATM   16  C13 UNL     1      21.701   0.725  51.796  1.00  0.00     0.380 A 
HETATM   17  O1  UNL     1      21.808   1.010  53.047  1.00  0.00    -0.143 OA
HETATM   18  C14 UNL     1      21.059   1.508  50.719  1.00  0.00     0.249 C 
HETATM   19  O2  UNL     1      20.548   2.688  51.273  1.00  0.00    -0.381 OA
HETATM   20  C15 UNL     1      20.419   3.690  50.274  1.00  0.00     0.206 C 
HETATM   21  C16 UNL     1      21.889   3.882  49.816  1.00  0.00    -0.033 C 
HETATM   22  C19 UNL     1      26.048  -0.624  52.531  1.00  0.00     0.126 C 
HETATM   23  N3  UNL     1      27.325   0.031  52.489  1.00  0.00    -0.150 NA
HETATM   24  H15 UNL     1      22.741  -1.124  52.031  1.00  0.00     0.329 HD
HETATM   25  H25 UNL     1      27.940  -0.149  51.718  1.00  0.00     0.153 HD
ENDROOT
BRANCH  21  26
HETATM   26  C17 UNL     1      22.099   3.647  48.560  1.00  0.00     0.013 C 
BRANCH  26  27
HETATM   27  C18 UNL     1      22.079   2.982  47.259  1.00  0.00     0.250 C 
HETATM   28  F1  UNL     1      22.739   1.756  47.238  1.00  0.00    -0.251 F 
ENDBRANCH  26  27
ENDBRANCH  21  26
TORSDOF 2
ENDMDL
MODEL 2
REMARK VINA RESULT:      -8.1      3.944      6.342
REMARK  2 active torsions:
REMARK  status: ('A' for Active; 'I' for Inactive)
REMARK    1  A    between atoms: C16_21  and  C17_22 
REMARK    2  A    between atoms: C17_22  and  C18_23 
ROOT
HETATM    1  C1  UNL     1      22.036   2.585  49.051  1.00  0.00     0.045 A 
HETATM    2  C2  UNL     1      22.871   2.277  49.994  1.00  0.00    -0.065 A 
HETATM    3  C3  UNL     1      23.249   3.344  49.124  1.00  0.00     0.076 A 
HETATM    4  C4  UNL     1      24.352   4.233  49.028  1.00  0.00     0.027 C 
HETATM    5 BR1  UNL     1      25.056   3.276  50.573  1.00  0.00    -0.093 Br
HETATM    6  C5  UNL     1      25.604   5.096  49.011  1.00  0.00     0.298 A 
HETATM    7  C6  UNL     1      26.772   5.259  49.358  1.00  0.00     0.279 A 
HETATM    8  N1  UNL     1      26.525   6.433  48.652  1.00  0.00     0.011 N 
HETATM    9  C7  UNL     1      26.138   7.368  47.662  1.00  0.00     0.261 C 
HETATM   10  C8  UNL     1      25.021   8.279  48.118  1.00  0.00     0.039 C 
HETATM   11  C9  UNL     1      24.815   8.418  49.568  1.00  0.00     0.026 C 
HETATM   12  C10 UNL     1      23.431   8.073  49.972  1.00  0.00     0.014 C 
HETATM   13  C11 UNL     1      22.294   7.564  50.514  1.00  0.00     0.141 C 
HETATM   14  C12 UNL     1      20.841   7.923  50.272  1.00  0.00     0.079 C 
HETATM   15  N2  UNL     1      22.441   6.532  51.492  1.00  0.00     0.116 N 
HETATM   16  C13 UNL     1      22.095   5.183  51.701  1.00  0.00     0.380 A 
HETATM   17  O1  UNL     1      21.665   5.650  50.581  1.00  0.00    -0.143 OA
HETATM   18  C14 UNL     1      21.936   3.823  52.260  1.00  0.00     0.249 C 
HETATM   19  O2  UNL     1      21.210   3.050  51.348  1.00  0.00    -0.381 OA
HETATM   20  C15 UNL     1      21.479   1.669  51.541  1.00  0.00     0.206 C 
HETATM   21  C16 UNL     1      23.001   1.592  51.248  1.00  0.00    -0.033 C 
HETATM   22  C19 UNL     1      25.780   7.638  50.418  1.00  0.00     0.126 C 
HETATM   23  N3  UNL     1      26.941   7.367  49.618  1.00  0.00    -0.150 NA
HETATM   24  H15 UNL     1      22.993   7.042  52.240  1.00  0.00     0.329 HD
HETATM   25  H25 UNL     1      27.825   7.234  50.072  1.00  0.00     0.153 HD
ENDROOT
BRANCH  21  26
HETATM   26  C17 UNL     1      23.719   1.152  52.231  1.00  0.00     0.013 C 
BRANCH  26  27
HETATM   27  C18 UNL     1      24.671   0.344  52.990  1.00  0.00     0.250 C 
HETATM   28  F1  UNL     1      25.753  -0.112  52.240  1.00  0.00    -0.251 F 
ENDBRANCH  26  27
ENDBRANCH  21  26
TORSDOF 2
ENDMDL
MODEL 3
REMARK VINA RESULT:      -8.0      3.440      5.880
REMARK  2 active torsions:
REMARK  status: ('A' for Active; 'I' for Inactive)
REMARK    1  A    between atoms: C16_21  and  C17_22 
REMARK    2  A    between atoms: C17_22  and  C18_23 
ROOT
HETATM    1  C1  UNL     1      21.169   0.949  49.235  1.00  0.00     0.045 A 
HETATM    2  C2  UNL     1      21.690   0.791  50.412  1.00  0.00    -0.065 A 
HETATM    3  C3  UNL     1      22.279   1.788  49.577  1.00  0.00     0.076 A 
HETATM    4  C4  UNL     1      23.331   2.732  49.709  1.00  0.00     0.027 C 
HETATM    5 BR1  UNL     1      23.566   1.982  51.493  1.00  0.00    -0.093 Br
HETATM    6  C5  UNL     1      24.503   3.667  49.965  1.00  0.00     0.298 A 
HETATM    7  C6  UNL     1      25.506   3.939  50.621  1.00  0.00     0.279 A 
HETATM    8  N1  UNL     1      25.447   5.018  49.744  1.00  0.00     0.011 N 
HETATM    9  C7  UNL     1      25.348   5.822  48.582  1.00  0.00     0.261 C 
HETATM   10  C8  UNL     1      24.117   6.701  48.580  1.00  0.00     0.039 C 
HETATM   11  C9  UNL     1      23.480   6.971  49.878  1.00  0.00     0.026 C 
HETATM   12  C10 UNL     1      22.049   6.580  49.890  1.00  0.00     0.014 C 
HETATM   13  C11 UNL     1      20.819   6.056  50.126  1.00  0.00     0.141 C 
HETATM   14  C12 UNL     1      19.496   6.295  49.425  1.00  0.00     0.079 C 
HETATM   15  N2  UNL     1      20.696   5.139  51.216  1.00  0.00     0.116 N 
HETATM   16  C13 UNL     1      20.345   3.798  51.467  1.00  0.00     0.380 A 
HETATM   17  O1  UNL     1      20.259   4.122  50.224  1.00  0.00    -0.143 OA
HETATM   18  C14 UNL     1      20.068   2.494  52.106  1.00  0.00     0.249 C 
HETATM   19  O2  UNL     1      19.675   1.589  51.115  1.00  0.00    -0.381 OA
HETATM   20  C15 UNL     1      19.916   0.254  51.537  1.00  0.00     0.206 C 
HETATM   21  C16 UNL     1      21.457   0.245  51.718  1.00  0.00    -0.033 C 
HETATM   22  C19 UNL     1      24.167   6.344  51.059  1.00  0.00     0.126 C 
HETATM   23  N3  UNL     1      25.523   6.069  50.675  1.00  0.00    -0.150 NA
HETATM   24  H15 UNL     1      20.981   5.756  52.029  1.00  0.00     0.329 HD
HETATM   25  H25 UNL     1      26.233   6.039  51.383  1.00  0.00     0.153 HD
ENDROOT
BRANCH  21  26
HETATM   26  C17 UNL     1      21.859  -0.047  52.914  1.00  0.00     0.013 C 
BRANCH  26  27
HETATM   27  C18 UNL     1      21.857  -0.227  54.364  1.00  0.00     0.250 C 
HETATM   28  F1  UNL     1      20.793   0.395  55.012  1.00  0.00    -0.251 F 
ENDBRANCH  26  27
ENDBRANCH  21  26
TORSDOF 2
ENDMDL
MODEL 4
REMARK VINA RESULT:      -7.8      7.605      9.537
REMARK  2 active torsions:
REMARK  status: ('A' for Active; 'I' for Inactive)
REMARK    1  A    between atoms: C16_21  and  C17_22 
REMARK    2  A    between atoms: C17_22  and  C18_23 
ROOT
HETATM    1  C1  UNL     1      26.318   8.676  46.618  1.00  0.00     0.045 A 
HETATM    2  C2  UNL     1      26.074   7.748  47.490  1.00  0.00    -0.065 A 
HETATM    3  C3  UNL     1      27.403   7.811  46.973  1.00  0.00     0.076 A 
HETATM    4  C4  UNL     1      28.614   7.103  47.194  1.00  0.00     0.027 C 
HETATM    5 BR1  UNL     1      27.576   6.041  48.457  1.00  0.00    -0.093 Br
HETATM    6  C5  UNL     1      29.830   6.241  47.494  1.00  0.00     0.298 A 
HETATM    7  C6  UNL     1      30.291   5.195  47.945  1.00  0.00     0.279 A 
HETATM    8  N1  UNL     1      31.450   5.873  47.575  1.00  0.00     0.011 N 
HETATM    9  C7  UNL     1      32.425   6.608  46.858  1.00  0.00     0.261 C 
HETATM   10  C8  UNL     1      32.717   7.957  47.476  1.00  0.00     0.039 C 
HETATM   11  C9  UNL     1      32.364   8.139  48.893  1.00  0.00     0.026 C 
HETATM   12  C10 UNL     1      31.454   9.292  49.098  1.00  0.00     0.014 C 
HETATM   13  C11 UNL     1      30.446  10.149  49.406  1.00  0.00     0.141 C 
HETATM   14  C12 UNL     1      30.322  11.643  49.182  1.00  0.00     0.079 C 
HETATM   15  N2  UNL     1      29.304   9.604  50.070  1.00  0.00     0.116 N 
HETATM   16  C13 UNL     1      27.919   9.438  49.879  1.00  0.00     0.380 A 
HETATM   17  O1  UNL     1      28.496  10.052  48.905  1.00  0.00    -0.143 OA
HETATM   18  C14 UNL     1      26.492   9.080  50.031  1.00  0.00     0.249 C 
HETATM   19  O2  UNL     1      25.801   9.519  48.897  1.00  0.00    -0.381 OA
HETATM   20  C15 UNL     1      24.608   8.768  48.720  1.00  0.00     0.206 C 
HETATM   21  C16 UNL     1      25.158   7.332  48.513  1.00  0.00    -0.033 C 
HETATM   22  C19 UNL     1      31.770   6.926  49.554  1.00  0.00     0.126 C 
HETATM   23  N3  UNL     1      32.161   5.778  48.785  1.00  0.00    -0.150 NA
HETATM   24  H15 UNL     1      29.746   9.240  50.962  1.00  0.00     0.329 HD
HETATM   25  H25 UNL     1      32.228   4.886  49.239  1.00  0.00     0.153 HD
ENDROOT
BRANCH  21  26
HETATM   26  C17 UNL     1      24.744   6.464  49.380  1.00  0.00     0.013 C 
BRANCH  26  27
HETATM   27  C18 UNL     1      24.426   5.840  50.663  1.00  0.00     0.250 C 
HETATM   28  F1  UNL     1      24.249   6.745  51.706  1.00  0.00    -0.251 F 
ENDBRANCH  26  27
ENDBRANCH  21  26
TORSDOF 2
ENDMDL
MODEL 5
REMARK VINA RESULT:      -7.4      8.483     10.389
REMARK  2 active torsions:
REMARK  status: ('A' for Active; 'I' for Inactive)
REMARK    1  A    between atoms: C16_21  and  C17_22 
REMARK    2  A    between atoms: C17_22  and  C18_23 
ROOT
HETATM    1  C1  UNL     1      25.987   8.474  46.735  1.00  0.00     0.045 A 
HETATM    2  C2  UNL     1      26.344   7.462  47.463  1.00  0.00    -0.065 A 
HETATM    3  C3  UNL     1      27.376   8.125  46.733  1.00  0.00     0.076 A 
HETATM    4  C4  UNL     1      28.783   7.981  46.607  1.00  0.00     0.027 C 
HETATM    5 BR1  UNL     1      28.581   6.480  47.833  1.00  0.00    -0.093 Br
HETATM    6  C5  UNL     1      30.275   7.696  46.528  1.00  0.00     0.298 A 
HETATM    7  C6  UNL     1      31.205   6.911  46.701  1.00  0.00     0.279 A 
HETATM    8  N1  UNL     1      31.877   8.044  46.251  1.00  0.00     0.011 N 
HETATM    9  C7  UNL     1      32.282   9.179  45.508  1.00  0.00     0.261 C 
HETATM   10  C8  UNL     1      32.153  10.468  46.287  1.00  0.00     0.039 C 
HETATM   11  C9  UNL     1      32.102  10.367  47.754  1.00  0.00     0.026 C 
HETATM   12  C10 UNL     1      30.887  11.004  48.316  1.00  0.00     0.014 C 
HETATM   13  C11 UNL     1      29.726  11.324  48.945  1.00  0.00     0.141 C 
HETATM   14  C12 UNL     1      28.971  12.637  49.009  1.00  0.00     0.079 C 
HETATM   15  N2  UNL     1      29.085  10.294  49.699  1.00  0.00     0.116 N 
HETATM   16  C13 UNL     1      27.876   9.572  49.735  1.00  0.00     0.380 A 
HETATM   17  O1  UNL     1      27.916  10.450  48.795  1.00  0.00    -0.143 OA
HETATM   18  C14 UNL     1      26.788   8.631  50.078  1.00  0.00     0.249 C 
HETATM   19  O2  UNL     1      25.732   8.828  49.181  1.00  0.00    -0.381 OA
HETATM   20  C15 UNL     1      24.929   7.659  49.094  1.00  0.00     0.206 C 
HETATM   21  C16 UNL     1      25.937   6.614  48.546  1.00  0.00    -0.033 C 
HETATM   22  C19 UNL     1      32.212   8.966  48.292  1.00  0.00     0.126 C 
HETATM   23  N3  UNL     1      32.831   8.161  47.277  1.00  0.00    -0.150 NA
HETATM   24  H15 UNL     1      29.831  10.080  50.421  1.00  0.00     0.329 HD
HETATM   25  H25 UNL     1      33.351   7.347  47.551  1.00  0.00     0.153 HD
ENDROOT
BRANCH  21  26
HETATM   26  C17 UNL     1      26.118   5.585  49.311  1.00  0.00     0.013 C 
BRANCH  26  27
HETATM   27  C18 UNL     1      26.187   4.196  49.761  1.00  0.00     0.250 C 
HETATM   28  F1  UNL     1      27.080   3.409  49.037  1.00  0.00    -0.251 F 
ENDBRANCH  26  27
ENDBRANCH  21  26
TORSDOF 2
ENDMDL
MODEL 6
REMARK VINA RESULT:      -7.3      3.703      6.195
REMARK  2 active torsions:
REMARK  status: ('A' for Active; 'I' for Inactive)
REMARK    1  A    between atoms: C16_21  and  C17_22 
REMARK    2  A    between atoms: C17_22  and  C18_23 
ROOT
HETATM    1  C1  UNL     1      21.166   2.667  47.997  1.00  0.00     0.045 A 
HETATM    2  C2  UNL     1      21.744   2.155  49.039  1.00  0.00    -0.065 A 
HETATM    3  C3  UNL     1      22.383   3.281  48.436  1.00  0.00     0.076 A 
HETATM    4  C4  UNL     1      23.541   4.056  48.707  1.00  0.00     0.027 C 
HETATM    5 BR1  UNL     1      23.811   2.841  50.207  1.00  0.00    -0.093 Br
HETATM    6  C5  UNL     1      24.825   4.780  49.082  1.00  0.00     0.298 A 
HETATM    7  C6  UNL     1      25.894   4.776  49.689  1.00  0.00     0.279 A 
HETATM    8  N1  UNL     1      25.897   6.050  49.128  1.00  0.00     0.011 N 
HETATM    9  C7  UNL     1      25.811   7.140  48.227  1.00  0.00     0.261 C 
HETATM   10  C8  UNL     1      24.689   8.095  48.567  1.00  0.00     0.039 C 
HETATM   11  C9  UNL     1      24.175   8.067  49.945  1.00  0.00     0.026 C 
HETATM   12  C10 UNL     1      22.714   7.818  49.992  1.00  0.00     0.014 C 
HETATM   13  C11 UNL     1      21.451   7.363  50.200  1.00  0.00     0.141 C 
HETATM   14  C12 UNL     1      20.119   7.898  49.713  1.00  0.00     0.079 C 
HETATM   15  N2  UNL     1      21.300   6.205  51.024  1.00  0.00     0.116 N 
HETATM   16  C13 UNL     1      20.819   4.883  50.954  1.00  0.00     0.380 A 
HETATM   17  O1  UNL     1      20.686   5.531  49.850  1.00  0.00    -0.143 OA
HETATM   18  C14 UNL     1      20.441   3.486  51.259  1.00  0.00     0.249 C 
HETATM   19  O2  UNL     1      19.883   2.916  50.110  1.00  0.00    -0.381 OA
HETATM   20  C15 UNL     1      20.001   1.501  50.150  1.00  0.00     0.206 C 
HETATM   21  C16 UNL     1      21.540   1.305  50.176  1.00  0.00    -0.033 C 
HETATM   22  C19 UNL     1      24.866   7.089  50.855  1.00  0.00     0.126 C 
HETATM   23  N3  UNL     1      26.153   6.805  50.287  1.00  0.00    -0.150 NA
HETATM   24  H15 UNL     1      21.706   6.555  51.938  1.00  0.00     0.329 HD
HETATM   25  H25 UNL     1      26.902   6.524  50.893  1.00  0.00     0.153 HD
ENDROOT
BRANCH  21  26
HETATM   26  C17 UNL     1      21.987   0.671  51.213  1.00  0.00     0.013 C 
BRANCH  26  27
HETATM   27  C18 UNL     1      22.024   0.017  52.519  1.00  0.00     0.250 C 
HETATM   28  F1  UNL     1      20.868   0.193  53.275  1.00  0.00    -0.251 F 
ENDBRANCH  26  27
ENDBRANCH  21  26
TORSDOF 2
ENDMDL
MODEL 7
REMARK VINA RESULT:      -7.1      2.794      4.709
REMARK  2 active torsions:
REMARK  status: ('A' for Active; 'I' for Inactive)
REMARK    1  A    between atoms: C16_21  and  C17_22 
REMARK    2  A    between atoms: C17_22  and  C18_23 
ROOT
HETATM    1  C1  UNL     1      23.139   6.129  51.319  1.00  0.00     0.045 A 
HETATM    2  C2  UNL     1      24.142   5.440  50.870  1.00  0.00    -0.065 A 
HETATM    3  C3  UNL     1      23.233   4.763  51.738  1.00  0.00     0.076 A 
HETATM    4  C4  UNL     1      23.110   3.444  52.250  1.00  0.00     0.027 C 
HETATM    5 BR1  UNL     1      24.744   3.074  51.253  1.00  0.00    -0.093 Br
HETATM    6  C5  UNL     1      23.115   2.011  52.759  1.00  0.00     0.298 A 
HETATM    7  C6  UNL     1      23.736   0.969  52.957  1.00  0.00     0.279 A 
HETATM    8  N1  UNL     1      22.461   0.620  53.392  1.00  0.00     0.011 N 
HETATM    9  C7  UNL     1      21.200   0.608  54.037  1.00  0.00     0.261 C 
HETATM   10  C8  UNL     1      20.043   0.692  53.067  1.00  0.00     0.039 C 
HETATM   11  C9  UNL     1      20.306   0.310  51.671  1.00  0.00     0.026 C 
HETATM   12  C10 UNL     1      19.958   1.393  50.720  1.00  0.00     0.014 C 
HETATM   13  C11 UNL     1      19.917   2.361  49.768  1.00  0.00     0.141 C 
HETATM   14  C12 UNL     1      18.773   3.245  49.311  1.00  0.00     0.079 C 
HETATM   15  N2  UNL     1      21.118   2.608  49.034  1.00  0.00     0.116 N 
HETATM   16  C13 UNL     1      22.043   3.642  48.791  1.00  0.00     0.380 A 
HETATM   17  O1  UNL     1      21.078   3.996  49.566  1.00  0.00    -0.143 OA
HETATM   18  C14 UNL     1      23.193   4.443  48.320  1.00  0.00     0.249 C 
HETATM   19  O2  UNL     1      23.095   5.727  48.868  1.00  0.00    -0.381 OA
HETATM   20  C15 UNL     1      24.373   6.347  48.914  1.00  0.00     0.206 C 
HETATM   21  C16 UNL     1      25.158   5.398  49.858  1.00  0.00    -0.033 C 
HETATM   22  C19 UNL     1      21.713  -0.146  51.397  1.00  0.00     0.126 C 
HETATM   23  N3  UNL     1      22.284  -0.560  52.647  1.00  0.00    -0.150 NA
HETATM   24  H15 UNL     1      21.271   1.666  48.575  1.00  0.00     0.329 HD
HETATM   25  H25 UNL     1      23.017  -1.246  52.645  1.00  0.00     0.153 HD
ENDROOT
BRANCH  21  26
HETATM   26  C17 UNL     1      26.213   4.863  49.332  1.00  0.00     0.013 C 
BRANCH  26  27
HETATM   27  C18 UNL     1      27.530   4.732  48.712  1.00  0.00     0.250 C 
HETATM   28  F1  UNL     1      27.943   5.864  48.013  1.00  0.00    -0.251 F 
ENDBRANCH  26  27
ENDBRANCH  21  26
TORSDOF 2
ENDMDL
MODEL 8
REMARK VINA RESULT:      -6.5      3.582      5.707
REMARK  2 active torsions:
REMARK  status: ('A' for Active; 'I' for Inactive)
REMARK    1  A    between atoms: C16_21  and  C17_22 
REMARK    2  A    between atoms: C17_22  and  C18_23 
ROOT
HETATM    1  C1  UNL     1      21.144   7.572  50.455  1.00  0.00     0.045 A 
HETATM    2  C2  UNL     1      22.422   7.395  50.586  1.00  0.00    -0.065 A 
HETATM    3  C3  UNL     1      21.578   6.316  50.989  1.00  0.00     0.076 A 
HETATM    4  C4  UNL     1      21.779   5.006  51.500  1.00  0.00     0.027 C 
HETATM    5 BR1  UNL     1      23.678   5.434  51.411  1.00  0.00    -0.093 Br
HETATM    6  C5  UNL     1      22.128   3.644  52.078  1.00  0.00     0.298 A 
HETATM    7  C6  UNL     1      22.951   2.918  52.632  1.00  0.00     0.279 A 
HETATM    8  N1  UNL     1      21.882   2.044  52.455  1.00  0.00     0.011 N 
HETATM    9  C7  UNL     1      20.593   1.458  52.440  1.00  0.00     0.261 C 
HETATM   10  C8  UNL     1      20.085   1.190  51.041  1.00  0.00     0.039 C 
HETATM   11  C9  UNL     1      21.086   1.109  49.966  1.00  0.00     0.026 C 
HETATM   12  C10 UNL     1      20.807   2.069  48.870  1.00  0.00     0.014 C 
HETATM   13  C11 UNL     1      20.820   3.046  47.927  1.00  0.00     0.141 C 
HETATM   14  C12 UNL     1      19.765   3.452  46.916  1.00  0.00     0.079 C 
HETATM   15  N2  UNL     1      22.007   3.833  47.815  1.00  0.00     0.116 N 
HETATM   16  C13 UNL     1      22.434   5.170  47.938  1.00  0.00     0.380 A 
HETATM   17  O1  UNL     1      21.172   5.019  48.143  1.00  0.00    -0.143 OA
HETATM   18  C14 UNL     1      23.238   6.410  47.985  1.00  0.00     0.249 C 
HETATM   19  O2  UNL     1      22.392   7.476  48.309  1.00  0.00    -0.381 OA
HETATM   20  C15 UNL     1      23.133   8.541  48.888  1.00  0.00     0.206 C 
HETATM   21  C16 UNL     1      23.706   7.877  50.168  1.00  0.00    -0.033 C 
HETATM   22  C19 UNL     1      22.510   1.284  50.417  1.00  0.00     0.126 C 
HETATM   23  N3  UNL     1      22.558   0.987  51.821  1.00  0.00    -0.150 NA
HETATM   24  H15 UNL     1      22.719   3.089  47.564  1.00  0.00     0.329 HD
HETATM   25  H25 UNL     1      23.417   0.652  52.219  1.00  0.00     0.153 HD
ENDROOT
BRANCH  21  26
HETATM   26  C17 UNL     1      24.999   7.870  50.240  1.00  0.00     0.013 C 
BRANCH  26  27
HETATM   27  C18 UNL     1      26.402   7.783  49.841  1.00  0.00     0.250 C 
HETATM   28  F1  UNL     1      26.623   7.007  48.706  1.00  0.00    -0.251 F 
ENDBRANCH  26  27
ENDBRANCH  21  26
TORSDOF 2
ENDMDL
MODEL 9
REMARK VINA RESULT:      -6.2     10.240     11.600
REMARK  2 active torsions:
REMARK  status: ('A' for Active; 'I' for Inactive)
REMARK    1  A    between atoms: C16_21  and  C17_22 
REMARK    2  A    between atoms: C17_22  and  C18_23 
ROOT
HETATM    1  C1  UNL     1      30.095  11.500  48.931  1.00  0.00     0.045 A 
HETATM    2  C2  UNL     1      30.558  11.684  47.734  1.00  0.00    -0.065 A 
HETATM    3  C3  UNL     1      31.034  10.537  48.439  1.00  0.00     0.076 A 
HETATM    4  C4  UNL     1      31.913   9.459  48.149  1.00  0.00     0.027 C 
HETATM    5 BR1  UNL     1      32.149  10.325  46.419  1.00  0.00    -0.093 Br
HETATM    6  C5  UNL     1      32.903   8.384  47.729  1.00  0.00     0.298 A 
HETATM    7  C6  UNL     1      33.806   8.024  46.978  1.00  0.00     0.279 A 
HETATM    8  N1  UNL     1      33.632   6.891  47.768  1.00  0.00     0.011 N 
HETATM    9  C7  UNL     1      33.482   6.008  48.865  1.00  0.00     0.261 C 
HETATM   10  C8  UNL     1      32.130   5.331  48.892  1.00  0.00     0.039 C 
HETATM   11  C9  UNL     1      31.376   5.281  47.630  1.00  0.00     0.026 C 
HETATM   12  C10 UNL     1      30.028   5.884  47.760  1.00  0.00     0.014 C 
HETATM   13  C11 UNL     1      28.884   6.610  47.663  1.00  0.00     0.141 C 
HETATM   14  C12 UNL     1      27.587   6.512  48.443  1.00  0.00     0.079 C 
HETATM   15  N2  UNL     1      28.839   7.630  46.663  1.00  0.00     0.116 N 
HETATM   16  C13 UNL     1      28.689   9.026  46.548  1.00  0.00     0.380 A 
HETATM   17  O1  UNL     1      28.632   8.607  47.764  1.00  0.00    -0.143 OA
HETATM   18  C14 UNL     1      28.581  10.410  46.040  1.00  0.00     0.249 C 
HETATM   19  O2  UNL     1      28.401  11.271  47.128  1.00  0.00    -0.381 OA
HETATM   20  C15 UNL     1      28.824  12.586  46.797  1.00  0.00     0.206 C 
HETATM   21  C16 UNL     1      30.332  12.376  46.498  1.00  0.00    -0.033 C 
HETATM   22  C19 UNL     1      32.077   5.901  46.453  1.00  0.00     0.126 C 
HETATM   23  N3  UNL     1      33.481   5.930  46.752  1.00  0.00    -0.150 NA
HETATM   24  H15 UNL     1      28.969   7.054  45.783  1.00  0.00     0.329 HD
HETATM   25  H25 UNL     1      34.141   5.916  45.996  1.00  0.00     0.153 HD
ENDROOT
BRANCH  21  26
HETATM   26  C17 UNL     1      30.698  12.711  45.302  1.00  0.00     0.013 C 
BRANCH  26  27
HETATM   27  C18 UNL     1      30.914  13.514  44.100  1.00  0.00     0.250 C 
HETATM   28  F1  UNL     1      31.549  14.731  44.337  1.00  0.00    -0.251 F 
ENDBRANCH  26  27
ENDBRANCH  21  26
TORSDOF 2
ENDMDL
