MODEL 1
REMARK VINA RESULT:      -7.5      0.000      0.000
REMARK  4 active torsions:
REMARK  status: ('A' for Active; 'I' for Inactive)
REMARK       I    between atoms: C1_2  and  N1_3 
REMARK       I    between atoms: C1_2  and  N3_12 
REMARK    1  A    between atoms: N1_3  and  C2_4 
REMARK    2  A    between atoms: C2_4  and  C3_5 
REMARK    3  A    between atoms: C3_5  and  N2_6 
REMARK    4  A    between atoms: N3_12  and  C8_13 
ROOT
HETATM    1  O1  UNL     1      26.279   2.680  50.391  1.00  0.00    -0.247 OA
HETATM    2  C1  UNL     1      25.622   3.362  51.256  1.00  0.00     0.320 C 
HETATM    3  N1  UNL     1      24.775   4.458  50.846  1.00  0.00    -0.341 N 
HETATM    4  N3  UNL     1      25.857   2.886  52.594  1.00  0.00    -0.309 N 
HETATM    5  H1  UNL     1      24.371   4.827  51.717  1.00  0.00     0.164 HD
HETATM    6  H14 UNL     1      25.327   3.430  53.325  1.00  0.00     0.170 HD
ENDROOT
BRANCH   3   7
HETATM    7  C2  UNL     1      24.869   4.553  49.418  1.00  0.00     0.154 C 
BRANCH   7   8
HETATM    8  C3  UNL     1      25.322   5.851  48.859  1.00  0.00     0.292 C 
BRANCH   8   9
HETATM    9  N2  UNL     1      26.664   6.137  49.164  1.00  0.00     0.094 N 
HETATM   10  C4  UNL     1      27.605   5.272  48.559  1.00  0.00     0.298 C 
HETATM   11  C5  UNL     1      28.860   6.052  48.098  1.00  0.00     0.198 C 
HETATM   12  O2  UNL     1      28.492   7.050  47.206  1.00  0.00    -0.388 OA
HETATM   13  C6  UNL     1      27.410   7.802  47.587  1.00  0.00     0.198 C 
HETATM   14  C7  UNL     1      27.045   7.518  49.015  1.00  0.00     0.298 C 
ENDBRANCH   8   9
ENDBRANCH   7   8
ENDBRANCH   3   7
BRANCH   4  15
HETATM   15  C8  UNL     1      26.743   1.766  52.823  1.00  0.00     0.037 A 
HETATM   16  C9  UNL     1      27.996   2.120  53.335  1.00  0.00     0.032 A 
HETATM   17  C10 UNL     1      28.892   1.073  53.571  1.00  0.00     0.035 A 
HETATM   18  C11 UNL     1      28.587  -0.248  53.323  1.00  0.00     0.070 A 
HETATM   19  N4  UNL     1      29.482  -1.240  53.563  1.00  0.00    -0.241 NA
HETATM   20  C14 UNL     1      27.328  -0.525  52.816  1.00  0.00     0.012 A 
HETATM   21  C12 UNL     1      29.117  -2.526  53.295  1.00  0.00     0.233 A 
HETATM   22  N5  UNL     1      27.928  -2.859  52.810  1.00  0.00    -0.253 NA
HETATM   23  C13 UNL     1      27.029  -1.873  52.567  1.00  0.00     0.132 A 
HETATM   24  C15 UNL     1      26.394   0.470  52.560  1.00  0.00     0.044 A 
ENDBRANCH   4  15
TORSDOF 4
ENDMDL
MODEL 2
REMARK VINA RESULT:      -7.3      1.279      1.989
REMARK  4 active torsions:
REMARK  status: ('A' for Active; 'I' for Inactive)
REMARK       I    between atoms: C1_2  and  N1_3 
REMARK       I    between atoms: C1_2  and  N3_12 
REMARK    1  A    between atoms: N1_3  and  C2_4 
REMARK    2  A    between atoms: C2_4  and  C3_5 
REMARK    3  A    between atoms: C3_5  and  N2_6 
REMARK    4  A    between atoms: N3_12  and  C8_13 
ROOT
HETATM    1  O1  UNL     1      25.027   2.909  51.218  1.00  0.00    -0.247 OA
HETATM    2  C1  UNL     1      24.591   3.521  52.257  1.00  0.00     0.320 C 
HETATM    3  N1  UNL     1      23.773   4.705  52.130  1.00  0.00    -0.341 N 
HETATM    4  N3  UNL     1      25.023   2.877  53.471  1.00  0.00    -0.309 N 
HETATM    5  H1  UNL     1      23.561   4.991  53.095  1.00  0.00     0.164 HD
HETATM    6  H14 UNL     1      24.675   3.362  54.340  1.00  0.00     0.170 HD
ENDROOT
BRANCH   3   7
HETATM    7  C2  UNL     1      23.618   4.963  50.727  1.00  0.00     0.154 C 
BRANCH   7   8
HETATM    8  C3  UNL     1      24.114   6.269  50.225  1.00  0.00     0.292 C 
BRANCH   8   9
HETATM    9  N2  UNL     1      25.515   6.329  50.152  1.00  0.00     0.094 N 
HETATM   10  C4  UNL     1      26.097   5.440  49.217  1.00  0.00     0.298 C 
HETATM   11  C5  UNL     1      27.290   6.104  48.488  1.00  0.00     0.198 C 
HETATM   12  O2  UNL     1      26.865   7.257  47.843  1.00  0.00    -0.388 OA
HETATM   13  C6  UNL     1      26.070   8.085  48.595  1.00  0.00     0.198 C 
HETATM   14  C7  UNL     1      26.067   7.654  50.033  1.00  0.00     0.298 C 
ENDBRANCH   8   9
ENDBRANCH   7   8
ENDBRANCH   3   7
BRANCH   4  15
HETATM   15  C8  UNL     1      25.844   1.689  53.411  1.00  0.00     0.037 A 
HETATM   16  C9  UNL     1      25.127   0.505  53.206  1.00  0.00     0.032 A 
HETATM   17  C10 UNL     1      25.877  -0.674  53.145  1.00  0.00     0.035 A 
HETATM   18  C11 UNL     1      27.248  -0.702  53.274  1.00  0.00     0.070 A 
HETATM   19  N4  UNL     1      27.944  -1.867  53.209  1.00  0.00    -0.241 NA
HETATM   20  C14 UNL     1      27.892   0.508  53.475  1.00  0.00     0.012 A 
HETATM   21  C12 UNL     1      29.299  -1.823  53.345  1.00  0.00     0.233 A 
HETATM   22  N5  UNL     1      29.977  -0.699  53.539  1.00  0.00    -0.253 NA
HETATM   23  C13 UNL     1      29.288   0.467  53.605  1.00  0.00     0.132 A 
HETATM   24  C15 UNL     1      27.206   1.713  53.545  1.00  0.00     0.044 A 
ENDBRANCH   4  15
TORSDOF 4
ENDMDL
MODEL 3
REMARK VINA RESULT:      -7.0      3.338      4.703
REMARK  4 active torsions:
REMARK  status: ('A' for Active; 'I' for Inactive)
REMARK       I    between atoms: C1_2  and  N1_3 
REMARK       I    between atoms: C1_2  and  N3_12 
REMARK    1  A    between atoms: N1_3  and  C2_4 
REMARK    2  A    between atoms: C2_4  and  C3_5 
REMARK    3  A    between atoms: C3_5  and  N2_6 
REMARK    4  A    between atoms: N3_12  and  C8_13 
ROOT
HETATM    1  O1  UNL     1      24.644   2.723  51.231  1.00  0.00    -0.247 OA
HETATM    2  C1  UNL     1      24.262   3.416  52.240  1.00  0.00     0.320 C 
HETATM    3  N1  UNL     1      23.348   4.522  52.074  1.00  0.00    -0.341 N 
HETATM    4  N3  UNL     1      24.853   2.939  53.464  1.00  0.00    -0.309 N 
HETATM    5  H1  UNL     1      23.207   4.898  53.021  1.00  0.00     0.164 HD
HETATM    6  H14 UNL     1      24.552   3.492  54.309  1.00  0.00     0.170 HD
ENDROOT
BRANCH   3   7
HETATM    7  C2  UNL     1      23.044   4.613  50.676  1.00  0.00     0.154 C 
BRANCH   7   8
HETATM    8  C3  UNL     1      21.614   4.758  50.307  1.00  0.00     0.292 C 
BRANCH   8   9
HETATM    9  N2  UNL     1      21.131   3.671  49.559  1.00  0.00     0.094 N 
HETATM   10  C4  UNL     1      22.123   2.953  48.850  1.00  0.00     0.298 C 
HETATM   11  C5  UNL     1      21.839   1.433  48.883  1.00  0.00     0.198 C 
HETATM   12  O2  UNL     1      21.787   0.993  50.198  1.00  0.00    -0.388 OA
HETATM   13  C6  UNL     1      21.040   1.773  51.044  1.00  0.00     0.198 C 
HETATM   14  C7  UNL     1      20.246   2.783  50.269  1.00  0.00     0.298 C 
ENDBRANCH   8   9
ENDBRANCH   7   8
ENDBRANCH   3   7
BRANCH   4  15
HETATM   15  C8  UNL     1      25.753   1.807  53.445  1.00  0.00     0.037 A 
HETATM   16  C9  UNL     1      25.114   0.567  53.341  1.00  0.00     0.032 A 
HETATM   17  C10 UNL     1      25.941  -0.560  53.321  1.00  0.00     0.035 A 
HETATM   18  C11 UNL     1      27.315  -0.487  53.399  1.00  0.00     0.070 A 
HETATM   19  N4  UNL     1      28.088  -1.603  53.378  1.00  0.00    -0.241 NA
HETATM   20  C14 UNL     1      27.879   0.774  53.500  1.00  0.00     0.012 A 
HETATM   21  C12 UNL     1      29.441  -1.460  53.458  1.00  0.00     0.233 A 
HETATM   22  N5  UNL     1      30.044  -0.283  53.557  1.00  0.00    -0.253 NA
HETATM   23  C13 UNL     1      29.278   0.837  53.578  1.00  0.00     0.132 A 
HETATM   24  C15 UNL     1      27.113   1.932  53.524  1.00  0.00     0.044 A 
ENDBRANCH   4  15
TORSDOF 4
ENDMDL
MODEL 4
REMARK VINA RESULT:      -6.8      2.645      3.408
REMARK  4 active torsions:
REMARK  status: ('A' for Active; 'I' for Inactive)
REMARK       I    between atoms: C1_2  and  N1_3 
REMARK       I    between atoms: C1_2  and  N3_12 
REMARK    1  A    between atoms: N1_3  and  C2_4 
REMARK    2  A    between atoms: C2_4  and  C3_5 
REMARK    3  A    between atoms: C3_5  and  N2_6 
REMARK    4  A    between atoms: N3_12  and  C8_13 
ROOT
HETATM    1  O1  UNL     1      23.743   3.845  52.591  1.00  0.00    -0.247 OA
HETATM    2  C1  UNL     1      23.225   3.310  51.546  1.00  0.00     0.320 C 
HETATM    3  N1  UNL     1      22.240   4.018  50.763  1.00  0.00    -0.341 N 
HETATM    4  N3  UNL     1      23.752   1.990  51.311  1.00  0.00    -0.309 N 
HETATM    5  H1  UNL     1      21.995   3.378  49.996  1.00  0.00     0.164 HD
HETATM    6  H14 UNL     1      23.342   1.529  50.456  1.00  0.00     0.170 HD
ENDROOT
BRANCH   3   7
HETATM    7  C2  UNL     1      22.034   5.290  51.393  1.00  0.00     0.154 C 
BRANCH   7   8
HETATM    8  C3  UNL     1      21.797   6.452  50.500  1.00  0.00     0.292 C 
BRANCH   8   9
HETATM    9  N2  UNL     1      22.959   7.205  50.264  1.00  0.00     0.094 N 
HETATM   10  C4  UNL     1      24.021   6.953  51.165  1.00  0.00     0.298 C 
HETATM   11  C5  UNL     1      25.384   6.963  50.433  1.00  0.00     0.198 C 
HETATM   12  O2  UNL     1      25.384   6.010  49.425  1.00  0.00    -0.388 OA
HETATM   13  C6  UNL     1      24.265   6.002  48.631  1.00  0.00     0.198 C 
HETATM   14  C7  UNL     1      23.418   7.212  48.899  1.00  0.00     0.298 C 
ENDBRANCH   8   9
ENDBRANCH   7   8
ENDBRANCH   3   7
BRANCH   4  15
HETATM   15  C8  UNL     1      24.743   1.433  52.205  1.00  0.00     0.037 A 
HETATM   16  C9  UNL     1      24.246   0.457  53.077  1.00  0.00     0.032 A 
HETATM   17  C10 UNL     1      25.165  -0.111  53.964  1.00  0.00     0.035 A 
HETATM   18  C11 UNL     1      26.495   0.248  54.004  1.00  0.00     0.070 A 
HETATM   19  N4  UNL     1      27.359  -0.325  54.880  1.00  0.00    -0.241 NA
HETATM   20  C14 UNL     1      26.917   1.221  53.112  1.00  0.00     0.012 A 
HETATM   21  C12 UNL     1      28.661   0.077  54.866  1.00  0.00     0.233 A 
HETATM   22  N5  UNL     1      29.130   1.001  54.039  1.00  0.00    -0.253 NA
HETATM   23  C13 UNL     1      28.272   1.578  53.161  1.00  0.00     0.132 A 
HETATM   24  C15 UNL     1      26.054   1.823  52.206  1.00  0.00     0.044 A 
ENDBRANCH   4  15
TORSDOF 4
ENDMDL
MODEL 5
REMARK VINA RESULT:      -6.7      1.904      7.829
REMARK  4 active torsions:
REMARK  status: ('A' for Active; 'I' for Inactive)
REMARK       I    between atoms: C1_2  and  N1_3 
REMARK       I    between atoms: C1_2  and  N3_12 
REMARK    1  A    between atoms: N1_3  and  C2_4 
REMARK    2  A    between atoms: C2_4  and  C3_5 
REMARK    3  A    between atoms: C3_5  and  N2_6 
REMARK    4  A    between atoms: N3_12  and  C8_13 
ROOT
HETATM    1  O1  UNL     1      27.151   2.927  51.052  1.00  0.00    -0.247 OA
HETATM    2  C1  UNL     1      25.918   2.631  50.866  1.00  0.00     0.320 C 
HETATM    3  N1  UNL     1      25.368   1.396  51.378  1.00  0.00    -0.341 N 
HETATM    4  N3  UNL     1      25.234   3.655  50.120  1.00  0.00    -0.309 N 
HETATM    5  H1  UNL     1      24.379   1.406  51.097  1.00  0.00     0.164 HD
HETATM    6  H14 UNL     1      24.216   3.435  49.955  1.00  0.00     0.170 HD
ENDROOT
BRANCH   3   7
HETATM    7  C2  UNL     1      26.433   0.704  52.044  1.00  0.00     0.154 C 
BRANCH   7   8
HETATM    8  C3  UNL     1      26.318   0.551  53.516  1.00  0.00     0.292 C 
BRANCH   8   9
HETATM    9  N2  UNL     1      27.293  -0.306  54.053  1.00  0.00     0.094 N 
HETATM   10  C4  UNL     1      27.953  -1.120  53.103  1.00  0.00     0.298 C 
HETATM   11  C5  UNL     1      29.458  -1.257  53.438  1.00  0.00     0.198 C 
HETATM   12  O2  UNL     1      30.047  -0.002  53.477  1.00  0.00    -0.388 OA
HETATM   13  C6  UNL     1      29.349   0.949  54.177  1.00  0.00     0.198 C 
HETATM   14  C7  UNL     1      28.229   0.318  54.952  1.00  0.00     0.298 C 
ENDBRANCH   8   9
ENDBRANCH   7   8
ENDBRANCH   3   7
BRANCH   4  15
HETATM   15  C8  UNL     1      25.946   4.836  49.684  1.00  0.00     0.037 A 
HETATM   16  C9  UNL     1      25.352   6.042  50.075  1.00  0.00     0.032 A 
HETATM   17  C10 UNL     1      26.001   7.214  49.675  1.00  0.00     0.035 A 
HETATM   18  C11 UNL     1      27.164   7.215  48.935  1.00  0.00     0.070 A 
HETATM   19  N4  UNL     1      27.767   8.374  48.564  1.00  0.00    -0.241 NA
HETATM   20  C14 UNL     1      27.696   5.985  48.584  1.00  0.00     0.012 A 
HETATM   21  C12 UNL     1      28.915   8.304  47.833  1.00  0.00     0.233 A 
HETATM   22  N5  UNL     1      29.476   7.160  47.464  1.00  0.00    -0.253 NA
HETATM   23  C13 UNL     1      28.879   5.999  47.832  1.00  0.00     0.132 A 
HETATM   24  C15 UNL     1      27.099   4.786  48.950  1.00  0.00     0.044 A 
ENDBRANCH   4  15
TORSDOF 4
ENDMDL
MODEL 6
REMARK VINA RESULT:      -6.6      3.669      5.607
REMARK  4 active torsions:
REMARK  status: ('A' for Active; 'I' for Inactive)
REMARK       I    between atoms: C1_2  and  N1_3 
REMARK       I    between atoms: C1_2  and  N3_12 
REMARK    1  A    between atoms: N1_3  and  C2_4 
REMARK    2  A    between atoms: C2_4  and  C3_5 
REMARK    3  A    between atoms: C3_5  and  N2_6 
REMARK    4  A    between atoms: N3_12  and  C8_13 
ROOT
HETATM    1  O1  UNL     1      24.044   4.158  52.113  1.00  0.00    -0.247 OA
HETATM    2  C1  UNL     1      24.044   3.934  50.850  1.00  0.00     0.320 C 
HETATM    3  N1  UNL     1      23.269   4.758  49.952  1.00  0.00    -0.341 N 
HETATM    4  N3  UNL     1      24.881   2.811  50.512  1.00  0.00    -0.309 N 
HETATM    5  H1  UNL     1      23.444   4.373  49.015  1.00  0.00     0.164 HD
HETATM    6  H14 UNL     1      24.899   2.607  49.478  1.00  0.00     0.170 HD
ENDROOT
BRANCH   3   7
HETATM    7  C2  UNL     1      22.600   5.741  50.753  1.00  0.00     0.154 C 
BRANCH   7   8
HETATM    8  C3  UNL     1      21.129   5.603  50.897  1.00  0.00     0.292 C 
BRANCH   8   9
HETATM    9  N2  UNL     1      20.694   4.272  50.789  1.00  0.00     0.094 N 
HETATM   10  C4  UNL     1      20.568   3.588  52.021  1.00  0.00     0.298 C 
HETATM   11  C5  UNL     1      19.323   2.670  52.022  1.00  0.00     0.198 C 
HETATM   12  O2  UNL     1      18.183   3.423  51.781  1.00  0.00    -0.388 OA
HETATM   13  C6  UNL     1      18.283   4.315  50.744  1.00  0.00     0.198 C 
HETATM   14  C7  UNL     1      19.536   4.071  49.956  1.00  0.00     0.298 C 
ENDBRANCH   8   9
ENDBRANCH   7   8
ENDBRANCH   3   7
BRANCH   4  15
HETATM   15  C8  UNL     1      25.591   2.095  51.549  1.00  0.00     0.037 A 
HETATM   16  C9  UNL     1      24.938   0.943  52.002  1.00  0.00     0.032 A 
HETATM   17  C10 UNL     1      25.583   0.216  53.007  1.00  0.00     0.035 A 
HETATM   18  C11 UNL     1      26.797   0.588  53.544  1.00  0.00     0.070 A 
HETATM   19  N4  UNL     1      27.395  -0.142  54.520  1.00  0.00    -0.241 NA
HETATM   20  C14 UNL     1      27.386   1.740  53.047  1.00  0.00     0.012 A 
HETATM   21  C12 UNL     1      28.595   0.281  55.007  1.00  0.00     0.233 A 
HETATM   22  N5  UNL     1      29.212   1.373  54.576  1.00  0.00    -0.253 NA
HETATM   23  C13 UNL     1      28.620   2.107  53.601  1.00  0.00     0.132 A 
HETATM   24  C15 UNL     1      26.796   2.505  52.050  1.00  0.00     0.044 A 
ENDBRANCH   4  15
TORSDOF 4
ENDMDL
MODEL 7
REMARK VINA RESULT:      -6.4      4.626      6.294
REMARK  4 active torsions:
REMARK  status: ('A' for Active; 'I' for Inactive)
REMARK       I    between atoms: C1_2  and  N1_3 
REMARK       I    between atoms: C1_2  and  N3_12 
REMARK    1  A    between atoms: N1_3  and  C2_4 
REMARK    2  A    between atoms: C2_4  and  C3_5 
REMARK    3  A    between atoms: C3_5  and  N2_6 
REMARK    4  A    between atoms: N3_12  and  C8_13 
ROOT
HETATM    1  O1  UNL     1      22.464   1.330  53.298  1.00  0.00    -0.247 OA
HETATM    2  C1  UNL     1      22.163   0.120  52.998  1.00  0.00     0.320 C 
HETATM    3  N1  UNL     1      20.809  -0.241  52.648  1.00  0.00    -0.341 N 
HETATM    4  N3  UNL     1      23.314  -0.744  53.068  1.00  0.00    -0.309 N 
HETATM    5  H1  UNL     1      20.842  -1.251  52.455  1.00  0.00     0.164 HD
HETATM    6  H14 UNL     1      23.093  -1.745  52.824  1.00  0.00     0.170 HD
ENDROOT
BRANCH   3   7
HETATM    7  C2  UNL     1      20.020   0.953  52.725  1.00  0.00     0.154 C 
BRANCH   7   8
HETATM    8  C3  UNL     1      19.028   1.174  51.643  1.00  0.00     0.292 C 
BRANCH   8   9
HETATM    9  N2  UNL     1      19.587   1.776  50.504  1.00  0.00     0.094 N 
HETATM   10  C4  UNL     1      18.663   2.063  49.472  1.00  0.00     0.298 C 
HETATM   11  C5  UNL     1      18.987   3.418  48.798  1.00  0.00     0.198 C 
HETATM   12  O2  UNL     1      18.969   4.431  49.745  1.00  0.00    -0.388 OA
HETATM   13  C6  UNL     1      19.639   4.152  50.909  1.00  0.00     0.198 C 
HETATM   14  C7  UNL     1      20.451   2.898  50.765  1.00  0.00     0.298 C 
ENDBRANCH   8   9
ENDBRANCH   7   8
ENDBRANCH   3   7
BRANCH   4  15
HETATM   15  C8  UNL     1      24.605  -0.207  53.438  1.00  0.00     0.037 A 
HETATM   16  C9  UNL     1      25.075  -0.649  54.680  1.00  0.00     0.032 A 
HETATM   17  C10 UNL     1      26.319  -0.157  55.086  1.00  0.00     0.035 A 
HETATM   18  C11 UNL     1      27.066   0.718  54.328  1.00  0.00     0.070 A 
HETATM   19  N4  UNL     1      28.271   1.178  54.754  1.00  0.00    -0.241 NA
HETATM   20  C14 UNL     1      26.538   1.114  53.109  1.00  0.00     0.012 A 
HETATM   21  C12 UNL     1      28.958   2.041  53.955  1.00  0.00     0.233 A 
HETATM   22  N5  UNL     1      28.510   2.458  52.778  1.00  0.00    -0.253 NA
HETATM   23  C13 UNL     1      27.308   2.004  52.346  1.00  0.00     0.132 A 
HETATM   24  C15 UNL     1      25.309   0.660  52.649  1.00  0.00     0.044 A 
ENDBRANCH   4  15
TORSDOF 4
ENDMDL
MODEL 8
REMARK VINA RESULT:      -6.4      2.892      3.927
REMARK  4 active torsions:
REMARK  status: ('A' for Active; 'I' for Inactive)
REMARK       I    between atoms: C1_2  and  N1_3 
REMARK       I    between atoms: C1_2  and  N3_12 
REMARK    1  A    between atoms: N1_3  and  C2_4 
REMARK    2  A    between atoms: C2_4  and  C3_5 
REMARK    3  A    between atoms: C3_5  and  N2_6 
REMARK    4  A    between atoms: N3_12  and  C8_13 
ROOT
HETATM    1  O1  UNL     1      24.684   2.550  51.166  1.00  0.00    -0.247 OA
HETATM    2  C1  UNL     1      24.308   3.301  52.134  1.00  0.00     0.320 C 
HETATM    3  N1  UNL     1      23.377   4.383  51.914  1.00  0.00    -0.341 N 
HETATM    4  N3  UNL     1      24.926   2.912  53.376  1.00  0.00    -0.309 N 
HETATM    5  H1  UNL     1      23.245   4.817  52.837  1.00  0.00     0.164 HD
HETATM    6  H14 UNL     1      24.631   3.514  54.189  1.00  0.00     0.170 HD
ENDROOT
BRANCH   3   7
HETATM    7  C2  UNL     1      23.049   4.380  50.518  1.00  0.00     0.154 C 
BRANCH   7   8
HETATM    8  C3  UNL     1      23.636   5.460  49.687  1.00  0.00     0.292 C 
BRANCH   8   9
HETATM    9  N2  UNL     1      22.681   6.121  48.896  1.00  0.00     0.094 N 
HETATM   10  C4  UNL     1      21.394   5.535  48.911  1.00  0.00     0.298 C 
HETATM   11  C5  UNL     1      20.290   6.620  48.919  1.00  0.00     0.198 C 
HETATM   12  O2  UNL     1      20.447   7.443  50.024  1.00  0.00    -0.388 OA
HETATM   13  C6  UNL     1      21.730   7.874  50.252  1.00  0.00     0.198 C 
HETATM   14  C7  UNL     1      22.612   7.547  49.083  1.00  0.00     0.298 C 
ENDBRANCH   8   9
ENDBRANCH   7   8
ENDBRANCH   3   7
BRANCH   4  15
HETATM   15  C8  UNL     1      25.841   1.793  53.414  1.00  0.00     0.037 A 
HETATM   16  C9  UNL     1      25.219   0.540  53.386  1.00  0.00     0.032 A 
HETATM   17  C10 UNL     1      26.061  -0.575  53.425  1.00  0.00     0.035 A 
HETATM   18  C11 UNL     1      27.435  -0.479  53.486  1.00  0.00     0.070 A 
HETATM   19  N4  UNL     1      28.223  -1.584  53.523  1.00  0.00    -0.241 NA
HETATM   20  C14 UNL     1      27.982   0.794  53.510  1.00  0.00     0.012 A 
HETATM   21  C12 UNL     1      29.574  -1.418  53.583  1.00  0.00     0.233 A 
HETATM   22  N5  UNL     1      30.162  -0.230  53.609  1.00  0.00    -0.253 NA
HETATM   23  C13 UNL     1      29.380   0.879  53.573  1.00  0.00     0.132 A 
HETATM   24  C15 UNL     1      27.200   1.940  53.475  1.00  0.00     0.044 A 
ENDBRANCH   4  15
TORSDOF 4
ENDMDL
MODEL 9
REMARK VINA RESULT:      -6.4      7.540      9.230
REMARK  4 active torsions:
REMARK  status: ('A' for Active; 'I' for Inactive)
REMARK       I    between atoms: C1_2  and  N1_3 
REMARK       I    between atoms: C1_2  and  N3_12 
REMARK    1  A    between atoms: N1_3  and  C2_4 
REMARK    2  A    between atoms: C2_4  and  C3_5 
REMARK    3  A    between atoms: C3_5  and  N2_6 
REMARK    4  A    between atoms: N3_12  and  C8_13 
ROOT
HETATM    1  O1  UNL     1      19.729   2.448  52.731  1.00  0.00    -0.247 OA
HETATM    2  C1  UNL     1      19.423   1.909  51.608  1.00  0.00     0.320 C 
HETATM    3  N1  UNL     1      18.547   2.584  50.678  1.00  0.00    -0.341 N 
HETATM    4  N3  UNL     1      20.049   0.622  51.450  1.00  0.00    -0.309 N 
HETATM    5  H1  UNL     1      18.468   1.948  49.873  1.00  0.00     0.164 HD
HETATM    6  H14 UNL     1      19.813   0.159  50.533  1.00  0.00     0.170 HD
ENDROOT
BRANCH   3   7
HETATM    7  C2  UNL     1      18.173   3.831  51.278  1.00  0.00     0.154 C 
BRANCH   7   8
HETATM    8  C3  UNL     1      16.755   4.245  51.142  1.00  0.00     0.292 C 
BRANCH   8   9
HETATM    9  N2  UNL     1      15.890   3.509  51.970  1.00  0.00     0.094 N 
HETATM   10  C4  UNL     1      15.349   4.237  53.055  1.00  0.00     0.298 C 
HETATM   11  C5  UNL     1      13.870   3.851  53.300  1.00  0.00     0.198 C 
HETATM   12  O2  UNL     1      13.126   4.087  52.154  1.00  0.00    -0.388 OA
HETATM   13  C6  UNL     1      13.691   3.634  50.989  1.00  0.00     0.198 C 
HETATM   14  C7  UNL     1      14.873   2.757  51.281  1.00  0.00     0.298 C 
ENDBRANCH   8   9
ENDBRANCH   7   8
ENDBRANCH   3   7
BRANCH   4  15
HETATM   15  C8  UNL     1      20.903   0.096  52.491  1.00  0.00     0.037 A 
HETATM   16  C9  UNL     1      20.223  -0.607  53.492  1.00  0.00     0.032 A 
HETATM   17  C10 UNL     1      21.004  -1.134  54.525  1.00  0.00     0.035 A 
HETATM   18  C11 UNL     1      22.373  -0.985  54.584  1.00  0.00     0.070 A 
HETATM   19  N4  UNL     1      23.101  -1.510  55.603  1.00  0.00    -0.241 NA
HETATM   20  C14 UNL     1      22.980  -0.277  53.559  1.00  0.00     0.012 A 
HETATM   21  C12 UNL     1      24.451  -1.326  55.600  1.00  0.00     0.233 A 
HETATM   22  N5  UNL     1      25.094  -0.660  54.651  1.00  0.00    -0.253 NA
HETATM   23  C13 UNL     1      24.373  -0.133  53.630  1.00  0.00     0.132 A 
HETATM   24  C15 UNL     1      22.260   0.270  52.505  1.00  0.00     0.044 A 
ENDBRANCH   4  15
TORSDOF 4
ENDMDL
