MODEL 1
REMARK VINA RESULT:      -8.0      0.000      0.000
REMARK  3 active torsions:
REMARK  status: ('A' for Active; 'I' for Inactive)
REMARK    1  A    between atoms: O1_2  and  C2_3 
REMARK    2  A    between atoms: C6_7  and  N1_8 
REMARK    3  A    between atoms: N1_8  and  C7_9 
ROOT
HETATM    1  C2  UNL     1      19.869  -0.201  52.729  1.00  0.00     0.070 A 
HETATM    2  C3  UNL     1      20.802   0.430  51.897  1.00  0.00     0.038 A 
HETATM    3  C4  UNL     1      22.145   0.398  52.228  1.00  0.00     0.020 A 
HETATM    4  C5  UNL     1      22.668  -0.210  53.325  1.00  0.00     0.039 A 
HETATM    5  C6  UNL     1      24.006  -0.236  53.644  1.00  0.00     0.142 A 
HETATM    6  N2  UNL     1      24.298  -0.892  54.771  1.00  0.00    -0.224 NA
HETATM    7  C13 UNL     1      23.399  -1.487  55.551  1.00  0.00     0.236 A 
HETATM    8  N3  UNL     1      22.093  -1.466  55.246  1.00  0.00    -0.241 NA
HETATM    9  C14 UNL     1      21.726  -0.821  54.120  1.00  0.00     0.074 A 
HETATM   10  C15 UNL     1      20.383  -0.821  53.843  1.00  0.00     0.069 A 
ENDROOT
BRANCH   5  11
HETATM   11  N1  UNL     1      24.936   0.398  52.801  1.00  0.00    -0.340 N 
HETATM   12  H6  UNL     1      24.674   0.723  51.869  1.00  0.00     0.167 HD
BRANCH  11  13
HETATM   13  C7  UNL     1      26.299   0.688  53.051  1.00  0.00     0.035 A 
HETATM   14  C8  UNL     1      26.774   1.971  53.201  1.00  0.00     0.029 A 
HETATM   15  C9  UNL     1      28.077   2.302  53.447  1.00  0.00     0.004 A 
HETATM   16  C10 UNL     1      29.029   1.298  53.561  1.00  0.00     0.019 A 
HETATM   17  C11 UNL     1      28.609  -0.006  53.420  1.00  0.00     0.013 A 
HETATM   18 BR1  UNL     1      29.843  -1.449  53.561  1.00  0.00    -0.051 Br
HETATM   19  C12 UNL     1      27.283  -0.268  53.173  1.00  0.00     0.048 A 
ENDBRANCH  11  13
ENDBRANCH   5  11
BRANCH   1  20
HETATM   20  O1  UNL     1      18.561  -0.126  52.337  1.00  0.00    -0.356 OA
HETATM   21  C1  UNL     1      17.529  -1.019  52.661  1.00  0.00     0.210 C 
ENDBRANCH   1  20
TORSDOF 3
ENDMDL
MODEL 2
REMARK VINA RESULT:      -7.8      4.235      5.712
REMARK  3 active torsions:
REMARK  status: ('A' for Active; 'I' for Inactive)
REMARK    1  A    between atoms: O1_2  and  C2_3 
REMARK    2  A    between atoms: C6_7  and  N1_8 
REMARK    3  A    between atoms: N1_8  and  C7_9 
ROOT
HETATM    1  C2  UNL     1      24.287  -0.324  54.114  1.00  0.00     0.070 A 
HETATM    2  C3  UNL     1      23.891   0.116  52.845  1.00  0.00     0.038 A 
HETATM    3  C4  UNL     1      24.739   0.921  52.105  1.00  0.00     0.020 A 
HETATM    4  C5  UNL     1      25.966   1.344  52.505  1.00  0.00     0.039 A 
HETATM    5  C6  UNL     1      26.801   2.145  51.761  1.00  0.00     0.142 A 
HETATM    6  N2  UNL     1      27.964   2.439  52.350  1.00  0.00    -0.224 NA
HETATM    7  C13 UNL     1      28.325   2.012  53.558  1.00  0.00     0.236 A 
HETATM    8  N3  UNL     1      27.517   1.231  54.288  1.00  0.00    -0.241 NA
HETATM    9  C14 UNL     1      26.325   0.894  53.755  1.00  0.00     0.074 A 
HETATM   10  C15 UNL     1      25.528   0.095  54.533  1.00  0.00     0.069 A 
ENDROOT
BRANCH   5  11
HETATM   11  N1  UNL     1      26.397   2.578  50.486  1.00  0.00    -0.340 N 
HETATM   12  H6  UNL     1      26.092   1.917  49.771  1.00  0.00     0.167 HD
BRANCH  11  13
HETATM   13  C7  UNL     1      26.334   3.901  49.982  1.00  0.00     0.035 A 
HETATM   14  C8  UNL     1      27.223   4.388  49.053  1.00  0.00     0.029 A 
HETATM   15  C9  UNL     1      27.202   5.653  48.534  1.00  0.00     0.004 A 
HETATM   16  C10 UNL     1      26.225   6.548  48.950  1.00  0.00     0.019 A 
HETATM   17  C11 UNL     1      25.308   6.112  49.881  1.00  0.00     0.013 A 
HETATM   18 BR1  UNL     1      23.932   7.269  50.509  1.00  0.00    -0.051 Br
HETATM   19  C12 UNL     1      25.388   4.828  50.361  1.00  0.00     0.048 A 
ENDBRANCH  11  13
ENDBRANCH   5  11
BRANCH   1  20
HETATM   20  O1  UNL     1      23.396  -1.115  54.784  1.00  0.00    -0.356 OA
HETATM   21  C1  UNL     1      22.007  -0.939  54.872  1.00  0.00     0.210 C 
ENDBRANCH   1  20
TORSDOF 3
ENDMDL
MODEL 3
REMARK VINA RESULT:      -7.7      4.110      5.636
REMARK  3 active torsions:
REMARK  status: ('A' for Active; 'I' for Inactive)
REMARK    1  A    between atoms: O1_2  and  C2_3 
REMARK    2  A    between atoms: C6_7  and  N1_8 
REMARK    3  A    between atoms: N1_8  and  C7_9 
ROOT
HETATM    1  C2  UNL     1      24.434  -0.379  54.226  1.00  0.00     0.070 A 
HETATM    2  C3  UNL     1      24.038  -0.066  52.920  1.00  0.00     0.038 A 
HETATM    3  C4  UNL     1      24.854   0.725  52.130  1.00  0.00     0.020 A 
HETATM    4  C5  UNL     1      26.047   1.249  52.513  1.00  0.00     0.039 A 
HETATM    5  C6  UNL     1      26.849   2.036  51.719  1.00  0.00     0.142 A 
HETATM    6  N2  UNL     1      27.981   2.443  52.299  1.00  0.00    -0.224 NA
HETATM    7  C13 UNL     1      28.342   2.137  53.543  1.00  0.00     0.236 A 
HETATM    8  N3  UNL     1      27.565   1.371  54.323  1.00  0.00    -0.241 NA
HETATM    9  C14 UNL     1      26.406   0.923  53.801  1.00  0.00     0.074 A 
HETATM   10  C15 UNL     1      25.640   0.144  54.629  1.00  0.00     0.069 A 
ENDROOT
BRANCH   5  11
HETATM   11  N1  UNL     1      26.446   2.341  50.407  1.00  0.00    -0.340 N 
HETATM   12  H6  UNL     1      26.235   1.607  49.730  1.00  0.00     0.167 HD
BRANCH  11  13
HETATM   13  C7  UNL     1      26.264   3.614  49.813  1.00  0.00     0.035 A 
HETATM   14  C8  UNL     1      25.040   4.236  49.739  1.00  0.00     0.029 A 
HETATM   15  C9  UNL     1      24.815   5.463  49.180  1.00  0.00     0.004 A 
HETATM   16  C10 UNL     1      25.876   6.172  48.633  1.00  0.00     0.019 A 
HETATM   17  C11 UNL     1      27.126   5.596  48.680  1.00  0.00     0.013 A 
HETATM   18 BR1  UNL     1      28.641   6.495  47.956  1.00  0.00    -0.051 Br
HETATM   19  C12 UNL     1      27.281   4.359  49.257  1.00  0.00     0.048 A 
ENDBRANCH  11  13
ENDBRANCH   5  11
BRANCH   1  20
HETATM   20  O1  UNL     1      23.577  -1.165  54.945  1.00  0.00    -0.356 OA
HETATM   21  C1  UNL     1      22.174  -1.138  54.910  1.00  0.00     0.210 C 
ENDBRANCH   1  20
TORSDOF 3
ENDMDL
MODEL 4
REMARK VINA RESULT:      -7.5      4.359      8.392
REMARK  3 active torsions:
REMARK  status: ('A' for Active; 'I' for Inactive)
REMARK    1  A    between atoms: O1_2  and  C2_3 
REMARK    2  A    between atoms: C6_7  and  N1_8 
REMARK    3  A    between atoms: N1_8  and  C7_9 
ROOT
HETATM    1  C2  UNL     1      24.049  -0.723  54.274  1.00  0.00     0.070 A 
HETATM    2  C3  UNL     1      23.026  -1.278  55.052  1.00  0.00     0.038 A 
HETATM    3  C4  UNL     1      21.711  -1.162  54.634  1.00  0.00     0.020 A 
HETATM    4  C5  UNL     1      21.301  -0.537  53.501  1.00  0.00     0.039 A 
HETATM    5  C6  UNL     1      19.990  -0.428  53.096  1.00  0.00     0.142 A 
HETATM    6  N2  UNL     1      19.815   0.229  51.946  1.00  0.00    -0.224 NA
HETATM    7  C13 UNL     1      20.799   0.751  51.219  1.00  0.00     0.236 A 
HETATM    8  N3  UNL     1      22.078   0.649  51.607  1.00  0.00    -0.241 NA
HETATM    9  C14 UNL     1      22.330  -0.003  52.760  1.00  0.00     0.074 A 
HETATM   10  C15 UNL     1      23.650  -0.087  53.123  1.00  0.00     0.069 A 
ENDROOT
BRANCH   5  11
HETATM   11  N1  UNL     1      18.970  -0.992  53.881  1.00  0.00    -0.340 N 
HETATM   12  H6  UNL     1      18.923  -0.833  54.888  1.00  0.00     0.167 HD
BRANCH  11  13
HETATM   13  C7  UNL     1      17.895  -1.818  53.471  1.00  0.00     0.035 A 
HETATM   14  C8  UNL     1      17.823  -3.157  53.778  1.00  0.00     0.029 A 
HETATM   15  C9  UNL     1      16.807  -3.994  53.408  1.00  0.00     0.004 A 
HETATM   16  C10 UNL     1      15.746  -3.497  52.665  1.00  0.00     0.019 A 
HETATM   17  C11 UNL     1      15.766  -2.161  52.329  1.00  0.00     0.013 A 
HETATM   18 BR1  UNL     1      14.352  -1.390  51.312  1.00  0.00    -0.051 Br
HETATM   19  C12 UNL     1      16.819  -1.377  52.733  1.00  0.00     0.048 A 
ENDBRANCH  11  13
ENDBRANCH   5  11
BRANCH   1  20
HETATM   20  O1  UNL     1      25.322  -0.878  54.751  1.00  0.00    -0.356 OA
HETATM   21  C1  UNL     1      26.344   0.084  54.761  1.00  0.00     0.210 C 
ENDBRANCH   1  20
TORSDOF 3
ENDMDL
MODEL 5
REMARK VINA RESULT:      -7.4      4.244      6.100
REMARK  3 active torsions:
REMARK  status: ('A' for Active; 'I' for Inactive)
REMARK    1  A    between atoms: O1_2  and  C2_3 
REMARK    2  A    between atoms: C6_7  and  N1_8 
REMARK    3  A    between atoms: N1_8  and  C7_9 
ROOT
HETATM    1  C2  UNL     1      26.939  -0.342  53.627  1.00  0.00     0.070 A 
HETATM    2  C3  UNL     1      27.157   0.482  52.515  1.00  0.00     0.038 A 
HETATM    3  C4  UNL     1      26.079   1.080  51.887  1.00  0.00     0.020 A 
HETATM    4  C5  UNL     1      24.780   0.941  52.256  1.00  0.00     0.039 A 
HETATM    5  C6  UNL     1      23.716   1.540  51.623  1.00  0.00     0.142 A 
HETATM    6  N2  UNL     1      22.522   1.265  52.156  1.00  0.00    -0.224 NA
HETATM    7  C13 UNL     1      22.332   0.479  53.213  1.00  0.00     0.236 A 
HETATM    8  N3  UNL     1      23.365  -0.108  53.835  1.00  0.00    -0.241 NA
HETATM    9  C14 UNL     1      24.601   0.126  53.350  1.00  0.00     0.074 A 
HETATM   10  C15 UNL     1      25.629  -0.493  54.013  1.00  0.00     0.069 A 
ENDROOT
BRANCH   5  11
HETATM   11  N1  UNL     1      23.944   2.369  50.510  1.00  0.00    -0.340 N 
HETATM   12  H6  UNL     1      23.853   2.017  49.557  1.00  0.00     0.167 HD
BRANCH  11  13
HETATM   13  C7  UNL     1      24.312   3.737  50.489  1.00  0.00     0.035 A 
HETATM   14  C8  UNL     1      23.676   4.693  51.246  1.00  0.00     0.029 A 
HETATM   15  C9  UNL     1      23.995   6.022  51.262  1.00  0.00     0.004 A 
HETATM   16  C10 UNL     1      25.036   6.486  50.468  1.00  0.00     0.019 A 
HETATM   17  C11 UNL     1      25.708   5.571  49.689  1.00  0.00     0.013 A 
HETATM   18 BR1  UNL     1      27.148   6.116  48.569  1.00  0.00    -0.051 Br
HETATM   19  C12 UNL     1      25.334   4.250  49.720  1.00  0.00     0.048 A 
ENDBRANCH  11  13
ENDBRANCH   5  11
BRANCH   1  20
HETATM   20  O1  UNL     1      28.053  -0.897  54.194  1.00  0.00    -0.356 OA
HETATM   21  C1  UNL     1      29.383  -0.481  54.030  1.00  0.00     0.210 C 
ENDBRANCH   1  20
TORSDOF 3
ENDMDL
MODEL 6
REMARK VINA RESULT:      -7.3      5.024      7.481
REMARK  3 active torsions:
REMARK  status: ('A' for Active; 'I' for Inactive)
REMARK    1  A    between atoms: O1_2  and  C2_3 
REMARK    2  A    between atoms: C6_7  and  N1_8 
REMARK    3  A    between atoms: N1_8  and  C7_9 
ROOT
HETATM    1  C2  UNL     1      27.373   6.176  48.607  1.00  0.00     0.070 A 
HETATM    2  C3  UNL     1      27.590   4.792  48.623  1.00  0.00     0.038 A 
HETATM    3  C4  UNL     1      26.744   3.977  49.354  1.00  0.00     0.020 A 
HETATM    4  C5  UNL     1      25.683   4.403  50.087  1.00  0.00     0.039 A 
HETATM    5  C6  UNL     1      24.850   3.583  50.811  1.00  0.00     0.142 A 
HETATM    6  N2  UNL     1      23.868   4.217  51.458  1.00  0.00    -0.224 NA
HETATM    7  C13 UNL     1      23.675   5.534  51.432  1.00  0.00     0.236 A 
HETATM    8  N3  UNL     1      24.484   6.339  50.729  1.00  0.00    -0.241 NA
HETATM    9  C14 UNL     1      25.498   5.766  50.049  1.00  0.00     0.074 A 
HETATM   10  C15 UNL     1      26.302   6.623  49.343  1.00  0.00     0.069 A 
ENDROOT
BRANCH   5  11
HETATM   11  N1  UNL     1      25.072   2.195  50.818  1.00  0.00    -0.340 N 
HETATM   12  H6  UNL     1      24.977   1.636  49.970  1.00  0.00     0.167 HD
BRANCH  11  13
HETATM   13  C7  UNL     1      25.443   1.366  51.906  1.00  0.00     0.035 A 
HETATM   14  C8  UNL     1      24.524   0.737  52.712  1.00  0.00     0.029 A 
HETATM   15  C9  UNL     1      24.832  -0.074  53.769  1.00  0.00     0.004 A 
HETATM   16  C10 UNL     1      26.162  -0.307  54.089  1.00  0.00     0.019 A 
HETATM   17  C11 UNL     1      27.126   0.299  53.314  1.00  0.00     0.013 A 
HETATM   18 BR1  UNL     1      28.977   0.035  53.677  1.00  0.00    -0.051 Br
HETATM   19  C12 UNL     1      26.746   1.102  52.266  1.00  0.00     0.048 A 
ENDBRANCH  11  13
ENDBRANCH   5  11
BRANCH   1  20
HETATM   20  O1  UNL     1      28.249   6.916  47.862  1.00  0.00    -0.356 OA
HETATM   21  C1  UNL     1      28.940   8.068  48.268  1.00  0.00     0.210 C 
ENDBRANCH   1  20
TORSDOF 3
ENDMDL
MODEL 7
REMARK VINA RESULT:      -7.2      5.167      7.526
REMARK  3 active torsions:
REMARK  status: ('A' for Active; 'I' for Inactive)
REMARK    1  A    between atoms: O1_2  and  C2_3 
REMARK    2  A    between atoms: C6_7  and  N1_8 
REMARK    3  A    between atoms: N1_8  and  C7_9 
ROOT
HETATM    1  C2  UNL     1      27.025   6.010  48.960  1.00  0.00     0.070 A 
HETATM    2  C3  UNL     1      27.124   4.614  48.927  1.00  0.00     0.038 A 
HETATM    3  C4  UNL     1      26.162   3.845  49.559  1.00  0.00     0.020 A 
HETATM    4  C5  UNL     1      25.090   4.331  50.235  1.00  0.00     0.039 A 
HETATM    5  C6  UNL     1      24.140   3.557  50.860  1.00  0.00     0.142 A 
HETATM    6  N2  UNL     1      23.170   4.246  51.467  1.00  0.00    -0.224 NA
HETATM    7  C13 UNL     1      23.090   5.575  51.490  1.00  0.00     0.236 A 
HETATM    8  N3  UNL     1      24.012   6.335  50.883  1.00  0.00    -0.241 NA
HETATM    9  C14 UNL     1      25.022   5.706  50.249  1.00  0.00     0.074 A 
HETATM   10  C15 UNL     1      25.944   6.518  49.642  1.00  0.00     0.069 A 
ENDROOT
BRANCH   5  11
HETATM   11  N1  UNL     1      24.246   2.156  50.818  1.00  0.00    -0.340 N 
HETATM   12  H6  UNL     1      24.161   1.642  49.940  1.00  0.00     0.167 HD
BRANCH  11  13
HETATM   13  C7  UNL     1      24.473   1.255  51.887  1.00  0.00     0.035 A 
HETATM   14  C8  UNL     1      25.732   0.891  52.303  1.00  0.00     0.029 A 
HETATM   15  C9  UNL     1      26.002   0.030  53.329  1.00  0.00     0.004 A 
HETATM   16  C10 UNL     1      24.954  -0.545  54.035  1.00  0.00     0.019 A 
HETATM   17  C11 UNL     1      23.670  -0.216  53.661  1.00  0.00     0.013 A 
HETATM   18 BR1  UNL     1      22.170  -0.955  54.572  1.00  0.00    -0.051 Br
HETATM   19  C12 UNL     1      23.471   0.657  52.619  1.00  0.00     0.048 A 
ENDBRANCH  11  13
ENDBRANCH   5  11
BRANCH   1  20
HETATM   20  O1  UNL     1      28.012   6.702  48.314  1.00  0.00    -0.356 OA
HETATM   21  C1  UNL     1      29.225   6.190  47.829  1.00  0.00     0.210 C 
ENDBRANCH   1  20
TORSDOF 3
ENDMDL
MODEL 8
REMARK VINA RESULT:      -6.9      4.021      7.022
REMARK  3 active torsions:
REMARK  status: ('A' for Active; 'I' for Inactive)
REMARK    1  A    between atoms: O1_2  and  C2_3 
REMARK    2  A    between atoms: C6_7  and  N1_8 
REMARK    3  A    between atoms: N1_8  and  C7_9 
ROOT
HETATM    1  C2  UNL     1      25.925   3.072  50.675  1.00  0.00     0.070 A 
HETATM    2  C3  UNL     1      24.604   3.438  50.960  1.00  0.00     0.038 A 
HETATM    3  C4  UNL     1      23.827   2.620  51.762  1.00  0.00     0.020 A 
HETATM    4  C5  UNL     1      24.236   1.452  52.321  1.00  0.00     0.039 A 
HETATM    5  C6  UNL     1      23.453   0.647  53.116  1.00  0.00     0.142 A 
HETATM    6  N2  UNL     1      24.060  -0.458  53.559  1.00  0.00    -0.224 NA
HETATM    7  C13 UNL     1      25.318  -0.791  53.279  1.00  0.00     0.236 A 
HETATM    8  N3  UNL     1      26.085  -0.011  52.504  1.00  0.00    -0.241 NA
HETATM    9  C14 UNL     1      25.537   1.122  52.021  1.00  0.00     0.074 A 
HETATM   10  C15 UNL     1      26.354   1.891  51.234  1.00  0.00     0.069 A 
ENDROOT
BRANCH   5  11
HETATM   11  N1  UNL     1      22.129   1.024  53.400  1.00  0.00    -0.340 N 
HETATM   12  H6  UNL     1      21.910   1.657  54.170  1.00  0.00     0.167 HD
BRANCH  11  13
HETATM   13  C7  UNL     1      20.939   0.638  52.736  1.00  0.00     0.035 A 
HETATM   14  C8  UNL     1      20.565   1.151  51.516  1.00  0.00     0.029 A 
HETATM   15  C9  UNL     1      19.431   0.808  50.834  1.00  0.00     0.004 A 
HETATM   16  C10 UNL     1      18.560  -0.126  51.379  1.00  0.00     0.019 A 
HETATM   17  C11 UNL     1      18.885  -0.673  52.601  1.00  0.00     0.013 A 
HETATM   18 BR1  UNL     1      17.752  -1.962  53.425  1.00  0.00    -0.051 Br
HETATM   19  C12 UNL     1      20.042  -0.282  53.231  1.00  0.00     0.048 A 
ENDBRANCH  11  13
ENDBRANCH   5  11
BRANCH   1  20
HETATM   20  O1  UNL     1      26.630   3.929  49.877  1.00  0.00    -0.356 OA
HETATM   21  C1  UNL     1      26.168   5.122  49.300  1.00  0.00     0.210 C 
ENDBRANCH   1  20
TORSDOF 3
ENDMDL
MODEL 9
REMARK VINA RESULT:      -6.7      6.148      8.912
REMARK  3 active torsions:
REMARK  status: ('A' for Active; 'I' for Inactive)
REMARK    1  A    between atoms: O1_2  and  C2_3 
REMARK    2  A    between atoms: C6_7  and  N1_8 
REMARK    3  A    between atoms: N1_8  and  C7_9 
ROOT
HETATM    1  C2  UNL     1      28.866   6.812  47.891  1.00  0.00     0.070 A 
HETATM    2  C3  UNL     1      28.882   5.422  48.054  1.00  0.00     0.038 A 
HETATM    3  C4  UNL     1      27.768   4.780  48.565  1.00  0.00     0.020 A 
HETATM    4  C5  UNL     1      26.614   5.391  48.940  1.00  0.00     0.039 A 
HETATM    5  C6  UNL     1      25.512   4.743  49.448  1.00  0.00     0.142 A 
HETATM    6  N2  UNL     1      24.485   5.542  49.750  1.00  0.00    -0.224 NA
HETATM    7  C13 UNL     1      24.486   6.863  49.589  1.00  0.00     0.236 A 
HETATM    8  N3  UNL     1      25.556   7.501  49.095  1.00  0.00    -0.241 NA
HETATM    9  C14 UNL     1      26.631   6.756  48.767  1.00  0.00     0.074 A 
HETATM   10  C15 UNL     1      27.704   7.446  48.266  1.00  0.00     0.069 A 
ENDROOT
BRANCH   5  11
HETATM   11  N1  UNL     1      25.537   3.346  49.604  1.00  0.00    -0.340 N 
HETATM   12  H6  UNL     1      25.557   2.721  48.798  1.00  0.00     0.167 HD
BRANCH  11  13
HETATM   13  C7  UNL     1      25.539   2.592  50.803  1.00  0.00     0.035 A 
HETATM   14  C8  UNL     1      24.386   2.154  51.412  1.00  0.00     0.029 A 
HETATM   15  C9  UNL     1      24.336   1.422  52.566  1.00  0.00     0.004 A 
HETATM   16  C10 UNL     1      25.517   1.071  53.206  1.00  0.00     0.019 A 
HETATM   17  C11 UNL     1      26.703   1.484  52.640  1.00  0.00     0.013 A 
HETATM   18 BR1  UNL     1      28.372   1.050  53.447  1.00  0.00    -0.051 Br
HETATM   19  C12 UNL     1      26.680   2.218  51.479  1.00  0.00     0.048 A 
ENDBRANCH  11  13
ENDBRANCH   5  11
BRANCH   1  20
HETATM   20  O1  UNL     1      30.003   7.374  47.381  1.00  0.00    -0.356 OA
HETATM   21  C1  UNL     1      30.573   8.605  47.740  1.00  0.00     0.210 C 
ENDBRANCH   1  20
TORSDOF 3
ENDMDL
