MODEL 1
REMARK VINA RESULT:      -7.7      0.000      0.000
REMARK  5 active torsions:
REMARK  status: ('A' for Active; 'I' for Inactive)
REMARK    1  A    between atoms: C7_7  and  N1_8 
REMARK    2  A    between atoms: N1_8  and  C8_9 
REMARK    3  A    between atoms: C15_19  and  O2_20 
REMARK    4  A    between atoms: O2_20  and  C16_21 
REMARK    5  A    between atoms: C16_21  and  C17_22 
ROOT
HETATM    1  C1  UNL     1      26.198  -0.792  53.388  1.00  0.00     0.018 C 
HETATM    2  C2  UNL     1      25.004  -0.741  53.526  1.00  0.00    -0.078 C 
HETATM    3  C3  UNL     1      23.563  -0.660  53.708  1.00  0.00     0.019 A 
HETATM    4  C4  UNL     1      22.915  -0.931  54.892  1.00  0.00     0.021 A 
HETATM    5  C5  UNL     1      21.525  -0.828  54.958  1.00  0.00     0.004 A 
HETATM    6  C6  UNL     1      20.778  -0.459  53.861  1.00  0.00     0.029 A 
HETATM    7  C7  UNL     1      21.428  -0.190  52.685  1.00  0.00     0.035 A 
HETATM    8  C22 UNL     1      22.821  -0.283  52.584  1.00  0.00     0.050 A 
ENDROOT
BRANCH   7   9
HETATM    9  N1  UNL     1      20.784   0.217  51.449  1.00  0.00    -0.340 N 
HETATM   10  H5  UNL     1      20.219  -0.233  50.705  1.00  0.00     0.167 HD
BRANCH   9  11
HETATM   11  C8  UNL     1      21.145   1.574  51.526  1.00  0.00     0.140 C 
HETATM   12  N2  UNL     1      21.158   2.820  52.096  1.00  0.00    -0.215 NA
HETATM   13  C9  UNL     1      22.494   3.378  52.013  1.00  0.00     0.130 C 
HETATM   14  N3  UNL     1      23.676   2.939  51.545  1.00  0.00    -0.260 NA
HETATM   15  C21 UNL     1      22.894   4.788  51.982  1.00  0.00     0.145 C 
HETATM   16  C10 UNL     1      23.348   2.634  50.123  1.00  0.00     0.182 C 
HETATM   17  C11 UNL     1      21.958   1.945  50.252  1.00  0.00     0.039 C 
HETATM   18  C14 UNL     1      22.999   3.961  49.561  1.00  0.00     0.003 C 
HETATM   19  C12 UNL     1      21.563   1.643  48.978  1.00  0.00     0.148 C 
HETATM   20  O1  UNL     1      22.516   2.137  48.005  1.00  0.00    -0.358 OA
HETATM   21  C13 UNL     1      22.763   3.577  48.148  1.00  0.00     0.214 C 
HETATM   22  C15 UNL     1      22.994   5.037  50.426  1.00  0.00     0.060 C 
BRANCH  22  23
HETATM   23  O2  UNL     1      23.090   6.088  49.484  1.00  0.00    -0.352 OA
BRANCH  23  24
HETATM   24  C16 UNL     1      23.910   7.165  49.887  1.00  0.00     0.207 C 
BRANCH  24  25
HETATM   25  C17 UNL     1      25.346   6.735  50.084  1.00  0.00     0.145 C 
HETATM   26  C18 UNL     1      25.920   6.153  48.812  1.00  0.00     0.036 C 
HETATM   27  C19 UNL     1      26.980   7.124  48.354  1.00  0.00     0.029 C 
HETATM   28  C20 UNL     1      26.843   8.249  49.352  1.00  0.00     0.168 C 
HETATM   29  O3  UNL     1      26.200   7.741  50.453  1.00  0.00    -0.384 OA
ENDBRANCH  24  25
ENDBRANCH  23  24
ENDBRANCH  22  23
ENDBRANCH   9  11
ENDBRANCH   7   9
TORSDOF 5
ENDMDL
MODEL 2
REMARK VINA RESULT:      -7.7      2.610      7.774
REMARK  5 active torsions:
REMARK  status: ('A' for Active; 'I' for Inactive)
REMARK    1  A    between atoms: C7_7  and  N1_8 
REMARK    2  A    between atoms: N1_8  and  C8_9 
REMARK    3  A    between atoms: C15_19  and  O2_20 
REMARK    4  A    between atoms: O2_20  and  C16_21 
REMARK    5  A    between atoms: C16_21  and  C17_22 
ROOT
HETATM    1  C1  UNL     1      28.654   6.364  47.927  1.00  0.00     0.018 C 
HETATM    2  C2  UNL     1      27.622   6.809  48.355  1.00  0.00    -0.078 C 
HETATM    3  C3  UNL     1      26.362   7.336  48.854  1.00  0.00     0.019 A 
HETATM    4  C4  UNL     1      25.623   8.309  48.219  1.00  0.00     0.021 A 
HETATM    5  C5  UNL     1      24.427   8.750  48.788  1.00  0.00     0.004 A 
HETATM    6  C6  UNL     1      23.962   8.231  49.978  1.00  0.00     0.029 A 
HETATM    7  C7  UNL     1      24.701   7.263  50.604  1.00  0.00     0.035 A 
HETATM    8  C22 UNL     1      25.905   6.798  50.062  1.00  0.00     0.050 A 
ENDROOT
BRANCH   7   9
HETATM    9  N1  UNL     1      24.342   6.616  51.854  1.00  0.00    -0.340 N 
HETATM   10  H5  UNL     1      24.527   6.764  52.864  1.00  0.00     0.167 HD
BRANCH   9  11
HETATM   11  C8  UNL     1      23.545   5.608  51.283  1.00  0.00     0.140 C 
HETATM   12  N2  UNL     1      22.531   5.130  50.495  1.00  0.00    -0.215 NA
HETATM   13  C9  UNL     1      22.987   3.954  49.778  1.00  0.00     0.130 C 
HETATM   14  N3  UNL     1      24.150   3.283  49.702  1.00  0.00    -0.260 NA
HETATM   15  C21 UNL     1      22.192   2.834  49.266  1.00  0.00     0.145 C 
HETATM   16  C10 UNL     1      24.389   2.923  51.129  1.00  0.00     0.182 C 
HETATM   17  C11 UNL     1      23.990   4.235  51.866  1.00  0.00     0.039 C 
HETATM   18  C14 UNL     1      23.258   2.018  51.447  1.00  0.00     0.003 C 
HETATM   19  C12 UNL     1      24.161   3.990  53.200  1.00  0.00     0.148 C 
HETATM   20  O1  UNL     1      24.557   2.615  53.432  1.00  0.00    -0.358 OA
HETATM   21  C13 UNL     1      23.614   1.657  52.841  1.00  0.00     0.214 C 
HETATM   22  C15 UNL     1      22.313   1.810  50.462  1.00  0.00     0.060 C 
BRANCH  22  23
HETATM   23  O2  UNL     1      21.735   0.614  50.949  1.00  0.00    -0.352 OA
BRANCH  23  24
HETATM   24  C16 UNL     1      20.399   0.399  50.542  1.00  0.00     0.207 C 
BRANCH  24  25
HETATM   25  C17 UNL     1      19.414   0.758  51.630  1.00  0.00     0.145 C 
HETATM   26  C18 UNL     1      18.205  -0.150  51.592  1.00  0.00     0.036 C 
HETATM   27  C19 UNL     1      18.268  -0.976  52.852  1.00  0.00     0.029 C 
HETATM   28  C20 UNL     1      19.583  -0.548  53.457  1.00  0.00     0.168 C 
HETATM   29  O3  UNL     1      19.908   0.665  52.905  1.00  0.00    -0.384 OA
ENDBRANCH  24  25
ENDBRANCH  23  24
ENDBRANCH  22  23
ENDBRANCH   9  11
ENDBRANCH   7   9
TORSDOF 5
ENDMDL
MODEL 3
REMARK VINA RESULT:      -7.6      3.285      6.907
REMARK  5 active torsions:
REMARK  status: ('A' for Active; 'I' for Inactive)
REMARK    1  A    between atoms: C7_7  and  N1_8 
REMARK    2  A    between atoms: N1_8  and  C8_9 
REMARK    3  A    between atoms: C15_19  and  O2_20 
REMARK    4  A    between atoms: O2_20  and  C16_21 
REMARK    5  A    between atoms: C16_21  and  C17_22 
ROOT
HETATM    1  C1  UNL     1      22.171   5.625  45.426  1.00  0.00     0.018 C 
HETATM    2  C2  UNL     1      22.053   5.565  46.622  1.00  0.00    -0.078 C 
HETATM    3  C3  UNL     1      21.891   5.506  48.066  1.00  0.00     0.019 A 
HETATM    4  C4  UNL     1      22.099   6.573  48.912  1.00  0.00     0.021 A 
HETATM    5  C5  UNL     1      21.921   6.408  50.287  1.00  0.00     0.004 A 
HETATM    6  C6  UNL     1      21.538   5.197  50.823  1.00  0.00     0.029 A 
HETATM    7  C7  UNL     1      21.333   4.141  49.976  1.00  0.00     0.035 A 
HETATM    8  C22 UNL     1      21.502   4.271  48.592  1.00  0.00     0.050 A 
ENDROOT
BRANCH   7   9
HETATM    9  N1  UNL     1      20.921   2.810  50.385  1.00  0.00    -0.340 N 
HETATM   10  H5  UNL     1      20.030   2.286  50.474  1.00  0.00     0.167 HD
BRANCH   9  11
HETATM   11  C8  UNL     1      22.213   2.322  50.649  1.00  0.00     0.140 C 
HETATM   12  N2  UNL     1      23.558   2.192  50.418  1.00  0.00    -0.215 NA
HETATM   13  C9  UNL     1      24.275   2.247  51.677  1.00  0.00     0.130 C 
HETATM   14  N3  UNL     1      23.919   2.423  52.962  1.00  0.00    -0.260 NA
HETATM   15  C21 UNL     1      25.573   1.657  52.014  1.00  0.00     0.145 C 
HETATM   16  C10 UNL     1      22.958   1.302  53.169  1.00  0.00     0.182 C 
HETATM   17  C11 UNL     1      22.136   1.332  51.848  1.00  0.00     0.039 C 
HETATM   18  C14 UNL     1      23.800   0.094  52.997  1.00  0.00     0.003 C 
HETATM   19  C12 UNL     1      21.229   0.314  51.940  1.00  0.00     0.148 C 
HETATM   20  O1  UNL     1      21.420  -0.447  53.159  1.00  0.00    -0.358 OA
HETATM   21  C13 UNL     1      22.792  -0.953  53.290  1.00  0.00     0.214 C 
HETATM   22  C15 UNL     1      25.122   0.284  52.650  1.00  0.00     0.060 C 
BRANCH  22  23
HETATM   23  O2  UNL     1      25.644  -0.973  53.038  1.00  0.00    -0.352 OA
BRANCH  23  24
HETATM   24  C16 UNL     1      26.981  -1.202  52.642  1.00  0.00     0.207 C 
BRANCH  24  25
HETATM   25  C17 UNL     1      27.941  -1.067  53.801  1.00  0.00     0.145 C 
HETATM   26  C18 UNL     1      29.374  -1.215  53.342  1.00  0.00     0.036 C 
HETATM   27  C19 UNL     1      30.011   0.140  53.530  1.00  0.00     0.029 C 
HETATM   28  C20 UNL     1      28.846   0.987  53.980  1.00  0.00     0.168 C 
HETATM   29  O3  UNL     1      27.883   0.135  54.457  1.00  0.00    -0.384 OA
ENDBRANCH  24  25
ENDBRANCH  23  24
ENDBRANCH  22  23
ENDBRANCH   9  11
ENDBRANCH   7   9
TORSDOF 5
ENDMDL
MODEL 4
REMARK VINA RESULT:      -7.6      8.320     10.992
REMARK  5 active torsions:
REMARK  status: ('A' for Active; 'I' for Inactive)
REMARK    1  A    between atoms: C7_7  and  N1_8 
REMARK    2  A    between atoms: N1_8  and  C8_9 
REMARK    3  A    between atoms: C15_19  and  O2_20 
REMARK    4  A    between atoms: O2_20  and  C16_21 
REMARK    5  A    between atoms: C16_21  and  C17_22 
ROOT
HETATM    1  C1  UNL     1      33.893   5.197  42.230  1.00  0.00     0.018 C 
HETATM    2  C2  UNL     1      33.935   4.796  43.363  1.00  0.00    -0.078 C 
HETATM    3  C3  UNL     1      34.000   4.330  44.740  1.00  0.00     0.019 A 
HETATM    4  C4  UNL     1      35.132   3.810  45.328  1.00  0.00     0.021 A 
HETATM    5  C5  UNL     1      35.085   3.385  46.657  1.00  0.00     0.004 A 
HETATM    6  C6  UNL     1      33.929   3.475  47.401  1.00  0.00     0.029 A 
HETATM    7  C7  UNL     1      32.808   3.994  46.810  1.00  0.00     0.035 A 
HETATM    8  C22 UNL     1      32.818   4.429  45.480  1.00  0.00     0.050 A 
ENDROOT
BRANCH   7   9
HETATM    9  N1  UNL     1      31.521   4.161  47.463  1.00  0.00    -0.340 N 
HETATM   10  H5  UNL     1      30.681   3.579  47.641  1.00  0.00     0.167 HD
BRANCH   9  11
HETATM   11  C8  UNL     1      31.727   5.489  47.876  1.00  0.00     0.140 C 
HETATM   12  N2  UNL     1      32.467   6.528  48.376  1.00  0.00    -0.215 NA
HETATM   13  C9  UNL     1      32.181   7.735  47.624  1.00  0.00     0.130 C 
HETATM   14  N3  UNL     1      31.401   8.029  46.568  1.00  0.00    -0.260 NA
HETATM   15  C21 UNL     1      32.282   9.129  48.063  1.00  0.00     0.145 C 
HETATM   16  C10 UNL     1      30.057   7.604  47.052  1.00  0.00     0.182 C 
HETATM   17  C11 UNL     1      30.379   6.259  47.765  1.00  0.00     0.039 C 
HETATM   18  C14 UNL     1      29.799   8.518  48.190  1.00  0.00     0.003 C 
HETATM   19  C12 UNL     1      29.193   5.798  48.264  1.00  0.00     0.148 C 
HETATM   20  O1  UNL     1      28.122   6.746  48.025  1.00  0.00    -0.358 OA
HETATM   21  C13 UNL     1      28.431   8.079  48.556  1.00  0.00     0.214 C 
HETATM   22  C15 UNL     1      30.801   9.404  48.535  1.00  0.00     0.060 C 
BRANCH  22  23
HETATM   23  O2  UNL     1      30.037  10.339  49.272  1.00  0.00    -0.352 OA
BRANCH  23  24
HETATM   24  C16 UNL     1      30.173  11.678  48.843  1.00  0.00     0.207 C 
BRANCH  24  25
HETATM   25  C17 UNL     1      28.911  12.475  49.077  1.00  0.00     0.145 C 
HETATM   26  C18 UNL     1      28.624  13.395  47.911  1.00  0.00     0.036 C 
HETATM   27  C19 UNL     1      27.367  12.866  47.265  1.00  0.00     0.029 C 
HETATM   28  C20 UNL     1      27.101  11.607  48.055  1.00  0.00     0.168 C 
HETATM   29  O3  UNL     1      27.779  11.722  49.243  1.00  0.00    -0.384 OA
ENDBRANCH  24  25
ENDBRANCH  23  24
ENDBRANCH  22  23
ENDBRANCH   9  11
ENDBRANCH   7   9
TORSDOF 5
ENDMDL
MODEL 5
REMARK VINA RESULT:      -7.5      2.659      4.921
REMARK  5 active torsions:
REMARK  status: ('A' for Active; 'I' for Inactive)
REMARK    1  A    between atoms: C7_7  and  N1_8 
REMARK    2  A    between atoms: N1_8  and  C8_9 
REMARK    3  A    between atoms: C15_19  and  O2_20 
REMARK    4  A    between atoms: O2_20  and  C16_21 
REMARK    5  A    between atoms: C16_21  and  C17_22 
ROOT
HETATM    1  C1  UNL     1      29.001  -0.691  53.458  1.00  0.00     0.018 C 
HETATM    2  C2  UNL     1      27.863  -0.316  53.358  1.00  0.00    -0.078 C 
HETATM    3  C3  UNL     1      26.483   0.134  53.261  1.00  0.00     0.019 A 
HETATM    4  C4  UNL     1      25.388  -0.692  53.391  1.00  0.00     0.021 A 
HETATM    5  C5  UNL     1      24.103  -0.158  53.274  1.00  0.00     0.004 A 
HETATM    6  C6  UNL     1      23.901   1.183  53.032  1.00  0.00     0.029 A 
HETATM    7  C7  UNL     1      24.994   1.999  52.905  1.00  0.00     0.035 A 
HETATM    8  C22 UNL     1      26.296   1.497  53.016  1.00  0.00     0.050 A 
ENDROOT
BRANCH   7   9
HETATM    9  N1  UNL     1      24.944   3.429  52.657  1.00  0.00    -0.340 N 
HETATM   10  H5  UNL     1      25.151   4.297  53.186  1.00  0.00     0.167 HD
BRANCH   9  11
HETATM   11  C8  UNL     1      24.506   3.341  51.324  1.00  0.00     0.140 C 
HETATM   12  N2  UNL     1      24.569   2.902  50.027  1.00  0.00    -0.215 NA
HETATM   13  C9  UNL     1      23.237   2.563  49.563  1.00  0.00     0.130 C 
HETATM   14  N3  UNL     1      22.013   2.559  50.121  1.00  0.00    -0.260 NA
HETATM   15  C21 UNL     1      22.721   2.567  48.192  1.00  0.00     0.145 C 
HETATM   16  C10 UNL     1      21.870   3.978  50.555  1.00  0.00     0.182 C 
HETATM   17  C11 UNL     1      23.280   4.282  51.141  1.00  0.00     0.039 C 
HETATM   18  C14 UNL     1      21.883   4.729  49.277  1.00  0.00     0.003 C 
HETATM   19  C12 UNL     1      23.248   5.585  51.553  1.00  0.00     0.148 C 
HETATM   20  O1  UNL     1      21.981   6.206  51.224  1.00  0.00    -0.358 OA
HETATM   21  C13 UNL     1      21.664   6.101  49.794  1.00  0.00     0.214 C 
HETATM   22  C15 UNL     1      22.079   4.007  48.116  1.00  0.00     0.060 C 
BRANCH  22  23
HETATM   23  O2  UNL     1      21.574   4.939  47.179  1.00  0.00    -0.352 OA
BRANCH  23  24
HETATM   24  C16 UNL     1      21.912   4.663  45.836  1.00  0.00     0.207 C 
BRANCH  24  25
HETATM   25  C17 UNL     1      20.825   3.885  45.131  1.00  0.00     0.145 C 
HETATM   26  C18 UNL     1      19.519   4.649  45.132  1.00  0.00     0.036 C 
HETATM   27  C19 UNL     1      19.255   5.019  43.693  1.00  0.00     0.029 C 
HETATM   28  C20 UNL     1      20.501   4.529  42.997  1.00  0.00     0.168 C 
HETATM   29  O3  UNL     1      21.086   3.596  43.817  1.00  0.00    -0.384 OA
ENDBRANCH  24  25
ENDBRANCH  23  24
ENDBRANCH  22  23
ENDBRANCH   9  11
ENDBRANCH   7   9
TORSDOF 5
ENDMDL
MODEL 6
REMARK VINA RESULT:      -7.4      2.520      4.728
REMARK  5 active torsions:
REMARK  status: ('A' for Active; 'I' for Inactive)
REMARK    1  A    between atoms: C7_7  and  N1_8 
REMARK    2  A    between atoms: N1_8  and  C8_9 
REMARK    3  A    between atoms: C15_19  and  O2_20 
REMARK    4  A    between atoms: O2_20  and  C16_21 
REMARK    5  A    between atoms: C16_21  and  C17_22 
ROOT
HETATM    1  C1  UNL     1      22.566  -1.259  54.829  1.00  0.00     0.018 C 
HETATM    2  C2  UNL     1      23.461  -0.744  54.214  1.00  0.00    -0.078 C 
HETATM    3  C3  UNL     1      24.539  -0.134  53.451  1.00  0.00     0.019 A 
HETATM    4  C4  UNL     1      25.689  -0.792  53.073  1.00  0.00     0.021 A 
HETATM    5  C5  UNL     1      26.666  -0.111  52.345  1.00  0.00     0.004 A 
HETATM    6  C6  UNL     1      26.508   1.212  51.990  1.00  0.00     0.029 A 
HETATM    7  C7  UNL     1      25.362   1.860  52.368  1.00  0.00     0.035 A 
HETATM    8  C22 UNL     1      24.362   1.208  53.099  1.00  0.00     0.050 A 
ENDROOT
BRANCH   7   9
HETATM    9  N1  UNL     1      25.047   3.244  52.065  1.00  0.00    -0.340 N 
HETATM   10  H5  UNL     1      25.345   4.180  52.399  1.00  0.00     0.167 HD
BRANCH   9  11
HETATM   11  C8  UNL     1      24.122   2.972  51.041  1.00  0.00     0.140 C 
HETATM   12  N2  UNL     1      23.689   2.356  49.897  1.00  0.00    -0.215 NA
HETATM   13  C9  UNL     1      22.302   1.963  50.051  1.00  0.00     0.130 C 
HETATM   14  N3  UNL     1      21.400   2.044  51.046  1.00  0.00    -0.260 NA
HETATM   15  C21 UNL     1      21.286   1.777  49.011  1.00  0.00     0.145 C 
HETATM   16  C10 UNL     1      21.369   3.511  51.311  1.00  0.00     0.182 C 
HETATM   17  C11 UNL     1      22.878   3.886  51.241  1.00  0.00     0.039 C 
HETATM   18  C14 UNL     1      20.837   4.076  50.047  1.00  0.00     0.003 C 
HETATM   19  C12 UNL     1      22.946   5.234  51.456  1.00  0.00     0.148 C 
HETATM   20  O1  UNL     1      21.622   5.811  51.582  1.00  0.00    -0.358 OA
HETATM   21  C13 UNL     1      20.771   5.508  50.425  1.00  0.00     0.214 C 
HETATM   22  C15 UNL     1      20.595   3.197  49.010  1.00  0.00     0.060 C 
BRANCH  22  23
HETATM   23  O2  UNL     1      19.713   3.991  48.240  1.00  0.00    -0.352 OA
BRANCH  23  24
HETATM   24  C16 UNL     1      19.303   3.402  47.023  1.00  0.00     0.207 C 
BRANCH  24  25
HETATM   25  C17 UNL     1      19.733   4.222  45.828  1.00  0.00     0.145 C 
HETATM   26  C18 UNL     1      20.382   5.518  46.261  1.00  0.00     0.036 C 
HETATM   27  C19 UNL     1      21.832   5.409  45.859  1.00  0.00     0.029 C 
HETATM   28  C20 UNL     1      21.916   3.999  45.326  1.00  0.00     0.168 C 
HETATM   29  O3  UNL     1      20.640   3.608  45.006  1.00  0.00    -0.384 OA
ENDBRANCH  24  25
ENDBRANCH  23  24
ENDBRANCH  22  23
ENDBRANCH   9  11
ENDBRANCH   7   9
TORSDOF 5
ENDMDL
MODEL 7
REMARK VINA RESULT:      -7.4      3.067      6.666
REMARK  5 active torsions:
REMARK  status: ('A' for Active; 'I' for Inactive)
REMARK    1  A    between atoms: C7_7  and  N1_8 
REMARK    2  A    between atoms: N1_8  and  C8_9 
REMARK    3  A    between atoms: C15_19  and  O2_20 
REMARK    4  A    between atoms: O2_20  and  C16_21 
REMARK    5  A    between atoms: C16_21  and  C17_22 
ROOT
HETATM    1  C1  UNL     1      21.124   4.601  45.722  1.00  0.00     0.018 C 
HETATM    2  C2  UNL     1      20.954   4.639  46.912  1.00  0.00    -0.078 C 
HETATM    3  C3  UNL     1      20.755   4.663  48.353  1.00  0.00     0.019 A 
HETATM    4  C4  UNL     1      19.706   4.047  48.999  1.00  0.00     0.021 A 
HETATM    5  C5  UNL     1      19.604   4.136  50.389  1.00  0.00     0.004 A 
HETATM    6  C6  UNL     1      20.533   4.827  51.136  1.00  0.00     0.029 A 
HETATM    7  C7  UNL     1      21.574   5.436  50.487  1.00  0.00     0.035 A 
HETATM    8  C22 UNL     1      21.707   5.367  49.096  1.00  0.00     0.050 A 
ENDROOT
BRANCH   7   9
HETATM    9  N1  UNL     1      22.633   6.191  51.133  1.00  0.00    -0.340 N 
HETATM   10  H5  UNL     1      22.945   7.180  51.170  1.00  0.00     0.167 HD
BRANCH   9  11
HETATM   11  C8  UNL     1      23.205   5.103  51.817  1.00  0.00     0.140 C 
HETATM   12  N2  UNL     1      23.396   4.285  52.899  1.00  0.00    -0.215 NA
HETATM   13  C9  UNL     1      23.447   2.903  52.461  1.00  0.00     0.130 C 
HETATM   14  N3  UNL     1      23.320   2.281  51.275  1.00  0.00    -0.260 NA
HETATM   15  C21 UNL     1      24.126   1.770  53.095  1.00  0.00     0.145 C 
HETATM   16  C10 UNL     1      24.395   2.931  50.472  1.00  0.00     0.182 C 
HETATM   17  C11 UNL     1      24.250   4.425  50.885  1.00  0.00     0.039 C 
HETATM   18  C14 UNL     1      25.638   2.523  51.170  1.00  0.00     0.003 C 
HETATM   19  C12 UNL     1      25.221   5.104  50.203  1.00  0.00     0.148 C 
HETATM   20  O1  UNL     1      26.054   4.197  49.437  1.00  0.00    -0.358 OA
HETATM   21  C13 UNL     1      26.641   3.143  50.273  1.00  0.00     0.214 C 
HETATM   22  C15 UNL     1      25.503   1.774  52.323  1.00  0.00     0.060 C 
BRANCH  22  23
HETATM   23  O2  UNL     1      26.805   1.226  52.393  1.00  0.00    -0.352 OA
BRANCH  23  24
HETATM   24  C16 UNL     1      26.877  -0.156  52.108  1.00  0.00     0.207 C 
BRANCH  24  25
HETATM   25  C17 UNL     1      27.362  -0.951  53.298  1.00  0.00     0.145 C 
HETATM   26  C18 UNL     1      28.717  -1.567  53.026  1.00  0.00     0.036 C 
HETATM   27  C19 UNL     1      29.682  -0.868  53.951  1.00  0.00     0.029 C 
HETATM   28  C20 UNL     1      28.810   0.178  54.601  1.00  0.00     0.168 C 
HETATM   29  O3  UNL     1      27.507  -0.227  54.451  1.00  0.00    -0.384 OA
ENDBRANCH  24  25
ENDBRANCH  23  24
ENDBRANCH  22  23
ENDBRANCH   9  11
ENDBRANCH   7   9
TORSDOF 5
ENDMDL
MODEL 8
REMARK VINA RESULT:      -7.3     10.011     11.670
REMARK  5 active torsions:
REMARK  status: ('A' for Active; 'I' for Inactive)
REMARK    1  A    between atoms: C7_7  and  N1_8 
REMARK    2  A    between atoms: N1_8  and  C8_9 
REMARK    3  A    between atoms: C15_19  and  O2_20 
REMARK    4  A    between atoms: O2_20  and  C16_21 
REMARK    5  A    between atoms: C16_21  and  C17_22 
ROOT
HETATM    1  C1  UNL     1      31.894   0.348  46.669  1.00  0.00     0.018 C 
HETATM    2  C2  UNL     1      32.497   1.378  46.810  1.00  0.00    -0.078 C 
HETATM    3  C3  UNL     1      33.247   2.614  46.974  1.00  0.00     0.019 A 
HETATM    4  C4  UNL     1      34.168   2.834  47.974  1.00  0.00     0.021 A 
HETATM    5  C5  UNL     1      34.830   4.061  48.045  1.00  0.00     0.004 A 
HETATM    6  C6  UNL     1      34.586   5.064  47.133  1.00  0.00     0.029 A 
HETATM    7  C7  UNL     1      33.669   4.839  46.140  1.00  0.00     0.035 A 
HETATM    8  C22 UNL     1      32.987   3.621  46.039  1.00  0.00     0.050 A 
ENDROOT
BRANCH   7   9
HETATM    9  N1  UNL     1      33.309   5.790  45.104  1.00  0.00    -0.340 N 
HETATM   10  H5  UNL     1      33.514   5.927  44.096  1.00  0.00     0.167 HD
BRANCH   9  11
HETATM   11  C8  UNL     1      32.475   6.587  45.908  1.00  0.00     0.140 C 
HETATM   12  N2  UNL     1      31.366   6.836  46.674  1.00  0.00    -0.215 NA
HETATM   13  C9  UNL     1      31.748   7.601  47.846  1.00  0.00     0.130 C 
HETATM   14  N3  UNL     1      32.911   8.068  48.334  1.00  0.00    -0.260 NA
HETATM   15  C21 UNL     1      30.930   8.522  48.640  1.00  0.00     0.145 C 
HETATM   16  C10 UNL     1      33.398   8.912  47.205  1.00  0.00     0.182 C 
HETATM   17  C11 UNL     1      33.069   8.024  45.970  1.00  0.00     0.039 C 
HETATM   18  C14 UNL     1      32.376   9.983  47.113  1.00  0.00     0.003 C 
HETATM   19  C12 UNL     1      33.469   8.734  44.873  1.00  0.00     0.148 C 
HETATM   20  O1  UNL     1      33.958  10.046  45.249  1.00  0.00    -0.358 OA
HETATM   21  C13 UNL     1      32.973  10.803  46.032  1.00  0.00     0.214 C 
HETATM   22  C15 UNL     1      31.292   9.902  47.964  1.00  0.00     0.060 C 
BRANCH  22  23
HETATM   23  O2  UNL     1      30.855  11.246  47.906  1.00  0.00    -0.352 OA
BRANCH  23  24
HETATM   24  C16 UNL     1      30.385  11.765  49.133  1.00  0.00     0.207 C 
BRANCH  24  25
HETATM   25  C17 UNL     1      29.583  13.031  48.938  1.00  0.00     0.145 C 
HETATM   26  C18 UNL     1      29.495  13.401  47.474  1.00  0.00     0.036 C 
HETATM   27  C19 UNL     1      28.047  13.225  47.089  1.00  0.00     0.029 C 
HETATM   28  C20 UNL     1      27.442  12.656  48.350  1.00  0.00     0.168 C 
HETATM   29  O3  UNL     1      28.290  12.966  49.384  1.00  0.00    -0.384 OA
ENDBRANCH  24  25
ENDBRANCH  23  24
ENDBRANCH  22  23
ENDBRANCH   9  11
ENDBRANCH   7   9
TORSDOF 5
ENDMDL
MODEL 9
REMARK VINA RESULT:      -7.3      3.305      7.232
REMARK  5 active torsions:
REMARK  status: ('A' for Active; 'I' for Inactive)
REMARK    1  A    between atoms: C7_7  and  N1_8 
REMARK    2  A    between atoms: N1_8  and  C8_9 
REMARK    3  A    between atoms: C15_19  and  O2_20 
REMARK    4  A    between atoms: O2_20  and  C16_21 
REMARK    5  A    between atoms: C16_21  and  C17_22 
ROOT
HETATM    1  C1  UNL     1      21.139   8.525  47.022  1.00  0.00     0.018 C 
HETATM    2  C2  UNL     1      21.284   7.339  46.887  1.00  0.00    -0.078 C 
HETATM    3  C3  UNL     1      21.483   5.908  46.718  1.00  0.00     0.019 A 
HETATM    4  C4  UNL     1      21.745   5.300  45.510  1.00  0.00     0.021 A 
HETATM    5  C5  UNL     1      21.914   3.915  45.457  1.00  0.00     0.004 A 
HETATM    6  C6  UNL     1      21.828   3.136  46.590  1.00  0.00     0.029 A 
HETATM    7  C7  UNL     1      21.568   3.747  47.788  1.00  0.00     0.035 A 
HETATM    8  C22 UNL     1      21.393   5.133  47.878  1.00  0.00     0.050 A 
ENDROOT
BRANCH   7   9
HETATM    9  N1  UNL     1      21.456   3.066  49.066  1.00  0.00    -0.340 N 
HETATM   10  H5  UNL     1      20.691   2.712  49.671  1.00  0.00     0.167 HD
BRANCH   9  11
HETATM   11  C8  UNL     1      22.837   2.966  49.311  1.00  0.00     0.140 C 
HETATM   12  N2  UNL     1      24.163   3.092  48.989  1.00  0.00    -0.215 NA
HETATM   13  C9  UNL     1      24.892   3.619  50.126  1.00  0.00     0.130 C 
HETATM   14  N3  UNL     1      24.552   4.022  51.364  1.00  0.00    -0.260 NA
HETATM   15  C21 UNL     1      26.306   3.441  50.465  1.00  0.00     0.145 C 
HETATM   16  C10 UNL     1      23.901   2.800  51.916  1.00  0.00     0.182 C 
HETATM   17  C11 UNL     1      23.047   2.313  50.708  1.00  0.00     0.039 C 
HETATM   18  C14 UNL     1      25.004   1.810  51.949  1.00  0.00     0.003 C 
HETATM   19  C12 UNL     1      22.420   1.171  51.120  1.00  0.00     0.148 C 
HETATM   20  O1  UNL     1      22.836   0.800  52.459  1.00  0.00    -0.358 OA
HETATM   21  C13 UNL     1      24.294   0.668  52.572  1.00  0.00     0.214 C 
HETATM   22  C15 UNL     1      26.227   2.204  51.442  1.00  0.00     0.060 C 
BRANCH  22  23
HETATM   23  O2  UNL     1      27.053   1.235  52.059  1.00  0.00    -0.352 OA
BRANCH  23  24
HETATM   24  C16 UNL     1      27.646   1.654  53.271  1.00  0.00     0.207 C 
BRANCH  24  25
HETATM   25  C17 UNL     1      27.992   0.484  54.162  1.00  0.00     0.145 C 
HETATM   26  C18 UNL     1      27.661  -0.830  53.490  1.00  0.00     0.036 C 
HETATM   27  C19 UNL     1      28.983  -1.506  53.227  1.00  0.00     0.029 C 
HETATM   28  C20 UNL     1      29.977  -0.460  53.672  1.00  0.00     0.168 C 
HETATM   29  O3  UNL     1      29.314   0.400  54.511  1.00  0.00    -0.384 OA
ENDBRANCH  24  25
ENDBRANCH  23  24
ENDBRANCH  22  23
ENDBRANCH   9  11
ENDBRANCH   7   9
TORSDOF 5
ENDMDL
