MODEL 1
REMARK VINA RESULT:      -7.3      0.000      0.000
REMARK  5 active torsions:
REMARK  status: ('A' for Active; 'I' for Inactive)
REMARK    1  A    between atoms: N1_2  and  C2_3 
REMARK    2  A    between atoms: C7_9  and  C8_10 
REMARK    3  A    between atoms: N2_11  and  N3_12 
REMARK    4  A    between atoms: N3_12  and  C10_14 
REMARK    5  A    between atoms: C15_19  and  N4_20 
ROOT
HETATM    1  C8  UNL     1      25.486   2.564  51.138  1.00  0.00     0.152 C 
HETATM    2  N2  UNL     1      26.385   2.137  51.947  1.00  0.00    -0.184 NA
ENDROOT
BRANCH   2   3
HETATM    3  N3  UNL     1      26.237   1.040  52.776  1.00  0.00    -0.272 N 
HETATM    4  C9  UNL     1      24.970   0.719  53.351  1.00  0.00     0.180 C 
BRANCH   3   5
HETATM    5  C10 UNL     1      27.377   0.233  53.049  1.00  0.00     0.078 A 
HETATM    6  C11 UNL     1      27.576  -1.098  52.782  1.00  0.00     0.033 A 
HETATM    7  C12 UNL     1      28.774  -1.685  53.138  1.00  0.00     0.002 A 
HETATM    8  C13 UNL     1      29.765  -0.950  53.756  1.00  0.00     0.002 A 
HETATM    9  C14 UNL     1      29.587   0.385  54.033  1.00  0.00     0.031 A 
HETATM   10  C15 UNL     1      28.381   0.978  53.675  1.00  0.00     0.054 A 
BRANCH  10  11
HETATM   11  N4  UNL     1      28.313   2.367  54.013  1.00  0.00    -0.397 N 
HETATM   12  H14 UNL     1      29.059   3.059  54.195  1.00  0.00     0.156 HD
HETATM   13  H15 UNL     1      27.268   2.526  54.033  1.00  0.00     0.156 HD
ENDBRANCH  10  11
ENDBRANCH   3   5
ENDBRANCH   2   3
BRANCH   1  14
HETATM   14  C7  UNL     1      25.632   3.719  50.259  1.00  0.00     0.013 A 
HETATM   15  C2  UNL     1      24.522   4.477  49.981  1.00  0.00     0.067 A 
HETATM   16  C3  UNL     1      24.543   5.592  49.161  1.00  0.00     0.034 A 
HETATM   17  C4  UNL     1      25.749   5.977  48.580  1.00  0.00     0.026 A 
HETATM   18  C5  UNL     1      26.865   5.202  48.869  1.00  0.00     0.035 A 
HETATM   19 CL1  UNL     1      28.398   5.671  48.145  1.00  0.00    -0.084 Cl
HETATM   20  C6  UNL     1      26.829   4.093  49.688  1.00  0.00     0.039 A 
BRANCH  15  21
HETATM   21  N1  UNL     1      23.261   4.128  50.549  1.00  0.00    -0.271 NA
HETATM   22  C1  UNL     1      22.596   5.021  51.187  1.00  0.00     0.149 C 
ENDBRANCH  15  21
ENDBRANCH   1  14
TORSDOF 5
ENDMDL
MODEL 2
REMARK VINA RESULT:      -7.1      1.750      1.955
REMARK  5 active torsions:
REMARK  status: ('A' for Active; 'I' for Inactive)
REMARK    1  A    between atoms: N1_2  and  C2_3 
REMARK    2  A    between atoms: C7_9  and  C8_10 
REMARK    3  A    between atoms: N2_11  and  N3_12 
REMARK    4  A    between atoms: N3_12  and  C10_14 
REMARK    5  A    between atoms: C15_19  and  N4_20 
ROOT
HETATM    1  C8  UNL     1      24.401   1.719  51.478  1.00  0.00     0.152 C 
HETATM    2  N2  UNL     1      25.557   1.443  51.962  1.00  0.00    -0.184 NA
ENDROOT
BRANCH   2   3
HETATM    3  N3  UNL     1      25.795   0.476  52.921  1.00  0.00    -0.272 N 
HETATM    4  C9  UNL     1      24.721  -0.102  53.665  1.00  0.00     0.180 C 
BRANCH   3   5
HETATM    5  C10 UNL     1      27.136   0.065  53.156  1.00  0.00     0.078 A 
HETATM    6  C11 UNL     1      27.712  -1.163  52.949  1.00  0.00     0.033 A 
HETATM    7  C12 UNL     1      29.048  -1.341  53.250  1.00  0.00     0.002 A 
HETATM    8  C13 UNL     1      29.803  -0.302  53.755  1.00  0.00     0.002 A 
HETATM    9  C14 UNL     1      29.247   0.936  53.971  1.00  0.00     0.031 A 
HETATM   10  C15 UNL     1      27.902   1.117  53.668  1.00  0.00     0.054 A 
BRANCH  10  11
HETATM   11  N4  UNL     1      27.438   2.445  53.934  1.00  0.00    -0.397 N 
HETATM   12  H14 UNL     1      27.538   3.045  54.769  1.00  0.00     0.156 HD
HETATM   13  H15 UNL     1      26.944   2.678  53.029  1.00  0.00     0.156 HD
ENDBRANCH  10  11
ENDBRANCH   3   5
ENDBRANCH   2   3
BRANCH   1  14
HETATM   14  C7  UNL     1      24.139   2.736  50.465  1.00  0.00     0.013 A 
HETATM   15  C2  UNL     1      22.957   2.680  49.770  1.00  0.00     0.067 A 
HETATM   16  C3  UNL     1      22.604   3.590  48.789  1.00  0.00     0.034 A 
HETATM   17  C4  UNL     1      23.485   4.624  48.481  1.00  0.00     0.026 A 
HETATM   18  C5  UNL     1      24.678   4.669  49.192  1.00  0.00     0.035 A 
HETATM   19 CL1  UNL     1      25.806   5.967  48.818  1.00  0.00    -0.084 Cl
HETATM   20  C6  UNL     1      25.017   3.755  50.167  1.00  0.00     0.039 A 
BRANCH  15  21
HETATM   21  N1  UNL     1      22.017   1.643  50.045  1.00  0.00    -0.271 NA
HETATM   22  C1  UNL     1      21.469   1.021  49.064  1.00  0.00     0.149 C 
ENDBRANCH  15  21
ENDBRANCH   1  14
TORSDOF 5
ENDMDL
MODEL 3
REMARK VINA RESULT:      -7.1      3.324      4.286
REMARK  5 active torsions:
REMARK  status: ('A' for Active; 'I' for Inactive)
REMARK    1  A    between atoms: N1_2  and  C2_3 
REMARK    2  A    between atoms: C7_9  and  C8_10 
REMARK    3  A    between atoms: N2_11  and  N3_12 
REMARK    4  A    between atoms: N3_12  and  C10_14 
REMARK    5  A    between atoms: C15_19  and  N4_20 
ROOT
HETATM    1  C8  UNL     1      23.918   0.541  53.117  1.00  0.00     0.152 C 
HETATM    2  N2  UNL     1      25.044  -0.066  53.036  1.00  0.00    -0.184 NA
ENDROOT
BRANCH   2   3
HETATM    3  N3  UNL     1      25.855  -0.364  54.117  1.00  0.00    -0.272 N 
HETATM    4  C9  UNL     1      25.298  -0.833  55.346  1.00  0.00     0.180 C 
BRANCH   3   5
HETATM    5  C10 UNL     1      27.260  -0.192  53.982  1.00  0.00     0.078 A 
HETATM    6  C11 UNL     1      28.042   0.868  54.368  1.00  0.00     0.033 A 
HETATM    7  C12 UNL     1      29.402   0.822  54.137  1.00  0.00     0.002 A 
HETATM    8  C13 UNL     1      29.978  -0.272  53.525  1.00  0.00     0.002 A 
HETATM    9  C14 UNL     1      29.215  -1.345  53.129  1.00  0.00     0.031 A 
HETATM   10  C15 UNL     1      27.845  -1.301  53.362  1.00  0.00     0.054 A 
BRANCH  10  11
HETATM   11  N4  UNL     1      27.158  -2.472  52.908  1.00  0.00    -0.397 N 
HETATM   12  H14 UNL     1      26.191  -2.798  53.071  1.00  0.00     0.156 HD
HETATM   13  H15 UNL     1      27.910  -2.947  52.338  1.00  0.00     0.156 HD
ENDBRANCH  10  11
ENDBRANCH   3   5
ENDBRANCH   2   3
BRANCH   1  14
HETATM   14  C7  UNL     1      23.055   0.859  51.984  1.00  0.00     0.013 A 
HETATM   15  C2  UNL     1      21.799   0.307  51.940  1.00  0.00     0.067 A 
HETATM   16  C3  UNL     1      20.898   0.538  50.916  1.00  0.00     0.034 A 
HETATM   17  C4  UNL     1      21.272   1.374  49.866  1.00  0.00     0.026 A 
HETATM   18  C5  UNL     1      22.546   1.925  49.922  1.00  0.00     0.035 A 
HETATM   19 CL1  UNL     1      23.038   2.983  48.605  1.00  0.00    -0.084 Cl
HETATM   20  C6  UNL     1      23.433   1.686  50.950  1.00  0.00     0.039 A 
BRANCH  15  21
HETATM   21  N1  UNL     1      21.363  -0.556  52.989  1.00  0.00    -0.271 NA
HETATM   22  C1  UNL     1      20.328  -0.231  53.676  1.00  0.00     0.149 C 
ENDBRANCH  15  21
ENDBRANCH   1  14
TORSDOF 5
ENDMDL
MODEL 4
REMARK VINA RESULT:      -7.0      2.610      3.357
REMARK  5 active torsions:
REMARK  status: ('A' for Active; 'I' for Inactive)
REMARK    1  A    between atoms: N1_2  and  C2_3 
REMARK    2  A    between atoms: C7_9  and  C8_10 
REMARK    3  A    between atoms: N2_11  and  N3_12 
REMARK    4  A    between atoms: N3_12  and  C10_14 
REMARK    5  A    between atoms: C15_19  and  N4_20 
ROOT
HETATM    1  C8  UNL     1      24.530   1.269  52.392  1.00  0.00     0.152 C 
HETATM    2  N2  UNL     1      25.268   0.220  52.423  1.00  0.00    -0.184 NA
ENDROOT
BRANCH   2   3
HETATM    3  N3  UNL     1      25.911  -0.254  53.552  1.00  0.00    -0.272 N 
HETATM    4  C9  UNL     1      25.172  -0.625  54.717  1.00  0.00     0.180 C 
BRANCH   3   5
HETATM    5  C10 UNL     1      27.328  -0.366  53.533  1.00  0.00     0.078 A 
HETATM    6  C11 UNL     1      28.105  -1.459  53.242  1.00  0.00     0.033 A 
HETATM    7  C12 UNL     1      29.480  -1.340  53.284  1.00  0.00     0.002 A 
HETATM    8  C13 UNL     1      30.075  -0.140  53.614  1.00  0.00     0.002 A 
HETATM    9  C14 UNL     1      29.318   0.968  53.909  1.00  0.00     0.031 A 
HETATM   10  C15 UNL     1      27.933   0.850  53.866  1.00  0.00     0.054 A 
BRANCH  10  11
HETATM   11  N4  UNL     1      27.253   2.068  54.191  1.00  0.00    -0.397 N 
HETATM   12  H14 UNL     1      26.247   2.273  54.308  1.00  0.00     0.156 HD
HETATM   13  H15 UNL     1      28.064   2.740  54.287  1.00  0.00     0.156 HD
ENDBRANCH  10  11
ENDBRANCH   3   5
ENDBRANCH   2   3
BRANCH   1  14
HETATM   14  C7  UNL     1      23.847   1.777  51.207  1.00  0.00     0.013 A 
HETATM   15  C2  UNL     1      24.477   2.728  50.443  1.00  0.00     0.067 A 
HETATM   16  C3  UNL     1      23.925   3.280  49.301  1.00  0.00     0.034 A 
HETATM   17  C4  UNL     1      22.662   2.857  48.892  1.00  0.00     0.026 A 
HETATM   18  C5  UNL     1      22.035   1.895  49.674  1.00  0.00     0.035 A 
HETATM   19 CL1  UNL     1      20.439   1.348  49.176  1.00  0.00    -0.084 Cl
HETATM   20  C6  UNL     1      22.598   1.353  50.810  1.00  0.00     0.039 A 
BRANCH  15  21
HETATM   21  N1  UNL     1      25.772   3.196  50.816  1.00  0.00    -0.271 NA
HETATM   22  C1  UNL     1      26.429   3.933  49.995  1.00  0.00     0.149 C 
ENDBRANCH  15  21
ENDBRANCH   1  14
TORSDOF 5
ENDMDL
MODEL 5
REMARK VINA RESULT:      -6.9      3.554      5.084
REMARK  5 active torsions:
REMARK  status: ('A' for Active; 'I' for Inactive)
REMARK    1  A    between atoms: N1_2  and  C2_3 
REMARK    2  A    between atoms: C7_9  and  C8_10 
REMARK    3  A    between atoms: N2_11  and  N3_12 
REMARK    4  A    between atoms: N3_12  and  C10_14 
REMARK    5  A    between atoms: C15_19  and  N4_20 
ROOT
HETATM    1  C8  UNL     1      24.102   1.411  51.853  1.00  0.00     0.152 C 
HETATM    2  N2  UNL     1      25.097   1.783  52.573  1.00  0.00    -0.184 NA
ENDROOT
BRANCH   2   3
HETATM    3  N3  UNL     1      26.364   2.048  52.085  1.00  0.00    -0.272 N 
HETATM    4  C9  UNL     1      26.545   2.736  50.846  1.00  0.00     0.180 C 
BRANCH   3   5
HETATM    5  C10 UNL     1      27.489   1.621  52.842  1.00  0.00     0.078 A 
HETATM    6  C11 UNL     1      28.391   2.375  53.550  1.00  0.00     0.033 A 
HETATM    7  C12 UNL     1      29.419   1.744  54.221  1.00  0.00     0.002 A 
HETATM    8  C13 UNL     1      29.547   0.370  54.185  1.00  0.00     0.002 A 
HETATM    9  C14 UNL     1      28.656  -0.406  53.482  1.00  0.00     0.031 A 
HETATM   10  C15 UNL     1      27.619   0.229  52.806  1.00  0.00     0.054 A 
BRANCH  10  11
HETATM   11  N4  UNL     1      26.758  -0.680  52.114  1.00  0.00    -0.397 N 
HETATM   12  H14 UNL     1      25.910  -0.514  51.547  1.00  0.00     0.156 HD
HETATM   13  H15 UNL     1      27.217  -1.608  52.329  1.00  0.00     0.156 HD
ENDBRANCH  10  11
ENDBRANCH   3   5
ENDBRANCH   2   3
BRANCH   1  14
HETATM   14  C7  UNL     1      22.763   1.129  52.357  1.00  0.00     0.013 A 
HETATM   15  C2  UNL     1      21.783   2.074  52.182  1.00  0.00     0.067 A 
HETATM   16  C3  UNL     1      20.480   1.915  52.618  1.00  0.00     0.034 A 
HETATM   17  C4  UNL     1      20.129   0.736  53.273  1.00  0.00     0.026 A 
HETATM   18  C5  UNL     1      21.130  -0.212  53.445  1.00  0.00     0.035 A 
HETATM   19 CL1  UNL     1      20.708  -1.707  54.270  1.00  0.00    -0.084 Cl
HETATM   20  C6  UNL     1      22.425  -0.039  53.004  1.00  0.00     0.039 A 
BRANCH  15  21
HETATM   21  N1  UNL     1      22.087   3.300  51.517  1.00  0.00    -0.271 NA
HETATM   22  C1  UNL     1      21.711   4.407  52.047  1.00  0.00     0.149 C 
ENDBRANCH  15  21
ENDBRANCH   1  14
TORSDOF 5
ENDMDL
MODEL 6
REMARK VINA RESULT:      -6.8      3.454      5.807
REMARK  5 active torsions:
REMARK  status: ('A' for Active; 'I' for Inactive)
REMARK    1  A    between atoms: N1_2  and  C2_3 
REMARK    2  A    between atoms: C7_9  and  C8_10 
REMARK    3  A    between atoms: N2_11  and  N3_12 
REMARK    4  A    between atoms: N3_12  and  C10_14 
REMARK    5  A    between atoms: C15_19  and  N4_20 
ROOT
HETATM    1  C8  UNL     1      24.295   1.239  52.970  1.00  0.00     0.152 C 
HETATM    2  N2  UNL     1      25.057   1.048  51.956  1.00  0.00    -0.184 NA
ENDROOT
BRANCH   2   3
HETATM    3  N3  UNL     1      26.277   1.671  51.763  1.00  0.00    -0.272 N 
HETATM    4  C9  UNL     1      26.470   2.592  50.689  1.00  0.00     0.180 C 
BRANCH   3   5
HETATM    5  C10 UNL     1      27.342   1.375  52.658  1.00  0.00     0.078 A 
HETATM    6  C11 UNL     1      28.098   2.234  53.414  1.00  0.00     0.033 A 
HETATM    7  C12 UNL     1      29.093   1.723  54.224  1.00  0.00     0.002 A 
HETATM    8  C13 UNL     1      29.332   0.365  54.278  1.00  0.00     0.002 A 
HETATM    9  C14 UNL     1      28.587  -0.515  53.529  1.00  0.00     0.031 A 
HETATM   10  C15 UNL     1      27.584  -0.001  52.713  1.00  0.00     0.054 A 
BRANCH  10  11
HETATM   11  N4  UNL     1      26.878  -1.011  51.985  1.00  0.00    -0.397 N 
HETATM   12  H14 UNL     1      26.671  -1.101  50.976  1.00  0.00     0.156 HD
HETATM   13  H15 UNL     1      26.606  -1.676  52.760  1.00  0.00     0.156 HD
ENDBRANCH  10  11
ENDBRANCH   3   5
ENDBRANCH   2   3
BRANCH   1  14
HETATM   14  C7  UNL     1      23.007   0.587  53.183  1.00  0.00     0.013 A 
HETATM   15  C2  UNL     1      22.954  -0.508  54.009  1.00  0.00     0.067 A 
HETATM   16  C3  UNL     1      21.790  -1.204  54.282  1.00  0.00     0.034 A 
HETATM   17  C4  UNL     1      20.599  -0.780  53.696  1.00  0.00     0.026 A 
HETATM   18  C5  UNL     1      20.666   0.329  52.862  1.00  0.00     0.035 A 
HETATM   19 CL1  UNL     1      19.174   0.880  52.110  1.00  0.00    -0.084 Cl
HETATM   20  C6  UNL     1      21.834   1.013  52.599  1.00  0.00     0.039 A 
BRANCH  15  21
HETATM   21  N1  UNL     1      24.143  -0.985  54.636  1.00  0.00    -0.271 NA
HETATM   22  C1  UNL     1      24.099  -1.341  55.869  1.00  0.00     0.149 C 
ENDBRANCH  15  21
ENDBRANCH   1  14
TORSDOF 5
ENDMDL
MODEL 7
REMARK VINA RESULT:      -6.6      2.824      6.590
REMARK  5 active torsions:
REMARK  status: ('A' for Active; 'I' for Inactive)
REMARK    1  A    between atoms: N1_2  and  C2_3 
REMARK    2  A    between atoms: C7_9  and  C8_10 
REMARK    3  A    between atoms: N2_11  and  N3_12 
REMARK    4  A    between atoms: N3_12  and  C10_14 
REMARK    5  A    between atoms: C15_19  and  N4_20 
ROOT
HETATM    1  C8  UNL     1      24.588   2.195  51.544  1.00  0.00     0.152 C 
HETATM    2  N2  UNL     1      24.616   3.476  51.586  1.00  0.00    -0.184 NA
ENDROOT
BRANCH   2   3
HETATM    3  N3  UNL     1      24.168   4.305  50.574  1.00  0.00    -0.272 N 
HETATM    4  C9  UNL     1      22.828   4.214  50.088  1.00  0.00     0.180 C 
BRANCH   3   5
HETATM    5  C10 UNL     1      25.072   5.255  50.021  1.00  0.00     0.078 A 
HETATM    6  C11 UNL     1      25.910   5.122  48.943  1.00  0.00     0.033 A 
HETATM    7  C12 UNL     1      26.711   6.186  48.576  1.00  0.00     0.002 A 
HETATM    8  C13 UNL     1      26.675   7.372  49.281  1.00  0.00     0.002 A 
HETATM    9  C14 UNL     1      25.843   7.527  50.364  1.00  0.00     0.031 A 
HETATM   10  C15 UNL     1      25.036   6.457  50.734  1.00  0.00     0.054 A 
BRANCH  10  11
HETATM   11  N4  UNL     1      24.215   6.737  51.873  1.00  0.00    -0.397 N 
HETATM   12  H14 UNL     1      23.319   6.326  52.181  1.00  0.00     0.156 HD
HETATM   13  H15 UNL     1      24.771   7.500  52.348  1.00  0.00     0.156 HD
ENDBRANCH  10  11
ENDBRANCH   3   5
ENDBRANCH   2   3
BRANCH   1  14
HETATM   14  C7  UNL     1      25.057   1.311  52.606  1.00  0.00     0.013 A 
HETATM   15  C2  UNL     1      24.175   0.408  53.146  1.00  0.00     0.067 A 
HETATM   16  C3  UNL     1      24.509  -0.477  54.156  1.00  0.00     0.034 A 
HETATM   17  C4  UNL     1      25.807  -0.461  54.661  1.00  0.00     0.026 A 
HETATM   18  C5  UNL     1      26.689   0.457  54.107  1.00  0.00     0.035 A 
HETATM   19 CL1  UNL     1      28.334   0.494  54.732  1.00  0.00    -0.084 Cl
HETATM   20  C6  UNL     1      26.342   1.333  53.100  1.00  0.00     0.039 A 
BRANCH  15  21
HETATM   21  N1  UNL     1      22.833   0.349  52.665  1.00  0.00    -0.271 NA
HETATM   22  C1  UNL     1      21.866   0.392  53.508  1.00  0.00     0.149 C 
ENDBRANCH  15  21
ENDBRANCH   1  14
TORSDOF 5
ENDMDL
MODEL 8
REMARK VINA RESULT:      -6.5      3.089      7.033
REMARK  5 active torsions:
REMARK  status: ('A' for Active; 'I' for Inactive)
REMARK    1  A    between atoms: N1_2  and  C2_3 
REMARK    2  A    between atoms: C7_9  and  C8_10 
REMARK    3  A    between atoms: N2_11  and  N3_12 
REMARK    4  A    between atoms: N3_12  and  C10_14 
REMARK    5  A    between atoms: C15_19  and  N4_20 
ROOT
HETATM    1  C8  UNL     1      24.396   1.990  51.368  1.00  0.00     0.152 C 
HETATM    2  N2  UNL     1      23.346   2.700  51.173  1.00  0.00    -0.184 NA
ENDROOT
BRANCH   2   3
HETATM    3  N3  UNL     1      23.191   3.606  50.139  1.00  0.00    -0.272 N 
HETATM    4  C9  UNL     1      22.167   3.433  49.158  1.00  0.00     0.180 C 
BRANCH   3   5
HETATM    5  C10 UNL     1      24.075   4.718  50.069  1.00  0.00     0.078 A 
HETATM    6  C11 UNL     1      25.145   4.919  49.234  1.00  0.00     0.033 A 
HETATM    7  C12 UNL     1      25.874   6.087  49.341  1.00  0.00     0.002 A 
HETATM    8  C13 UNL     1      25.538   7.046  50.274  1.00  0.00     0.002 A 
HETATM    9  C14 UNL     1      24.471   6.866  51.121  1.00  0.00     0.031 A 
HETATM   10  C15 UNL     1      23.736   5.690  51.015  1.00  0.00     0.054 A 
BRANCH  10  11
HETATM   11  N4  UNL     1      22.652   5.617  51.947  1.00  0.00    -0.397 N 
HETATM   12  H14 UNL     1      22.115   6.359  52.424  1.00  0.00     0.156 HD
HETATM   13  H15 UNL     1      22.522   4.571  52.034  1.00  0.00     0.156 HD
ENDBRANCH  10  11
ENDBRANCH   3   5
ENDBRANCH   2   3
BRANCH   1  14
HETATM   14  C7  UNL     1      24.569   1.032  52.454  1.00  0.00     0.013 A 
HETATM   15  C2  UNL     1      25.841   0.754  52.889  1.00  0.00     0.067 A 
HETATM   16  C3  UNL     1      26.123  -0.136  53.909  1.00  0.00     0.034 A 
HETATM   17  C4  UNL     1      25.069  -0.793  54.540  1.00  0.00     0.026 A 
HETATM   18  C5  UNL     1      23.787  -0.504  54.091  1.00  0.00     0.035 A 
HETATM   19 CL1  UNL     1      22.441  -1.324  54.873  1.00  0.00    -0.084 Cl
HETATM   20  C6  UNL     1      23.520   0.386  53.072  1.00  0.00     0.039 A 
BRANCH  15  21
HETATM   21  N1  UNL     1      26.958   1.399  52.279  1.00  0.00    -0.271 NA
HETATM   22  C1  UNL     1      27.805   2.014  53.021  1.00  0.00     0.149 C 
ENDBRANCH  15  21
ENDBRANCH   1  14
TORSDOF 5
ENDMDL
MODEL 9
REMARK VINA RESULT:      -6.4      5.873      7.655
REMARK  5 active torsions:
REMARK  status: ('A' for Active; 'I' for Inactive)
REMARK    1  A    between atoms: N1_2  and  C2_3 
REMARK    2  A    between atoms: C7_9  and  C8_10 
REMARK    3  A    between atoms: N2_11  and  N3_12 
REMARK    4  A    between atoms: N3_12  and  C10_14 
REMARK    5  A    between atoms: C15_19  and  N4_20 
ROOT
HETATM    1  C8  UNL     1      29.870   6.666  47.367  1.00  0.00     0.152 C 
HETATM    2  N2  UNL     1      30.994   6.136  47.686  1.00  0.00    -0.184 NA
ENDROOT
BRANCH   2   3
HETATM    3  N3  UNL     1      32.211   6.482  47.127  1.00  0.00    -0.272 N 
HETATM    4  C9  UNL     1      32.545   7.849  46.881  1.00  0.00     0.180 C 
BRANCH   3   5
HETATM    5  C10 UNL     1      33.129   5.446  46.799  1.00  0.00     0.078 A 
HETATM    6  C11 UNL     1      33.466   4.950  45.564  1.00  0.00     0.033 A 
HETATM    7  C12 UNL     1      34.392   3.930  45.477  1.00  0.00     0.002 A 
HETATM    8  C13 UNL     1      34.977   3.409  46.613  1.00  0.00     0.002 A 
HETATM    9  C14 UNL     1      34.655   3.889  47.859  1.00  0.00     0.031 A 
HETATM   10  C15 UNL     1      33.722   4.917  47.949  1.00  0.00     0.054 A 
BRANCH  10  11
HETATM   11  N4  UNL     1      33.469   5.333  49.295  1.00  0.00    -0.397 N 
HETATM   12  H14 UNL     1      34.022   5.922  49.939  1.00  0.00     0.156 HD
HETATM   13  H15 UNL     1      32.536   4.873  49.483  1.00  0.00     0.156 HD
ENDBRANCH  10  11
ENDBRANCH   3   5
ENDBRANCH   2   3
BRANCH   1  14
HETATM   14  C7  UNL     1      28.581   6.309  47.950  1.00  0.00     0.013 A 
HETATM   15  C2  UNL     1      27.620   7.283  48.064  1.00  0.00     0.067 A 
HETATM   16  C3  UNL     1      26.365   7.059  48.601  1.00  0.00     0.034 A 
HETATM   17  C4  UNL     1      26.045   5.781  49.054  1.00  0.00     0.026 A 
HETATM   18  C5  UNL     1      27.026   4.805  48.934  1.00  0.00     0.035 A 
HETATM   19 CL1  UNL     1      26.643   3.184  49.501  1.00  0.00    -0.084 Cl
HETATM   20  C6  UNL     1      28.274   5.043  48.396  1.00  0.00     0.039 A 
BRANCH  15  21
HETATM   21  N1  UNL     1      27.894   8.609  47.616  1.00  0.00    -0.271 NA
HETATM   22  C1  UNL     1      26.914   9.376  47.303  1.00  0.00     0.149 C 
ENDBRANCH  15  21
ENDBRANCH   1  14
TORSDOF 5
ENDMDL
