MODEL 1
REMARK VINA RESULT:      -7.9      0.000      0.000
REMARK  3 active torsions:
REMARK  status: ('A' for Active; 'I' for Inactive)
REMARK    1  A    between atoms: C3_3  and  N1_5 
REMARK    2  A    between atoms: N1_5  and  C4_6 
REMARK    3  A    between atoms: C9_12  and  O3_13 
ROOT
HETATM    1  C4  UNL     1      24.508   2.966  52.131  1.00  0.00     0.136 C 
HETATM    2  C5  UNL     1      23.640   4.066  52.694  1.00  0.00     0.078 C 
HETATM    3  C6  UNL     1      22.292   4.179  52.130  1.00  0.00     0.175 C 
HETATM    4  O2  UNL     1      21.689   2.992  51.715  1.00  0.00    -0.357 OA
HETATM    5  C7  UNL     1      22.659   2.347  50.950  1.00  0.00     0.175 C 
HETATM    6  C8  UNL     1      22.154   1.376  49.962  1.00  0.00     0.075 C 
HETATM    7  C9  UNL     1      23.595   1.747  51.998  1.00  0.00     0.222 C 
HETATM    8  N2  UNL     1      23.483   3.330  50.234  1.00  0.00    -0.281 N 
HETATM    9  C11 UNL     1      23.569   4.367  49.295  1.00  0.00     0.113 C 
HETATM   10  C12 UNL     1      24.754   4.972  49.333  1.00  0.00    -0.040 C 
HETATM   11  C13 UNL     1      25.354   6.100  48.574  1.00  0.00     0.041 C 
HETATM   12  C14 UNL     1      26.850   6.022  48.515  1.00  0.00     0.031 C 
HETATM   13  C15 UNL     1      27.327   4.646  48.810  1.00  0.00    -0.028 C 
HETATM   14  C16 UNL     1      26.768   3.799  49.668  1.00  0.00    -0.005 C 
HETATM   15  C17 UNL     1      25.558   4.288  50.388  1.00  0.00     0.135 C 
HETATM   16  N3  UNL     1      24.780   3.134  50.722  1.00  0.00    -0.183 NA
ENDROOT
BRANCH   1  17
HETATM   17  N1  UNL     1      25.636   2.797  52.961  1.00  0.00    -0.365 N 
HETATM   18  H4  UNL     1      26.098   3.608  53.428  1.00  0.00     0.158 HD
BRANCH  17  19
HETATM   19  C3  UNL     1      26.282   1.573  53.269  1.00  0.00     0.154 A 
HETATM   20  C2  UNL     1      26.852   0.585  52.351  1.00  0.00     0.057 A 
HETATM   21  C1  UNL     1      27.087   0.036  53.633  1.00  0.00     0.243 A 
HETATM   22  O1  UNL     1      26.413   1.235  54.485  1.00  0.00    -0.356 OA
ENDBRANCH  17  19
ENDBRANCH   1  17
BRANCH   7  23
HETATM   23  O3  UNL     1      22.925   1.481  53.179  1.00  0.00    -0.382 OA
HETATM   24  C10 UNL     1      22.865   0.126  53.486  1.00  0.00     0.202 C 
ENDBRANCH   7  23
TORSDOF 3
ENDMDL
MODEL 2
REMARK VINA RESULT:      -7.6      2.051      4.765
REMARK  3 active torsions:
REMARK  status: ('A' for Active; 'I' for Inactive)
REMARK    1  A    between atoms: C3_3  and  N1_5 
REMARK    2  A    between atoms: N1_5  and  C4_6 
REMARK    3  A    between atoms: C9_12  and  O3_13 
ROOT
HETATM    1  C4  UNL     1      24.341   0.974  52.333  1.00  0.00     0.136 C 
HETATM    2  C5  UNL     1      24.055   1.981  53.422  1.00  0.00     0.078 C 
HETATM    3  C6  UNL     1      24.423   3.369  53.132  1.00  0.00     0.175 C 
HETATM    4  O2  UNL     1      24.329   3.774  51.800  1.00  0.00    -0.357 OA
HETATM    5  C7  UNL     1      24.969   2.770  51.076  1.00  0.00     0.175 C 
HETATM    6  C8  UNL     1      25.496   3.167  49.757  1.00  0.00     0.075 C 
HETATM    7  C9  UNL     1      23.929   1.652  51.025  1.00  0.00     0.222 C 
HETATM    8  N2  UNL     1      26.082   2.209  51.854  1.00  0.00    -0.281 N 
HETATM    9  C11 UNL     1      27.313   2.399  52.496  1.00  0.00     0.113 C 
HETATM   10  C12 UNL     1      27.650   1.348  53.241  1.00  0.00    -0.040 C 
HETATM   11  C13 UNL     1      28.818   1.037  54.105  1.00  0.00     0.041 C 
HETATM   12  C14 UNL     1      29.064  -0.437  54.230  1.00  0.00     0.031 C 
HETATM   13  C15 UNL     1      28.403  -1.186  53.130  1.00  0.00    -0.028 C 
HETATM   14  C16 UNL     1      27.242  -0.871  52.567  1.00  0.00    -0.005 C 
HETATM   15  C17 UNL     1      26.556   0.343  53.096  1.00  0.00     0.135 C 
HETATM   16  N3  UNL     1      25.751   0.861  52.033  1.00  0.00    -0.183 NA
ENDROOT
BRANCH   1  17
HETATM   17  N1  UNL     1      23.675  -0.232  52.631  1.00  0.00    -0.365 N 
HETATM   18  H4  UNL     1      23.923  -1.127  52.154  1.00  0.00     0.158 HD
BRANCH  17  19
HETATM   19  C3  UNL     1      22.625  -0.409  53.568  1.00  0.00     0.154 A 
HETATM   20  C2  UNL     1      22.679  -1.031  54.892  1.00  0.00     0.057 A 
HETATM   21  C1  UNL     1      21.325  -0.646  54.750  1.00  0.00     0.243 A 
HETATM   22  O1  UNL     1      21.463   0.008  53.276  1.00  0.00    -0.356 OA
ENDBRANCH  17  19
ENDBRANCH   1  17
BRANCH   7  23
HETATM   23  O3  UNL     1      22.643   2.157  51.096  1.00  0.00    -0.382 OA
HETATM   24  C10 UNL     1      21.810   1.687  50.088  1.00  0.00     0.202 C 
ENDBRANCH   7  23
TORSDOF 3
ENDMDL
MODEL 3
REMARK VINA RESULT:      -7.2      1.833      4.727
REMARK  3 active torsions:
REMARK  status: ('A' for Active; 'I' for Inactive)
REMARK    1  A    between atoms: C3_3  and  N1_5 
REMARK    2  A    between atoms: N1_5  and  C4_6 
REMARK    3  A    between atoms: C9_12  and  O3_13 
ROOT
HETATM    1  C4  UNL     1      23.996   3.659  51.164  1.00  0.00     0.136 C 
HETATM    2  C5  UNL     1      23.864   2.884  49.874  1.00  0.00     0.078 C 
HETATM    3  C6  UNL     1      22.610   2.149  49.687  1.00  0.00     0.175 C 
HETATM    4  O2  UNL     1      21.467   2.715  50.252  1.00  0.00    -0.357 OA
HETATM    5  C7  UNL     1      21.836   3.041  51.555  1.00  0.00     0.175 C 
HETATM    6  C8  UNL     1      20.734   3.140  52.529  1.00  0.00     0.075 C 
HETATM    7  C9  UNL     1      22.639   4.330  51.383  1.00  0.00     0.222 C 
HETATM    8  N2  UNL     1      22.805   2.065  52.072  1.00  0.00    -0.281 N 
HETATM    9  C11 UNL     1      23.105   0.741  52.420  1.00  0.00     0.113 C 
HETATM   10  C12 UNL     1      24.406   0.573  52.653  1.00  0.00    -0.040 C 
HETATM   11  C13 UNL     1      25.233  -0.597  53.045  1.00  0.00     0.041 C 
HETATM   12  C14 UNL     1      26.480  -0.200  53.779  1.00  0.00     0.031 C 
HETATM   13  C15 UNL     1      26.361   1.175  54.330  1.00  0.00    -0.028 C 
HETATM   14  C16 UNL     1      25.716   2.186  53.760  1.00  0.00    -0.005 C 
HETATM   15  C17 UNL     1      25.059   1.900  52.453  1.00  0.00     0.135 C 
HETATM   16  N3  UNL     1      23.961   2.810  52.333  1.00  0.00    -0.183 NA
ENDROOT
BRANCH   1  17
HETATM   17  N1  UNL     1      25.099   4.532  51.067  1.00  0.00    -0.365 N 
HETATM   18  H4  UNL     1      25.267   5.282  51.774  1.00  0.00     0.158 HD
BRANCH  17  19
HETATM   19  C3  UNL     1      26.093   4.529  50.056  1.00  0.00     0.154 A 
HETATM   20  C2  UNL     1      26.264   5.464  48.943  1.00  0.00     0.057 A 
HETATM   21  C1  UNL     1      27.323   4.541  48.779  1.00  0.00     0.243 A 
HETATM   22  O1  UNL     1      26.980   3.621  50.066  1.00  0.00    -0.356 OA
ENDBRANCH  17  19
ENDBRANCH   1  17
BRANCH   7  23
HETATM   23  O3  UNL     1      22.230   5.032  50.263  1.00  0.00    -0.382 OA
HETATM   24  C10 UNL     1      21.877   6.348  50.536  1.00  0.00     0.202 C 
ENDBRANCH   7  23
TORSDOF 3
ENDMDL
MODEL 4
REMARK VINA RESULT:      -6.9      1.978      5.162
REMARK  3 active torsions:
REMARK  status: ('A' for Active; 'I' for Inactive)
REMARK    1  A    between atoms: C3_3  and  N1_5 
REMARK    2  A    between atoms: N1_5  and  C4_6 
REMARK    3  A    between atoms: C9_12  and  O3_13 
ROOT
HETATM    1  C4  UNL     1      23.602   2.038  51.311  1.00  0.00     0.136 C 
HETATM    2  C5  UNL     1      22.822   1.754  50.049  1.00  0.00     0.078 C 
HETATM    3  C6  UNL     1      21.656   2.606  49.803  1.00  0.00     0.175 C 
HETATM    4  O2  UNL     1      21.738   3.921  50.261  1.00  0.00    -0.357 OA
HETATM    5  C7  UNL     1      22.196   3.815  51.572  1.00  0.00     0.175 C 
HETATM    6  C8  UNL     1      21.869   4.946  52.460  1.00  0.00     0.075 C 
HETATM    7  C9  UNL     1      23.694   3.561  51.405  1.00  0.00     0.222 C 
HETATM    8  N2  UNL     1      21.679   2.590  52.198  1.00  0.00    -0.281 N 
HETATM    9  C11 UNL     1      20.580   1.831  52.621  1.00  0.00     0.113 C 
HETATM   10  C12 UNL     1      20.933   0.591  52.954  1.00  0.00    -0.040 C 
HETATM   11  C13 UNL     1      20.181  -0.590  53.452  1.00  0.00     0.041 C 
HETATM   12  C14 UNL     1      21.040  -1.521  54.256  1.00  0.00     0.031 C 
HETATM   13  C15 UNL     1      22.266  -0.835  54.740  1.00  0.00    -0.028 C 
HETATM   14  C16 UNL     1      22.941   0.102  54.084  1.00  0.00    -0.005 C 
HETATM   15  C17 UNL     1      22.408   0.488  52.745  1.00  0.00     0.135 C 
HETATM   16  N3  UNL     1      22.818   1.838  52.509  1.00  0.00    -0.183 NA
ENDROOT
BRANCH   1  17
HETATM   17  N1  UNL     1      24.833   1.354  51.258  1.00  0.00    -0.365 N 
HETATM   18  H4  UNL     1      24.954   0.487  50.689  1.00  0.00     0.158 HD
BRANCH  17  19
HETATM   19  C3  UNL     1      26.029   1.712  51.931  1.00  0.00     0.154 A 
HETATM   20  C2  UNL     1      26.356   1.563  53.351  1.00  0.00     0.057 A 
HETATM   21  C1  UNL     1      27.512   2.159  52.793  1.00  0.00     0.243 A 
HETATM   22  O1  UNL     1      26.976   2.234  51.268  1.00  0.00    -0.356 OA
ENDBRANCH  17  19
ENDBRANCH   1  17
BRANCH   7  23
HETATM   23  O3  UNL     1      24.170   4.117  50.230  1.00  0.00    -0.382 OA
HETATM   24  C10 UNL     1      25.061   5.163  50.436  1.00  0.00     0.202 C 
ENDBRANCH   7  23
TORSDOF 3
ENDMDL
MODEL 5
REMARK VINA RESULT:      -6.8      3.100      5.756
REMARK  3 active torsions:
REMARK  status: ('A' for Active; 'I' for Inactive)
REMARK    1  A    between atoms: C3_3  and  N1_5 
REMARK    2  A    between atoms: N1_5  and  C4_6 
REMARK    3  A    between atoms: C9_12  and  O3_13 
ROOT
HETATM    1  C4  UNL     1      26.137   0.475  53.499  1.00  0.00     0.136 C 
HETATM    2  C5  UNL     1      26.222   0.205  52.016  1.00  0.00     0.078 C 
HETATM    3  C6  UNL     1      25.670   1.240  51.137  1.00  0.00     0.175 C 
HETATM    4  O2  UNL     1      25.768   2.556  51.587  1.00  0.00    -0.357 OA
HETATM    5  C7  UNL     1      25.315   2.517  52.904  1.00  0.00     0.175 C 
HETATM    6  C8  UNL     1      24.799   3.790  53.443  1.00  0.00     0.075 C 
HETATM    7  C9  UNL     1      26.508   1.949  53.672  1.00  0.00     0.222 C 
HETATM    8  N2  UNL     1      24.260   1.506  53.053  1.00  0.00    -0.281 N 
HETATM    9  C11 UNL     1      22.985   1.041  52.702  1.00  0.00     0.113 C 
HETATM   10  C12 UNL     1      22.769  -0.196  53.146  1.00  0.00    -0.040 C 
HETATM   11  C13 UNL     1      21.619  -1.131  53.053  1.00  0.00     0.041 C 
HETATM   12  C14 UNL     1      21.584  -2.113  54.186  1.00  0.00     0.031 C 
HETATM   13  C15 UNL     1      22.399  -1.637  55.333  1.00  0.00    -0.028 C 
HETATM   14  C16 UNL     1      23.527  -0.941  55.247  1.00  0.00    -0.005 C 
HETATM   15  C17 UNL     1      24.004  -0.619  53.871  1.00  0.00     0.135 C 
HETATM   16  N3  UNL     1      24.775   0.582  53.970  1.00  0.00    -0.183 NA
ENDROOT
BRANCH   1  17
HETATM   17  N1  UNL     1      26.956  -0.445  54.185  1.00  0.00    -0.365 N 
HETATM   18  H4  UNL     1      26.917  -0.545  55.223  1.00  0.00     0.158 HD
BRANCH  17  19
HETATM   19  C3  UNL     1      27.907  -1.324  53.607  1.00  0.00     0.154 A 
HETATM   20  C2  UNL     1      29.330  -1.089  53.352  1.00  0.00     0.057 A 
HETATM   21  C1  UNL     1      29.111  -2.404  52.881  1.00  0.00     0.243 A 
HETATM   22  O1  UNL     1      27.535  -2.481  53.243  1.00  0.00    -0.356 OA
ENDBRANCH  17  19
ENDBRANCH   1  17
BRANCH   7  23
HETATM   23  O3  UNL     1      27.702   2.251  53.043  1.00  0.00    -0.382 OA
HETATM   24  C10 UNL     1      28.759   2.436  53.926  1.00  0.00     0.202 C 
ENDBRANCH   7  23
TORSDOF 3
ENDMDL
MODEL 6
REMARK VINA RESULT:      -6.8      2.798      5.740
REMARK  3 active torsions:
REMARK  status: ('A' for Active; 'I' for Inactive)
REMARK    1  A    between atoms: C3_3  and  N1_5 
REMARK    2  A    between atoms: N1_5  and  C4_6 
REMARK    3  A    between atoms: C9_12  and  O3_13 
ROOT
HETATM    1  C4  UNL     1      21.682   3.438  51.759  1.00  0.00     0.136 C 
HETATM    2  C5  UNL     1      22.539   4.505  52.399  1.00  0.00     0.078 C 
HETATM    3  C6  UNL     1      23.692   4.963  51.619  1.00  0.00     0.175 C 
HETATM    4  O2  UNL     1      23.546   4.960  50.232  1.00  0.00    -0.357 OA
HETATM    5  C7  UNL     1      23.019   3.706  49.931  1.00  0.00     0.175 C 
HETATM    6  C8  UNL     1      23.264   3.219  48.560  1.00  0.00     0.075 C 
HETATM    7  C9  UNL     1      21.541   3.847  50.292  1.00  0.00     0.222 C 
HETATM    8  N2  UNL     1      23.536   2.696  50.865  1.00  0.00    -0.281 N 
HETATM    9  C11 UNL     1      24.631   2.002  51.396  1.00  0.00     0.113 C 
HETATM   10  C12 UNL     1      24.296   1.301  52.478  1.00  0.00    -0.040 C 
HETATM   11  C13 UNL     1      25.053   0.415  53.400  1.00  0.00     0.041 C 
HETATM   12  C14 UNL     1      24.178  -0.609  54.060  1.00  0.00     0.031 C 
HETATM   13  C15 UNL     1      22.907  -0.791  53.311  1.00  0.00    -0.028 C 
HETATM   14  C16 UNL     1      22.243   0.162  52.667  1.00  0.00    -0.005 C 
HETATM   15  C17 UNL     1      22.839   1.529  52.709  1.00  0.00     0.135 C 
HETATM   16  N3  UNL     1      22.403   2.207  51.527  1.00  0.00    -0.183 NA
ENDROOT
BRANCH   1  17
HETATM   17  N1  UNL     1      20.476   3.320  52.478  1.00  0.00    -0.365 N 
HETATM   18  H4  UNL     1      20.415   3.571  53.490  1.00  0.00     0.158 HD
BRANCH  17  19
HETATM   19  C3  UNL     1      19.231   2.867  51.973  1.00  0.00     0.154 A 
HETATM   20  C2  UNL     1      18.883   1.541  51.459  1.00  0.00     0.057 A 
HETATM   21  C1  UNL     1      17.685   2.282  51.331  1.00  0.00     0.243 A 
HETATM   22  O1  UNL     1      18.251   3.672  51.937  1.00  0.00    -0.356 OA
ENDBRANCH  17  19
ENDBRANCH   1  17
BRANCH   7  23
HETATM   23  O3  UNL     1      21.116   5.158  50.167  1.00  0.00    -0.382 OA
HETATM   24  C10 UNL     1      20.096   5.320  49.236  1.00  0.00     0.202 C 
ENDBRANCH   7  23
TORSDOF 3
ENDMDL
MODEL 7
REMARK VINA RESULT:      -6.8      2.399      5.102
REMARK  3 active torsions:
REMARK  status: ('A' for Active; 'I' for Inactive)
REMARK    1  A    between atoms: C3_3  and  N1_5 
REMARK    2  A    between atoms: N1_5  and  C4_6 
REMARK    3  A    between atoms: C9_12  and  O3_13 
ROOT
HETATM    1  C4  UNL     1      22.329   2.365  51.705  1.00  0.00     0.136 C 
HETATM    2  C5  UNL     1      22.221   1.416  50.535  1.00  0.00     0.078 C 
HETATM    3  C6  UNL     1      21.564   0.133  50.801  1.00  0.00     0.175 C 
HETATM    4  O2  UNL     1      20.548   0.141  51.756  1.00  0.00    -0.357 OA
HETATM    5  C7  UNL     1      21.084   0.830  52.842  1.00  0.00     0.175 C 
HETATM    6  C8  UNL     1      20.478   0.533  54.153  1.00  0.00     0.075 C 
HETATM    7  C9  UNL     1      20.979   2.295  52.419  1.00  0.00     0.222 C 
HETATM    8  N2  UNL     1      22.527   0.576  52.948  1.00  0.00    -0.281 N 
HETATM    9  C11 UNL     1      23.574  -0.337  53.132  1.00  0.00     0.113 C 
HETATM   10  C12 UNL     1      24.760   0.210  52.871  1.00  0.00    -0.040 C 
HETATM   11  C13 UNL     1      26.155  -0.301  52.907  1.00  0.00     0.041 C 
HETATM   12  C14 UNL     1      27.160   0.786  53.145  1.00  0.00     0.031 C 
HETATM   13  C15 UNL     1      26.517   1.990  53.733  1.00  0.00    -0.028 C 
HETATM   14  C16 UNL     1      25.293   2.427  53.461  1.00  0.00    -0.005 C 
HETATM   15  C17 UNL     1      24.508   1.628  52.477  1.00  0.00     0.135 C 
HETATM   16  N3  UNL     1      23.126   1.831  52.786  1.00  0.00    -0.183 NA
ENDROOT
BRANCH   1  17
HETATM   17  N1  UNL     1      22.705   3.639  51.233  1.00  0.00    -0.365 N 
HETATM   18  H4  UNL     1      23.012   4.395  51.885  1.00  0.00     0.158 HD
BRANCH  17  19
HETATM   19  C3  UNL     1      22.720   4.070  49.882  1.00  0.00     0.154 A 
HETATM   20  C2  UNL     1      23.860   4.171  48.969  1.00  0.00     0.057 A 
HETATM   21  C1  UNL     1      22.762   4.612  48.195  1.00  0.00     0.243 A 
HETATM   22  O1  UNL     1      21.631   4.428  49.337  1.00  0.00    -0.356 OA
ENDBRANCH  17  19
ENDBRANCH   1  17
BRANCH   7  23
HETATM   23  O3  UNL     1      19.927   2.490  51.542  1.00  0.00    -0.382 OA
HETATM   24  C10 UNL     1      19.203   3.648  51.799  1.00  0.00     0.202 C 
ENDBRANCH   7  23
TORSDOF 3
ENDMDL
MODEL 8
REMARK VINA RESULT:      -6.5      6.612      9.926
REMARK  3 active torsions:
REMARK  status: ('A' for Active; 'I' for Inactive)
REMARK    1  A    between atoms: C3_3  and  N1_5 
REMARK    2  A    between atoms: N1_5  and  C4_6 
REMARK    3  A    between atoms: C9_12  and  O3_13 
ROOT
HETATM    1  C4  UNL     1      31.030   8.289  48.551  1.00  0.00     0.136 C 
HETATM    2  C5  UNL     1      31.705   7.488  49.639  1.00  0.00     0.078 C 
HETATM    3  C6  UNL     1      32.505   6.342  49.197  1.00  0.00     0.175 C 
HETATM    4  O2  UNL     1      33.138   6.465  47.960  1.00  0.00    -0.357 OA
HETATM    5  C7  UNL     1      32.150   6.935  47.098  1.00  0.00     0.175 C 
HETATM    6  C8  UNL     1      32.358   6.648  45.666  1.00  0.00     0.075 C 
HETATM    7  C9  UNL     1      32.066   8.423  47.434  1.00  0.00     0.222 C 
HETATM    8  N2  UNL     1      30.839   6.393  47.478  1.00  0.00    -0.281 N 
HETATM    9  C11 UNL     1      30.010   5.279  47.666  1.00  0.00     0.113 C 
HETATM   10  C12 UNL     1      28.879   5.602  48.291  1.00  0.00    -0.040 C 
HETATM   11  C13 UNL     1      27.690   4.824  48.726  1.00  0.00     0.041 C 
HETATM   12  C14 UNL     1      26.452   5.667  48.811  1.00  0.00     0.031 C 
HETATM   13  C15 UNL     1      26.600   6.916  48.020  1.00  0.00    -0.028 C 
HETATM   14  C16 UNL     1      27.723   7.609  47.866  1.00  0.00    -0.005 C 
HETATM   15  C17 UNL     1      28.932   7.071  48.553  1.00  0.00     0.135 C 
HETATM   16  N3  UNL     1      30.067   7.514  47.802  1.00  0.00    -0.183 NA
ENDROOT
BRANCH   1  17
HETATM   17  N1  UNL     1      30.558   9.501  49.095  1.00  0.00    -0.365 N 
HETATM   18  H4  UNL     1      30.286   9.581  50.100  1.00  0.00     0.158 HD
BRANCH  17  19
HETATM   19  C3  UNL     1      30.386  10.727  48.404  1.00  0.00     0.154 A 
HETATM   20  C2  UNL     1      31.162  11.963  48.529  1.00  0.00     0.057 A 
HETATM   21  C1  UNL     1      30.183  12.271  47.556  1.00  0.00     0.243 A 
HETATM   22  O1  UNL     1      29.452  10.828  47.550  1.00  0.00    -0.356 OA
ENDBRANCH  17  19
ENDBRANCH   1  17
BRANCH   7  23
HETATM   23  O3  UNL     1      33.273   8.900  47.913  1.00  0.00    -0.382 OA
HETATM   24  C10 UNL     1      33.875   9.824  47.067  1.00  0.00     0.202 C 
ENDBRANCH   7  23
TORSDOF 3
ENDMDL
MODEL 9
REMARK VINA RESULT:      -6.5      6.781     10.022
REMARK  3 active torsions:
REMARK  status: ('A' for Active; 'I' for Inactive)
REMARK    1  A    between atoms: C3_3  and  N1_5 
REMARK    2  A    between atoms: N1_5  and  C4_6 
REMARK    3  A    between atoms: C9_12  and  O3_13 
ROOT
HETATM    1  C4  UNL     1      31.426   8.113  48.269  1.00  0.00     0.136 C 
HETATM    2  C5  UNL     1      31.627   7.562  49.661  1.00  0.00     0.078 C 
HETATM    3  C6  UNL     1      32.052   6.162  49.748  1.00  0.00     0.175 C 
HETATM    4  O2  UNL     1      32.864   5.693  48.715  1.00  0.00    -0.357 OA
HETATM    5  C7  UNL     1      32.227   6.104  47.546  1.00  0.00     0.175 C 
HETATM    6  C8  UNL     1      32.534   5.317  46.337  1.00  0.00     0.075 C 
HETATM    7  C9  UNL     1      32.598   7.583  47.442  1.00  0.00     0.222 C 
HETATM    8  N2  UNL     1      30.769   6.098  47.727  1.00  0.00    -0.281 N 
HETATM    9  C11 UNL     1      29.597   5.380  47.998  1.00  0.00     0.113 C 
HETATM   10  C12 UNL     1      28.562   6.188  48.221  1.00  0.00    -0.040 C 
HETATM   11  C13 UNL     1      27.131   5.954  48.546  1.00  0.00     0.041 C 
HETATM   12  C14 UNL     1      26.249   7.082  48.100  1.00  0.00     0.031 C 
HETATM   13  C15 UNL     1      26.920   7.911  47.066  1.00  0.00    -0.028 C 
HETATM   14  C16 UNL     1      28.220   8.178  47.010  1.00  0.00    -0.005 C 
HETATM   15  C17 UNL     1      29.065   7.587  48.087  1.00  0.00     0.135 C 
HETATM   16  N3  UNL     1      30.379   7.430  47.544  1.00  0.00    -0.183 NA
ENDROOT
BRANCH   1  17
HETATM   17  N1  UNL     1      31.314   9.517  48.339  1.00  0.00    -0.365 N 
HETATM   18  H4  UNL     1      30.986   9.997  49.206  1.00  0.00     0.158 HD
BRANCH  17  19
HETATM   19  C3  UNL     1      31.608  10.441  47.305  1.00  0.00     0.154 A 
HETATM   20  C2  UNL     1      32.725  11.384  47.214  1.00  0.00     0.057 A 
HETATM   21  C1  UNL     1      31.991  11.608  46.026  1.00  0.00     0.243 A 
HETATM   22  O1  UNL     1      30.839  10.505  46.298  1.00  0.00    -0.356 OA
ENDBRANCH  17  19
ENDBRANCH   1  17
BRANCH   7  23
HETATM   23  O3  UNL     1      33.812   7.841  48.055  1.00  0.00    -0.382 OA
HETATM   24  C10 UNL     1      34.771   8.350  47.186  1.00  0.00     0.202 C 
ENDBRANCH   7  23
TORSDOF 3
ENDMDL
