MODEL 1
REMARK VINA RESULT:      -8.4      0.000      0.000
REMARK  7 active torsions:
REMARK  status: ('A' for Active; 'I' for Inactive)
REMARK    1  A    between atoms: C1_2  and  C2_3 
REMARK       I    between atoms: C1_2  and  N2_20 
REMARK    2  A    between atoms: C2_3  and  N1_4 
REMARK    3  A    between atoms: N1_4  and  C3_5 
REMARK    4  A    between atoms: C7_9  and  C8_10 
REMARK    5  A    between atoms: C8_10  and  S1_12 
REMARK    6  A    between atoms: S1_12  and  C9_13 
REMARK    7  A    between atoms: N2_20  and  C16_21 
ROOT
HETATM    1  C3  UNL     1      22.061   0.934  52.591  1.00  0.00     0.029 A 
HETATM    2  C4  UNL     1      21.022   0.530  53.395  1.00  0.00     0.029 A 
HETATM    3  C5  UNL     1      21.121  -0.307  54.484  1.00  0.00     0.003 A 
HETATM    4  C6  UNL     1      22.361  -0.802  54.819  1.00  0.00     0.016 A 
HETATM    5  C7  UNL     1      23.451  -0.446  54.064  1.00  0.00     0.023 A 
HETATM    6  C15 UNL     1      23.277   0.390  53.000  1.00  0.00     0.045 A 
ENDROOT
BRANCH   1   7
HETATM    7  N1  UNL     1      21.925   1.793  51.484  1.00  0.00    -0.381 N 
HETATM    8  H3  UNL     1      21.685   1.335  50.579  1.00  0.00     0.160 HD
BRANCH   7   9
HETATM    9  C2  UNL     1      22.129   3.193  51.711  1.00  0.00     0.223 C 
BRANCH   9  10
HETATM   10  C1  UNL     1      23.307   3.748  50.995  1.00  0.00     0.239 C 
HETATM   11  O1  UNL     1      22.979   3.816  49.762  1.00  0.00    -0.271 OA
HETATM   12  N2  UNL     1      24.594   4.165  51.439  1.00  0.00    -0.326 N 
HETATM   13  H13 UNL     1      24.664   4.033  52.465  1.00  0.00     0.169 HD
BRANCH  12  14
HETATM   14  C16 UNL     1      25.493   4.658  50.451  1.00  0.00     0.034 A 
HETATM   15  C17 UNL     1      25.447   5.994  50.087  1.00  0.00     0.029 A 
HETATM   16  C18 UNL     1      26.282   6.579  49.130  1.00  0.00     0.002 A 
HETATM   17  C19 UNL     1      27.200   5.717  48.539  1.00  0.00     0.000 A 
HETATM   18  C20 UNL     1      27.290   4.381  48.862  1.00  0.00     0.002 A 
HETATM   19  C21 UNL     1      26.434   3.839  49.825  1.00  0.00     0.029 A 
ENDBRANCH  12  14
ENDBRANCH   9  10
ENDBRANCH   7   9
ENDBRANCH   1   7
BRANCH   5  20
HETATM   20  C8  UNL     1      24.758  -0.976  54.431  1.00  0.00     0.224 C 
HETATM   21  O2  UNL     1      24.961  -1.338  55.611  1.00  0.00    -0.279 OA
BRANCH  20  22
HETATM   22  S1  UNL     1      26.043  -1.098  53.184  1.00  0.00    -0.048 SA
BRANCH  22  23
HETATM   23  C9  UNL     1      27.202   0.240  53.419  1.00  0.00     0.008 A 
HETATM   24  C10 UNL     1      27.049   1.393  52.679  1.00  0.00     0.019 A 
HETATM   25  C11 UNL     1      27.950   2.440  52.860  1.00  0.00     0.001 A 
HETATM   26  C12 UNL     1      28.995   2.368  53.755  1.00  0.00     0.000 A 
HETATM   27  C13 UNL     1      29.136   1.203  54.491  1.00  0.00     0.001 A 
HETATM   28  C14 UNL     1      28.254   0.154  54.328  1.00  0.00     0.019 A 
ENDBRANCH  22  23
ENDBRANCH  20  22
ENDBRANCH   5  20
TORSDOF 7
ENDMDL
MODEL 2
REMARK VINA RESULT:      -8.3      1.366      1.735
REMARK  7 active torsions:
REMARK  status: ('A' for Active; 'I' for Inactive)
REMARK    1  A    between atoms: C1_2  and  C2_3 
REMARK       I    between atoms: C1_2  and  N2_20 
REMARK    2  A    between atoms: C2_3  and  N1_4 
REMARK    3  A    between atoms: N1_4  and  C3_5 
REMARK    4  A    between atoms: C7_9  and  C8_10 
REMARK    5  A    between atoms: C8_10  and  S1_12 
REMARK    6  A    between atoms: S1_12  and  C9_13 
REMARK    7  A    between atoms: N2_20  and  C16_21 
ROOT
HETATM    1  C3  UNL     1      21.325   0.615  52.843  1.00  0.00     0.029 A 
HETATM    2  C4  UNL     1      20.599  -0.235  53.643  1.00  0.00     0.029 A 
HETATM    3  C5  UNL     1      21.118  -1.148  54.533  1.00  0.00     0.003 A 
HETATM    4  C6  UNL     1      22.487  -1.243  54.652  1.00  0.00     0.016 A 
HETATM    5  C7  UNL     1      23.283  -0.428  53.885  1.00  0.00     0.023 A 
HETATM    6  C15 UNL     1      22.698   0.454  53.025  1.00  0.00     0.045 A 
ENDROOT
BRANCH   1   7
HETATM    7  N1  UNL     1      20.762   1.538  51.942  1.00  0.00    -0.381 N 
HETATM    8  H3  UNL     1      20.142   1.136  51.207  1.00  0.00     0.160 HD
BRANCH   7   9
HETATM    9  C2  UNL     1      21.094   2.919  52.126  1.00  0.00     0.223 C 
BRANCH   9  10
HETATM   10  C1  UNL     1      22.350   3.327  51.445  1.00  0.00     0.239 C 
HETATM   11  O1  UNL     1      23.003   4.032  52.287  1.00  0.00    -0.271 OA
HETATM   12  N2  UNL     1      22.865   3.073  50.142  1.00  0.00    -0.326 N 
HETATM   13  H13 UNL     1      22.192   2.486  49.614  1.00  0.00     0.169 HD
BRANCH  12  14
HETATM   14  C16 UNL     1      24.133   3.636  49.823  1.00  0.00     0.034 A 
HETATM   15  C17 UNL     1      24.198   4.881  49.216  1.00  0.00     0.029 A 
HETATM   16  C18 UNL     1      25.388   5.523  48.862  1.00  0.00     0.002 A 
HETATM   17  C19 UNL     1      26.551   4.822  49.160  1.00  0.00     0.000 A 
HETATM   18  C20 UNL     1      26.547   3.583  49.762  1.00  0.00     0.002 A 
HETATM   19  C21 UNL     1      25.332   2.978  50.099  1.00  0.00     0.029 A 
ENDBRANCH  12  14
ENDBRANCH   9  10
ENDBRANCH   7   9
ENDBRANCH   1   7
BRANCH   5  20
HETATM   20  C8  UNL     1      24.730  -0.538  54.021  1.00  0.00     0.224 C 
HETATM   21  O2  UNL     1      25.209  -1.051  55.056  1.00  0.00    -0.279 OA
BRANCH  20  22
HETATM   22  S1  UNL     1      25.788   0.064  52.703  1.00  0.00    -0.048 SA
BRANCH  22  23
HETATM   23  C9  UNL     1      27.479  -0.374  53.076  1.00  0.00     0.008 A 
HETATM   24  C10 UNL     1      28.344   0.610  53.503  1.00  0.00     0.019 A 
HETATM   25  C11 UNL     1      29.663   0.273  53.797  1.00  0.00     0.001 A 
HETATM   26  C12 UNL     1      30.141  -1.014  53.677  1.00  0.00     0.000 A 
HETATM   27  C13 UNL     1      29.259  -1.992  53.246  1.00  0.00     0.001 A 
HETATM   28  C14 UNL     1      27.948  -1.679  52.950  1.00  0.00     0.019 A 
ENDBRANCH  22  23
ENDBRANCH  20  22
ENDBRANCH   5  20
TORSDOF 7
ENDMDL
MODEL 3
REMARK VINA RESULT:      -8.1      2.112      5.628
REMARK  7 active torsions:
REMARK  status: ('A' for Active; 'I' for Inactive)
REMARK    1  A    between atoms: C1_2  and  C2_3 
REMARK       I    between atoms: C1_2  and  N2_20 
REMARK    2  A    between atoms: C2_3  and  N1_4 
REMARK    3  A    between atoms: N1_4  and  C3_5 
REMARK    4  A    between atoms: C7_9  and  C8_10 
REMARK    5  A    between atoms: C8_10  and  S1_12 
REMARK    6  A    between atoms: S1_12  and  C9_13 
REMARK    7  A    between atoms: N2_20  and  C16_21 
ROOT
HETATM    1  C3  UNL     1      21.894   0.012  52.867  1.00  0.00     0.029 A 
HETATM    2  C4  UNL     1      20.535  -0.192  52.817  1.00  0.00     0.029 A 
HETATM    3  C5  UNL     1      19.588   0.752  52.488  1.00  0.00     0.003 A 
HETATM    4  C6  UNL     1      20.012   2.026  52.179  1.00  0.00     0.016 A 
HETATM    5  C7  UNL     1      21.354   2.310  52.208  1.00  0.00     0.023 A 
HETATM    6  C15 UNL     1      22.235   1.324  52.541  1.00  0.00     0.045 A 
ENDROOT
BRANCH   1   7
HETATM    7  N1  UNL     1      22.836  -0.976  53.207  1.00  0.00    -0.381 N 
HETATM    8  H3  UNL     1      22.916  -1.776  52.544  1.00  0.00     0.160 HD
BRANCH   7   9
HETATM    9  C2  UNL     1      23.582  -0.784  54.415  1.00  0.00     0.223 C 
BRANCH   9  10
HETATM   10  C1  UNL     1      25.050  -0.695  54.203  1.00  0.00     0.239 C 
HETATM   11  O1  UNL     1      25.585  -0.767  55.362  1.00  0.00    -0.271 OA
HETATM   12  N2  UNL     1      25.846  -0.558  53.031  1.00  0.00    -0.326 N 
HETATM   13  H13 UNL     1      25.230  -0.518  52.198  1.00  0.00     0.169 HD
BRANCH  12  14
HETATM   14  C16 UNL     1      27.258  -0.505  53.208  1.00  0.00     0.034 A 
HETATM   15  C17 UNL     1      27.869   0.706  53.495  1.00  0.00     0.029 A 
HETATM   16  C18 UNL     1      29.244   0.869  53.686  1.00  0.00     0.002 A 
HETATM   17  C19 UNL     1      30.000  -0.292  53.570  1.00  0.00     0.000 A 
HETATM   18  C20 UNL     1      29.447  -1.522  53.288  1.00  0.00     0.002 A 
HETATM   19  C21 UNL     1      28.066  -1.638  53.104  1.00  0.00     0.029 A 
ENDBRANCH  12  14
ENDBRANCH   9  10
ENDBRANCH   7   9
ENDBRANCH   1   7
BRANCH   5  20
HETATM   20  C8  UNL     1      21.789   3.662  51.878  1.00  0.00     0.224 C 
HETATM   21  O2  UNL     1      21.069   4.371  51.142  1.00  0.00    -0.279 OA
BRANCH  20  22
HETATM   22  S1  UNL     1      23.342   4.274  52.536  1.00  0.00    -0.048 SA
BRANCH  22  23
HETATM   23  C9  UNL     1      24.631   3.982  51.334  1.00  0.00     0.008 A 
HETATM   24  C10 UNL     1      25.453   2.887  51.491  1.00  0.00     0.019 A 
HETATM   25  C11 UNL     1      26.459   2.654  50.557  1.00  0.00     0.001 A 
HETATM   26  C12 UNL     1      26.666   3.481  49.474  1.00  0.00     0.000 A 
HETATM   27  C13 UNL     1      25.832   4.578  49.330  1.00  0.00     0.001 A 
HETATM   28  C14 UNL     1      24.829   4.826  50.245  1.00  0.00     0.019 A 
ENDBRANCH  22  23
ENDBRANCH  20  22
ENDBRANCH   5  20
TORSDOF 7
ENDMDL
MODEL 4
REMARK VINA RESULT:      -8.1      2.325      6.102
REMARK  7 active torsions:
REMARK  status: ('A' for Active; 'I' for Inactive)
REMARK    1  A    between atoms: C1_2  and  C2_3 
REMARK       I    between atoms: C1_2  and  N2_20 
REMARK    2  A    between atoms: C2_3  and  N1_4 
REMARK    3  A    between atoms: N1_4  and  C3_5 
REMARK    4  A    between atoms: C7_9  and  C8_10 
REMARK    5  A    between atoms: C8_10  and  S1_12 
REMARK    6  A    between atoms: S1_12  and  C9_13 
REMARK    7  A    between atoms: N2_20  and  C16_21 
ROOT
HETATM    1  C3  UNL     1      22.284   0.500  51.971  1.00  0.00     0.029 A 
HETATM    2  C4  UNL     1      21.313   0.462  50.998  1.00  0.00     0.029 A 
HETATM    3  C5  UNL     1      20.882   1.531  50.245  1.00  0.00     0.003 A 
HETATM    4  C6  UNL     1      21.456   2.763  50.467  1.00  0.00     0.016 A 
HETATM    5  C7  UNL     1      22.434   2.883  51.423  1.00  0.00     0.023 A 
HETATM    6  C15 UNL     1      22.811   1.780  52.130  1.00  0.00     0.045 A 
ENDROOT
BRANCH   1   7
HETATM    7  N1  UNL     1      22.702  -0.614  52.723  1.00  0.00    -0.381 N 
HETATM    8  H3  UNL     1      22.455  -1.547  52.330  1.00  0.00     0.160 HD
BRANCH   7   9
HETATM    9  C2  UNL     1      23.418  -0.355  53.937  1.00  0.00     0.223 C 
BRANCH   9  10
HETATM   10  C1  UNL     1      24.881  -0.584  53.828  1.00  0.00     0.239 C 
HETATM   11  O1  UNL     1      25.259  -1.038  54.962  1.00  0.00    -0.271 OA
HETATM   12  N2  UNL     1      25.809  -0.392  52.765  1.00  0.00    -0.326 N 
HETATM   13  H13 UNL     1      25.311  -0.019  51.936  1.00  0.00     0.169 HD
BRANCH  12  14
HETATM   14  C16 UNL     1      27.169  -0.727  53.022  1.00  0.00     0.034 A 
HETATM   15  C17 UNL     1      27.608  -2.025  52.813  1.00  0.00     0.029 A 
HETATM   16  C18 UNL     1      28.918  -2.459  53.034  1.00  0.00     0.002 A 
HETATM   17  C19 UNL     1      29.796  -1.483  53.493  1.00  0.00     0.000 A 
HETATM   18  C20 UNL     1      29.416  -0.178  53.718  1.00  0.00     0.002 A 
HETATM   19  C21 UNL     1      28.094   0.211  53.483  1.00  0.00     0.029 A 
ENDBRANCH  12  14
ENDBRANCH   9  10
ENDBRANCH   7   9
ENDBRANCH   1   7
BRANCH   5  20
HETATM   20  C8  UNL     1      23.034   4.193  51.647  1.00  0.00     0.224 C 
HETATM   21  O2  UNL     1      23.379   4.517  52.804  1.00  0.00    -0.279 OA
BRANCH  20  22
HETATM   22  S1  UNL     1      23.262   5.307  50.259  1.00  0.00    -0.048 SA
BRANCH  22  23
HETATM   23  C9  UNL     1      24.930   5.127  49.646  1.00  0.00     0.008 A 
HETATM   24  C10 UNL     1      25.535   6.204  49.033  1.00  0.00     0.019 A 
HETATM   25  C11 UNL     1      26.836   6.069  48.554  1.00  0.00     0.001 A 
HETATM   26  C12 UNL     1      27.547   4.895  48.670  1.00  0.00     0.000 A 
HETATM   27  C13 UNL     1      26.926   3.822  49.288  1.00  0.00     0.001 A 
HETATM   28  C14 UNL     1      25.637   3.935  49.770  1.00  0.00     0.019 A 
ENDBRANCH  22  23
ENDBRANCH  20  22
ENDBRANCH   5  20
TORSDOF 7
ENDMDL
MODEL 5
REMARK VINA RESULT:      -8.0      2.546      5.931
REMARK  7 active torsions:
REMARK  status: ('A' for Active; 'I' for Inactive)
REMARK    1  A    between atoms: C1_2  and  C2_3 
REMARK       I    between atoms: C1_2  and  N2_20 
REMARK    2  A    between atoms: C2_3  and  N1_4 
REMARK    3  A    between atoms: N1_4  and  C3_5 
REMARK    4  A    between atoms: C7_9  and  C8_10 
REMARK    5  A    between atoms: C8_10  and  S1_12 
REMARK    6  A    between atoms: S1_12  and  C9_13 
REMARK    7  A    between atoms: N2_20  and  C16_21 
ROOT
HETATM    1  C3  UNL     1      23.144   3.526  49.636  1.00  0.00     0.029 A 
HETATM    2  C4  UNL     1      23.264   3.015  48.365  1.00  0.00     0.029 A 
HETATM    3  C5  UNL     1      22.440   2.072  47.791  1.00  0.00     0.003 A 
HETATM    4  C6  UNL     1      21.393   1.577  48.537  1.00  0.00     0.016 A 
HETATM    5  C7  UNL     1      21.206   2.037  49.817  1.00  0.00     0.023 A 
HETATM    6  C15 UNL     1      22.062   2.973  50.318  1.00  0.00     0.045 A 
ENDROOT
BRANCH   1   7
HETATM    7  N1  UNL     1      24.004   4.491  50.192  1.00  0.00    -0.381 N 
HETATM    8  H3  UNL     1      23.548   5.228  50.771  1.00  0.00     0.160 HD
BRANCH   7   9
HETATM    9  C2  UNL     1      25.403   4.363  49.910  1.00  0.00     0.223 C 
BRANCH   9  10
HETATM   10  C1  UNL     1      26.077   3.302  50.702  1.00  0.00     0.239 C 
HETATM   11  O1  UNL     1      26.914   2.743  49.914  1.00  0.00    -0.271 OA
HETATM   12  N2  UNL     1      25.938   2.874  52.053  1.00  0.00    -0.326 N 
HETATM   13  H13 UNL     1      25.214   3.448  52.523  1.00  0.00     0.169 HD
BRANCH  12  14
HETATM   14  C16 UNL     1      26.769   1.801  52.483  1.00  0.00     0.034 A 
HETATM   15  C17 UNL     1      26.387   0.493  52.230  1.00  0.00     0.029 A 
HETATM   16  C18 UNL     1      27.126  -0.631  52.608  1.00  0.00     0.002 A 
HETATM   17  C19 UNL     1      28.314  -0.360  53.279  1.00  0.00     0.000 A 
HETATM   18  C20 UNL     1      28.744   0.919  53.557  1.00  0.00     0.002 A 
HETATM   19  C21 UNL     1      27.971   2.014  53.159  1.00  0.00     0.029 A 
ENDBRANCH  12  14
ENDBRANCH   9  10
ENDBRANCH   7   9
ENDBRANCH   1   7
BRANCH   5  20
HETATM   20  C8  UNL     1      20.093   1.504  50.593  1.00  0.00     0.224 C 
HETATM   21  O2  UNL     1      19.206   0.841  50.014  1.00  0.00    -0.279 OA
BRANCH  20  22
HETATM   22  S1  UNL     1      20.024   1.812  52.360  1.00  0.00    -0.048 SA
BRANCH  22  23
HETATM   23  C9  UNL     1      21.050   0.611  53.194  1.00  0.00     0.008 A 
HETATM   24  C10 UNL     1      20.449  -0.464  53.813  1.00  0.00     0.019 A 
HETATM   25  C11 UNL     1      21.244  -1.404  54.464  1.00  0.00     0.001 A 
HETATM   26  C12 UNL     1      22.617  -1.301  54.514  1.00  0.00     0.000 A 
HETATM   27  C13 UNL     1      23.207  -0.214  53.887  1.00  0.00     0.001 A 
HETATM   28  C14 UNL     1      22.436   0.728  53.236  1.00  0.00     0.019 A 
ENDBRANCH  22  23
ENDBRANCH  20  22
ENDBRANCH   5  20
TORSDOF 7
ENDMDL
MODEL 6
REMARK VINA RESULT:      -8.0      2.458      6.055
REMARK  7 active torsions:
REMARK  status: ('A' for Active; 'I' for Inactive)
REMARK    1  A    between atoms: C1_2  and  C2_3 
REMARK       I    between atoms: C1_2  and  N2_20 
REMARK    2  A    between atoms: C2_3  and  N1_4 
REMARK    3  A    between atoms: N1_4  and  C3_5 
REMARK    4  A    between atoms: C7_9  and  C8_10 
REMARK    5  A    between atoms: C8_10  and  S1_12 
REMARK    6  A    between atoms: S1_12  and  C9_13 
REMARK    7  A    between atoms: N2_20  and  C16_21 
ROOT
HETATM    1  C3  UNL     1      23.883   5.348  50.947  1.00  0.00     0.029 A 
HETATM    2  C4  UNL     1      23.147   6.479  50.685  1.00  0.00     0.029 A 
HETATM    3  C5  UNL     1      21.777   6.590  50.774  1.00  0.00     0.003 A 
HETATM    4  C6  UNL     1      21.053   5.482  51.155  1.00  0.00     0.016 A 
HETATM    5  C7  UNL     1      21.716   4.313  51.433  1.00  0.00     0.023 A 
HETATM    6  C15 UNL     1      23.075   4.277  51.326  1.00  0.00     0.045 A 
ENDROOT
BRANCH   1   7
HETATM    7  N1  UNL     1      25.285   5.268  50.847  1.00  0.00    -0.381 N 
HETATM    8  H3  UNL     1      25.821   5.980  51.388  1.00  0.00     0.160 HD
BRANCH   7   9
HETATM    9  C2  UNL     1      25.826   4.230  50.022  1.00  0.00     0.223 C 
BRANCH   9  10
HETATM   10  C1  UNL     1      26.415   3.102  50.790  1.00  0.00     0.239 C 
HETATM   11  O1  UNL     1      26.990   2.347  49.935  1.00  0.00    -0.271 OA
HETATM   12  N2  UNL     1      26.425   2.786  52.178  1.00  0.00    -0.326 N 
HETATM   13  H13 UNL     1      25.908   3.516  52.703  1.00  0.00     0.169 HD
BRANCH  12  14
HETATM   14  C16 UNL     1      27.102   1.595  52.568  1.00  0.00     0.034 A 
HETATM   15  C17 UNL     1      28.326   1.681  53.212  1.00  0.00     0.029 A 
HETATM   16  C18 UNL     1      29.073   0.578  53.635  1.00  0.00     0.002 A 
HETATM   17  C19 UNL     1      28.503  -0.662  53.366  1.00  0.00     0.000 A 
HETATM   18  C20 UNL     1      27.290  -0.807  52.730  1.00  0.00     0.002 A 
HETATM   19  C21 UNL     1      26.578   0.325  52.324  1.00  0.00     0.029 A 
ENDBRANCH  12  14
ENDBRANCH   9  10
ENDBRANCH   7   9
ENDBRANCH   1   7
BRANCH   5  20
HETATM   20  C8  UNL     1      20.938   3.148  51.837  1.00  0.00     0.224 C 
HETATM   21  O2  UNL     1      19.982   3.297  52.629  1.00  0.00    -0.279 OA
BRANCH  20  22
HETATM   22  S1  UNL     1      21.367   1.532  51.187  1.00  0.00    -0.048 SA
BRANCH  22  23
HETATM   23  C9  UNL     1      21.720   0.437  52.553  1.00  0.00     0.008 A 
HETATM   24  C10 UNL     1      23.029   0.270  52.953  1.00  0.00     0.019 A 
HETATM   25  C11 UNL     1      23.309  -0.581  54.018  1.00  0.00     0.001 A 
HETATM   26  C12 UNL     1      22.324  -1.268  54.694  1.00  0.00     0.000 A 
HETATM   27  C13 UNL     1      21.013  -1.091  54.280  1.00  0.00     0.001 A 
HETATM   28  C14 UNL     1      20.714  -0.251  53.226  1.00  0.00     0.019 A 
ENDBRANCH  22  23
ENDBRANCH  20  22
ENDBRANCH   5  20
TORSDOF 7
ENDMDL
MODEL 7
REMARK VINA RESULT:      -7.8      2.429      6.476
REMARK  7 active torsions:
REMARK  status: ('A' for Active; 'I' for Inactive)
REMARK    1  A    between atoms: C1_2  and  C2_3 
REMARK       I    between atoms: C1_2  and  N2_20 
REMARK    2  A    between atoms: C2_3  and  N1_4 
REMARK    3  A    between atoms: N1_4  and  C3_5 
REMARK    4  A    between atoms: C7_9  and  C8_10 
REMARK    5  A    between atoms: C8_10  and  S1_12 
REMARK    6  A    between atoms: S1_12  and  C9_13 
REMARK    7  A    between atoms: N2_20  and  C16_21 
ROOT
HETATM    1  C3  UNL     1      23.934   3.413  50.729  1.00  0.00     0.029 A 
HETATM    2  C4  UNL     1      24.862   3.609  49.734  1.00  0.00     0.029 A 
HETATM    3  C5  UNL     1      26.187   3.234  49.778  1.00  0.00     0.003 A 
HETATM    4  C6  UNL     1      26.652   2.605  50.912  1.00  0.00     0.016 A 
HETATM    5  C7  UNL     1      25.786   2.374  51.952  1.00  0.00     0.023 A 
HETATM    6  C15 UNL     1      24.487   2.771  51.837  1.00  0.00     0.045 A 
ENDROOT
BRANCH   1   7
HETATM    7  N1  UNL     1      22.586   3.808  50.652  1.00  0.00    -0.381 N 
HETATM    8  H3  UNL     1      22.266   4.152  49.721  1.00  0.00     0.160 HD
BRANCH   7   9
HETATM    9  C2  UNL     1      21.800   3.699  51.845  1.00  0.00     0.223 C 
BRANCH   9  10
HETATM   10  C1  UNL     1      20.719   2.684  51.757  1.00  0.00     0.239 C 
HETATM   11  O1  UNL     1      19.739   3.144  52.436  1.00  0.00    -0.271 OA
HETATM   12  N2  UNL     1      20.634   1.424  51.101  1.00  0.00    -0.326 N 
HETATM   13  H13 UNL     1      21.524   1.231  50.607  1.00  0.00     0.169 HD
BRANCH  12  14
HETATM   14  C16 UNL     1      19.413   0.703  51.236  1.00  0.00     0.034 A 
HETATM   15  C17 UNL     1      18.493   0.710  50.199  1.00  0.00     0.029 A 
HETATM   16  C18 UNL     1      17.268   0.038  50.228  1.00  0.00     0.002 A 
HETATM   17  C19 UNL     1      17.007  -0.667  51.398  1.00  0.00     0.000 A 
HETATM   18  C20 UNL     1      17.883  -0.709  52.460  1.00  0.00     0.002 A 
HETATM   19  C21 UNL     1      19.098  -0.021  52.386  1.00  0.00     0.029 A 
ENDBRANCH  12  14
ENDBRANCH   9  10
ENDBRANCH   7   9
ENDBRANCH   1   7
BRANCH   5  20
HETATM   20  C8  UNL     1      26.293   1.706  53.145  1.00  0.00     0.224 C 
HETATM   21  O2  UNL     1      26.769   2.395  54.074  1.00  0.00    -0.279 OA
BRANCH  20  22
HETATM   22  S1  UNL     1      26.218  -0.084  53.253  1.00  0.00    -0.048 SA
BRANCH  22  23
HETATM   23  C9  UNL     1      24.618  -0.556  53.889  1.00  0.00     0.008 A 
HETATM   24  C10 UNL     1      24.536  -1.099  55.154  1.00  0.00     0.019 A 
HETATM   25  C11 UNL     1      23.290  -1.467  55.654  1.00  0.00     0.001 A 
HETATM   26  C12 UNL     1      22.128  -1.311  54.930  1.00  0.00     0.000 A 
HETATM   27  C13 UNL     1      22.226  -0.764  53.661  1.00  0.00     0.001 A 
HETATM   28  C14 UNL     1      23.451  -0.392  53.147  1.00  0.00     0.019 A 
ENDBRANCH  22  23
ENDBRANCH  20  22
ENDBRANCH   5  20
TORSDOF 7
ENDMDL
MODEL 8
REMARK VINA RESULT:      -7.7      4.264      8.491
REMARK  7 active torsions:
REMARK  status: ('A' for Active; 'I' for Inactive)
REMARK    1  A    between atoms: C1_2  and  C2_3 
REMARK       I    between atoms: C1_2  and  N2_20 
REMARK    2  A    between atoms: C2_3  and  N1_4 
REMARK    3  A    between atoms: N1_4  and  C3_5 
REMARK    4  A    between atoms: C7_9  and  C8_10 
REMARK    5  A    between atoms: C8_10  and  S1_12 
REMARK    6  A    between atoms: S1_12  and  C9_13 
REMARK    7  A    between atoms: N2_20  and  C16_21 
ROOT
HETATM    1  C3  UNL     1      26.696   6.512  48.857  1.00  0.00     0.029 A 
HETATM    2  C4  UNL     1      26.045   7.344  47.977  1.00  0.00     0.029 A 
HETATM    3  C5  UNL     1      26.626   8.030  46.933  1.00  0.00     0.003 A 
HETATM    4  C6  UNL     1      27.981   7.891  46.731  1.00  0.00     0.016 A 
HETATM    5  C7  UNL     1      28.703   7.078  47.569  1.00  0.00     0.023 A 
HETATM    6  C15 UNL     1      28.060   6.428  48.581  1.00  0.00     0.045 A 
ENDROOT
BRANCH   1   7
HETATM    7  N1  UNL     1      26.072   5.824  49.914  1.00  0.00    -0.381 N 
HETATM    8  H3  UNL     1      26.041   6.325  50.827  1.00  0.00     0.160 HD
BRANCH   7   9
HETATM    9  C2  UNL     1      25.549   4.521  49.631  1.00  0.00     0.223 C 
BRANCH   9  10
HETATM   10  C1  UNL     1      26.142   3.445  50.465  1.00  0.00     0.239 C 
HETATM   11  O1  UNL     1      27.001   2.851  49.728  1.00  0.00    -0.271 OA
HETATM   12  N2  UNL     1      25.915   3.033  51.809  1.00  0.00    -0.326 N 
HETATM   13  H13 UNL     1      25.187   3.636  52.236  1.00  0.00     0.169 HD
BRANCH  12  14
HETATM   14  C16 UNL     1      26.684   1.936  52.291  1.00  0.00     0.034 A 
HETATM   15  C17 UNL     1      26.284   0.640  52.005  1.00  0.00     0.029 A 
HETATM   16  C18 UNL     1      26.964  -0.506  52.429  1.00  0.00     0.002 A 
HETATM   17  C19 UNL     1      28.110  -0.270  53.182  1.00  0.00     0.000 A 
HETATM   18  C20 UNL     1      28.554   0.995  53.496  1.00  0.00     0.002 A 
HETATM   19  C21 UNL     1      27.841   2.113  53.051  1.00  0.00     0.029 A 
ENDBRANCH  12  14
ENDBRANCH   9  10
ENDBRANCH   7   9
ENDBRANCH   1   7
BRANCH   5  20
HETATM   20  C8  UNL     1      30.136   6.940  47.343  1.00  0.00     0.224 C 
HETATM   21  O2  UNL     1      30.625   7.334  46.261  1.00  0.00    -0.279 OA
BRANCH  20  22
HETATM   22  S1  UNL     1      31.164   6.209  48.619  1.00  0.00    -0.048 SA
BRANCH  22  23
HETATM   23  C9  UNL     1      32.164   4.923  47.886  1.00  0.00     0.008 A 
HETATM   24  C10 UNL     1      31.553   3.971  47.098  1.00  0.00     0.019 A 
HETATM   25  C11 UNL     1      32.328   2.967  46.524  1.00  0.00     0.001 A 
HETATM   26  C12 UNL     1      33.691   2.887  46.713  1.00  0.00     0.000 A 
HETATM   27  C13 UNL     1      34.291   3.850  47.508  1.00  0.00     0.001 A 
HETATM   28  C14 UNL     1      33.540   4.854  48.086  1.00  0.00     0.019 A 
ENDBRANCH  22  23
ENDBRANCH  20  22
ENDBRANCH   5  20
TORSDOF 7
ENDMDL
MODEL 9
REMARK VINA RESULT:      -7.6      1.428      1.851
REMARK  7 active torsions:
REMARK  status: ('A' for Active; 'I' for Inactive)
REMARK    1  A    between atoms: C1_2  and  C2_3 
REMARK       I    between atoms: C1_2  and  N2_20 
REMARK    2  A    between atoms: C2_3  and  N1_4 
REMARK    3  A    between atoms: N1_4  and  C3_5 
REMARK    4  A    between atoms: C7_9  and  C8_10 
REMARK    5  A    between atoms: C8_10  and  S1_12 
REMARK    6  A    between atoms: S1_12  and  C9_13 
REMARK    7  A    between atoms: N2_20  and  C16_21 
ROOT
HETATM    1  C3  UNL     1      21.709   2.518  52.297  1.00  0.00     0.029 A 
HETATM    2  C4  UNL     1      20.704   1.760  52.849  1.00  0.00     0.029 A 
HETATM    3  C5  UNL     1      20.867   0.580  53.539  1.00  0.00     0.003 A 
HETATM    4  C6  UNL     1      22.143   0.089  53.705  1.00  0.00     0.016 A 
HETATM    5  C7  UNL     1      23.202   0.788  53.181  1.00  0.00     0.023 A 
HETATM    6  C15 UNL     1      22.965   1.951  52.510  1.00  0.00     0.045 A 
ENDROOT
BRANCH   1   7
HETATM    7  N1  UNL     1      21.507   3.722  51.596  1.00  0.00    -0.381 N 
HETATM    8  H3  UNL     1      20.859   3.671  50.782  1.00  0.00     0.160 HD
BRANCH   7   9
HETATM    9  C2  UNL     1      22.205   4.880  52.068  1.00  0.00     0.223 C 
BRANCH   9  10
HETATM   10  C1  UNL     1      23.277   5.347  51.151  1.00  0.00     0.239 C 
HETATM   11  O1  UNL     1      22.903   5.029  49.971  1.00  0.00    -0.271 OA
HETATM   12  N2  UNL     1      24.512   6.017  51.376  1.00  0.00    -0.326 N 
HETATM   13  H13 UNL     1      24.633   6.185  52.392  1.00  0.00     0.169 HD
BRANCH  12  14
HETATM   14  C16 UNL     1      25.308   6.315  50.233  1.00  0.00     0.034 A 
HETATM   15  C17 UNL     1      25.230   7.571  49.652  1.00  0.00     0.029 A 
HETATM   16  C18 UNL     1      25.965   7.966  48.531  1.00  0.00     0.002 A 
HETATM   17  C19 UNL     1      26.813   6.997  48.006  1.00  0.00     0.000 A 
HETATM   18  C20 UNL     1      26.931   5.734  48.542  1.00  0.00     0.002 A 
HETATM   19  C21 UNL     1      26.176   5.382  49.665  1.00  0.00     0.029 A 
ENDBRANCH  12  14
ENDBRANCH   9  10
ENDBRANCH   7   9
ENDBRANCH   1   7
BRANCH   5  20
HETATM   20  C8  UNL     1      24.548   0.257  53.365  1.00  0.00     0.224 C 
HETATM   21  O2  UNL     1      24.777  -0.504  54.330  1.00  0.00    -0.279 OA
BRANCH  20  22
HETATM   22  S1  UNL     1      25.840   0.708  52.205  1.00  0.00    -0.048 SA
BRANCH  22  23
HETATM   23  C9  UNL     1      27.395   0.059  52.794  1.00  0.00     0.008 A 
HETATM   24  C10 UNL     1      28.331   0.931  53.309  1.00  0.00     0.019 A 
HETATM   25  C11 UNL     1      29.545   0.429  53.771  1.00  0.00     0.001 A 
HETATM   26  C12 UNL     1      29.850  -0.914  53.734  1.00  0.00     0.000 A 
HETATM   27  C13 UNL     1      28.901  -1.778  53.213  1.00  0.00     0.001 A 
HETATM   28  C14 UNL     1      27.691  -1.301  52.751  1.00  0.00     0.019 A 
ENDBRANCH  22  23
ENDBRANCH  20  22
ENDBRANCH   5  20
TORSDOF 7
ENDMDL
