MODEL 1
REMARK VINA RESULT:      -7.2      0.000      0.000
REMARK  9 active torsions:
REMARK  status: ('A' for Active; 'I' for Inactive)
REMARK    1  A    between atoms: C2_2  and  C3_3 
REMARK    2  A    between atoms: C3_3  and  C4_4 
REMARK    3  A    between atoms: C3_3  and  N3_18 
REMARK    4  A    between atoms: C9_10  and  N2_11 
REMARK    5  A    between atoms: N2_11  and  C10_12 
REMARK       I    between atoms: N3_18  and  C15_19 
REMARK    6  A    between atoms: C15_19  and  C16_21 
REMARK    7  A    between atoms: C16_21  and  C17_22 
REMARK    8  A    between atoms: C17_22  and  C18_23 
REMARK    9  A    between atoms: C18_23  and  N4_24 
ROOT
HETATM    1  C4  UNL     1      23.109   0.819  52.325  1.00  0.00     0.009 C 
HETATM    2  C5  UNL     1      23.181   0.080  53.397  1.00  0.00    -0.013 A 
HETATM    3  C6  UNL     1      21.894  -0.237  54.069  1.00  0.00     0.189 A 
HETATM    4  N1  UNL     1      22.127  -1.076  55.205  1.00  0.00    -0.297 NA
HETATM    5  C7  UNL     1      23.267  -1.478  55.580  1.00  0.00     0.113 A 
HETATM    6  C8  UNL     1      24.513  -1.160  54.927  1.00  0.00     0.049 A 
HETATM    7  C9  UNL     1      24.473  -0.393  53.855  1.00  0.00     0.041 A 
ENDROOT
BRANCH   1   8
HETATM    8  C3  UNL     1      21.869   1.345  51.744  1.00  0.00     0.107 C 
BRANCH   8   9
HETATM    9  C2  UNL     1      21.336   0.522  50.588  1.00  0.00     0.025 C 
HETATM   10  C1  UNL     1      21.577   1.160  49.247  1.00  0.00     0.007 C 
ENDBRANCH   8   9
BRANCH   8  11
HETATM   11  N3  UNL     1      21.970   2.725  51.316  1.00  0.00    -0.353 N 
HETATM   12  C15 UNL     1      21.113   3.702  51.868  1.00  0.00     0.218 C 
HETATM   13  O1  UNL     1      20.251   3.426  52.738  1.00  0.00    -0.274 OA
HETATM   14  H17 UNL     1      22.720   2.835  50.602  1.00  0.00     0.163 HD
BRANCH  12  15
HETATM   15  C16 UNL     1      21.318   5.072  51.335  1.00  0.00     0.104 C 
BRANCH  15  16
HETATM   16  C17 UNL     1      22.593   5.232  50.562  1.00  0.00     0.039 C 
BRANCH  16  17
HETATM   17  C18 UNL     1      23.723   5.824  51.345  1.00  0.00     0.271 C 
BRANCH  17  18
HETATM   18  N4  UNL     1      24.877   5.854  50.434  1.00  0.00     0.080 N 
HETATM   19  C19 UNL     1      25.457   7.165  50.369  1.00  0.00     0.309 C 
HETATM   20  C20 UNL     1      24.439   5.405  49.132  1.00  0.00     0.309 C 
ENDBRANCH  17  18
ENDBRANCH  16  17
ENDBRANCH  15  16
ENDBRANCH  12  15
ENDBRANCH   8  11
ENDBRANCH   1   8
BRANCH   7  21
HETATM   21  N2  UNL     1      25.726  -0.118  53.260  1.00  0.00    -0.358 N 
HETATM   22  H12 UNL     1      26.020  -0.554  52.364  1.00  0.00     0.166 HD
BRANCH  21  23
HETATM   23  C10 UNL     1      26.883   0.659  53.498  1.00  0.00     0.030 A 
HETATM   24  C11 UNL     1      27.311   1.732  52.859  1.00  0.00     0.033 A 
HETATM   25 BR1  UNL     1      26.328   2.460  51.372  1.00  0.00    -0.049 Br
HETATM   26  C12 UNL     1      28.548   2.267  53.391  1.00  0.00     0.017 A 
HETATM   27  C13 UNL     1      28.862   1.464  54.396  1.00  0.00    -0.019 A 
HETATM   28  C14 UNL     1      27.878   0.371  54.594  1.00  0.00     0.085 A 
ENDBRANCH  21  23
ENDBRANCH   7  21
TORSDOF 9
ENDMDL
MODEL 2
REMARK VINA RESULT:      -7.0      2.311      3.635
REMARK  9 active torsions:
REMARK  status: ('A' for Active; 'I' for Inactive)
REMARK    1  A    between atoms: C2_2  and  C3_3 
REMARK    2  A    between atoms: C3_3  and  C4_4 
REMARK    3  A    between atoms: C3_3  and  N3_18 
REMARK    4  A    between atoms: C9_10  and  N2_11 
REMARK    5  A    between atoms: N2_11  and  C10_12 
REMARK       I    between atoms: N3_18  and  C15_19 
REMARK    6  A    between atoms: C15_19  and  C16_21 
REMARK    7  A    between atoms: C16_21  and  C17_22 
REMARK    8  A    between atoms: C17_22  and  C18_23 
REMARK    9  A    between atoms: C18_23  and  N4_24 
ROOT
HETATM    1  C4  UNL     1      25.752   2.407  51.478  1.00  0.00     0.009 C 
HETATM    2  C5  UNL     1      24.820   1.623  51.947  1.00  0.00    -0.013 A 
HETATM    3  C6  UNL     1      23.486   1.722  51.301  1.00  0.00     0.189 A 
HETATM    4  N1  UNL     1      22.581   0.785  51.896  1.00  0.00    -0.297 NA
HETATM    5  C7  UNL     1      22.882  -0.004  52.839  1.00  0.00     0.113 A 
HETATM    6  C8  UNL     1      24.178  -0.090  53.466  1.00  0.00     0.049 A 
HETATM    7  C9  UNL     1      25.132   0.710  53.030  1.00  0.00     0.041 A 
ENDROOT
BRANCH   1   8
HETATM    8  C3  UNL     1      25.577   3.359  50.376  1.00  0.00     0.107 C 
BRANCH   8   9
HETATM    9  C2  UNL     1      26.643   3.256  49.303  1.00  0.00     0.025 C 
HETATM   10  C1  UNL     1      27.242   4.586  48.934  1.00  0.00     0.007 C 
ENDBRANCH   8   9
BRANCH   8  11
HETATM   11  N3  UNL     1      25.496   4.738  50.810  1.00  0.00    -0.353 N 
HETATM   12  C15 UNL     1      24.300   5.467  50.632  1.00  0.00     0.218 C 
HETATM   13  O1  UNL     1      23.277   4.963  50.107  1.00  0.00    -0.274 OA
HETATM   14  H17 UNL     1      26.397   5.045  51.234  1.00  0.00     0.163 HD
BRANCH  12  15
HETATM   15  C16 UNL     1      24.357   6.870  51.113  1.00  0.00     0.104 C 
BRANCH  15  16
HETATM   16  C17 UNL     1      25.470   7.671  50.503  1.00  0.00     0.039 C 
BRANCH  16  17
HETATM   17  C18 UNL     1      25.037   8.603  49.415  1.00  0.00     0.271 C 
BRANCH  17  18
HETATM   18  N4  UNL     1      26.160   8.669  48.467  1.00  0.00     0.080 N 
HETATM   19  C19 UNL     1      25.957   7.784  47.355  1.00  0.00     0.309 C 
HETATM   20  C20 UNL     1      27.375   8.349  49.181  1.00  0.00     0.309 C 
ENDBRANCH  17  18
ENDBRANCH  16  17
ENDBRANCH  15  16
ENDBRANCH  12  15
ENDBRANCH   8  11
ENDBRANCH   1   8
BRANCH   7  21
HETATM   21  N2  UNL     1      26.379   0.578  53.684  1.00  0.00    -0.358 N 
HETATM   22  H12 UNL     1      26.602   1.094  54.557  1.00  0.00     0.166 HD
BRANCH  21  23
HETATM   23  C10 UNL     1      27.602  -0.114  53.537  1.00  0.00     0.030 A 
HETATM   24  C11 UNL     1      28.837   0.342  53.650  1.00  0.00     0.033 A 
HETATM   25 BR1  UNL     1      29.176   2.190  54.071  1.00  0.00    -0.049 Br
HETATM   26  C12 UNL     1      29.850  -0.670  53.430  1.00  0.00     0.017 A 
HETATM   27  C13 UNL     1      29.174  -1.779  53.174  1.00  0.00    -0.019 A 
HETATM   28  C14 UNL     1      27.703  -1.582  53.208  1.00  0.00     0.085 A 
ENDBRANCH  21  23
ENDBRANCH   7  21
TORSDOF 9
ENDMDL
MODEL 3
REMARK VINA RESULT:      -6.9      1.855      2.311
REMARK  9 active torsions:
REMARK  status: ('A' for Active; 'I' for Inactive)
REMARK    1  A    between atoms: C2_2  and  C3_3 
REMARK    2  A    between atoms: C3_3  and  C4_4 
REMARK    3  A    between atoms: C3_3  and  N3_18 
REMARK    4  A    between atoms: C9_10  and  N2_11 
REMARK    5  A    between atoms: N2_11  and  C10_12 
REMARK       I    between atoms: N3_18  and  C15_19 
REMARK    6  A    between atoms: C15_19  and  C16_21 
REMARK    7  A    between atoms: C16_21  and  C17_22 
REMARK    8  A    between atoms: C17_22  and  C18_23 
REMARK    9  A    between atoms: C18_23  and  N4_24 
ROOT
HETATM    1  C4  UNL     1      24.121   1.723  51.569  1.00  0.00     0.009 C 
HETATM    2  C5  UNL     1      23.881   0.884  52.539  1.00  0.00    -0.013 A 
HETATM    3  C6  UNL     1      22.512   0.916  53.117  1.00  0.00     0.189 A 
HETATM    4  N1  UNL     1      22.389  -0.076  54.143  1.00  0.00    -0.297 NA
HETATM    5  C7  UNL     1      23.319  -0.856  54.503  1.00  0.00     0.113 A 
HETATM    6  C8  UNL     1      24.647  -0.876  53.943  1.00  0.00     0.049 A 
HETATM    7  C9  UNL     1      24.926  -0.021  52.978  1.00  0.00     0.041 A 
ENDROOT
BRANCH   1   8
HETATM    8  C3  UNL     1      23.150   2.675  51.018  1.00  0.00     0.107 C 
BRANCH   8   9
HETATM    9  C2  UNL     1      22.498   2.208  49.731  1.00  0.00     0.025 C 
HETATM   10  C1  UNL     1      23.068   2.868  48.506  1.00  0.00     0.007 C 
ENDBRANCH   8   9
BRANCH   8  11
HETATM   11  N3  UNL     1      23.697   3.998  50.801  1.00  0.00    -0.353 N 
HETATM   12  C15 UNL     1      23.076   5.124  51.383  1.00  0.00     0.218 C 
HETATM   13  O1  UNL     1      22.051   5.031  52.102  1.00  0.00    -0.274 OA
HETATM   14  H17 UNL     1      24.545   3.952  50.198  1.00  0.00     0.163 HD
BRANCH  12  15
HETATM   15  C16 UNL     1      23.734   6.419  51.072  1.00  0.00     0.104 C 
BRANCH  15  16
HETATM   16  C17 UNL     1      25.057   6.271  50.381  1.00  0.00     0.039 C 
BRANCH  16  17
HETATM   17  C18 UNL     1      25.111   6.872  49.012  1.00  0.00     0.271 C 
BRANCH  17  18
HETATM   18  N4  UNL     1      26.395   6.448  48.433  1.00  0.00     0.080 N 
HETATM   19  C19 UNL     1      26.780   5.150  48.909  1.00  0.00     0.309 C 
HETATM   20  C20 UNL     1      27.390   7.445  48.756  1.00  0.00     0.309 C 
ENDBRANCH  17  18
ENDBRANCH  16  17
ENDBRANCH  15  16
ENDBRANCH  12  15
ENDBRANCH   8  11
ENDBRANCH   1   8
BRANCH   7  21
HETATM   21  N2  UNL     1      26.244  -0.090  52.469  1.00  0.00    -0.358 N 
HETATM   22  H12 UNL     1      26.476   0.194  51.497  1.00  0.00     0.166 HD
BRANCH  21  23
HETATM   23  C10 UNL     1      27.540  -0.465  52.888  1.00  0.00     0.030 A 
HETATM   24  C11 UNL     1      28.529   0.296  53.320  1.00  0.00     0.033 A 
HETATM   25 BR1  UNL     1      28.325   2.206  53.452  1.00  0.00    -0.049 Br
HETATM   26  C12 UNL     1      29.724  -0.448  53.665  1.00  0.00     0.017 A 
HETATM   27  C13 UNL     1      29.419  -1.713  53.423  1.00  0.00    -0.019 A 
HETATM   28  C14 UNL     1      28.036  -1.889  52.914  1.00  0.00     0.085 A 
ENDBRANCH  21  23
ENDBRANCH   7  21
TORSDOF 9
ENDMDL
MODEL 4
REMARK VINA RESULT:      -6.8      2.529      3.511
REMARK  9 active torsions:
REMARK  status: ('A' for Active; 'I' for Inactive)
REMARK    1  A    between atoms: C2_2  and  C3_3 
REMARK    2  A    between atoms: C3_3  and  C4_4 
REMARK    3  A    between atoms: C3_3  and  N3_18 
REMARK    4  A    between atoms: C9_10  and  N2_11 
REMARK    5  A    between atoms: N2_11  and  C10_12 
REMARK       I    between atoms: N3_18  and  C15_19 
REMARK    6  A    between atoms: C15_19  and  C16_21 
REMARK    7  A    between atoms: C16_21  and  C17_22 
REMARK    8  A    between atoms: C17_22  and  C18_23 
REMARK    9  A    between atoms: C18_23  and  N4_24 
ROOT
HETATM    1  C4  UNL     1      25.555   2.228  51.769  1.00  0.00     0.009 C 
HETATM    2  C5  UNL     1      24.629   1.424  52.213  1.00  0.00    -0.013 A 
HETATM    3  C6  UNL     1      23.329   1.452  51.495  1.00  0.00     0.189 A 
HETATM    4  N1  UNL     1      22.428   0.500  52.072  1.00  0.00    -0.297 NA
HETATM    5  C7  UNL     1      22.706  -0.247  53.056  1.00  0.00     0.113 A 
HETATM    6  C8  UNL     1      23.968  -0.263  53.753  1.00  0.00     0.049 A 
HETATM    7  C9  UNL     1      24.915   0.558  53.342  1.00  0.00     0.041 A 
ENDROOT
BRANCH   1   8
HETATM    8  C3  UNL     1      25.405   3.139  50.628  1.00  0.00     0.107 C 
BRANCH   8   9
HETATM    9  C2  UNL     1      26.512   3.019  49.599  1.00  0.00     0.025 C 
HETATM   10  C1  UNL     1      27.005   4.350  49.102  1.00  0.00     0.007 C 
ENDBRANCH   8   9
BRANCH   8  11
HETATM   11  N3  UNL     1      25.284   4.530  51.011  1.00  0.00    -0.353 N 
HETATM   12  C15 UNL     1      24.133   5.265  50.653  1.00  0.00     0.218 C 
HETATM   13  O1  UNL     1      23.183   4.755  50.010  1.00  0.00    -0.274 OA
HETATM   14  H17 UNL     1      26.124   4.841  51.544  1.00  0.00     0.163 HD
BRANCH  12  15
HETATM   15  C16 UNL     1      24.143   6.680  51.100  1.00  0.00     0.104 C 
BRANCH  15  16
HETATM   16  C17 UNL     1      22.921   7.449  50.691  1.00  0.00     0.039 C 
BRANCH  16  17
HETATM   17  C18 UNL     1      23.100   8.289  49.466  1.00  0.00     0.271 C 
BRANCH  17  18
HETATM   18  N4  UNL     1      21.758   8.450  48.884  1.00  0.00     0.080 N 
HETATM   19  C19 UNL     1      21.283   9.796  49.032  1.00  0.00     0.309 C 
HETATM   20  C20 UNL     1      20.871   7.504  49.523  1.00  0.00     0.309 C 
ENDBRANCH  17  18
ENDBRANCH  16  17
ENDBRANCH  15  16
ENDBRANCH  12  15
ENDBRANCH   8  11
ENDBRANCH   1   8
BRANCH   7  21
HETATM   21  N2  UNL     1      26.129   0.495  54.064  1.00  0.00    -0.358 N 
HETATM   22  H12 UNL     1      26.187   0.749  55.069  1.00  0.00     0.166 HD
BRANCH  21  23
HETATM   23  C10 UNL     1      27.485   0.155  53.859  1.00  0.00     0.030 A 
HETATM   24  C11 UNL     1      27.997  -0.885  53.226  1.00  0.00     0.033 A 
HETATM   25 BR1  UNL     1      26.859  -2.211  52.415  1.00  0.00    -0.049 Br
HETATM   26  C12 UNL     1      29.445  -0.902  53.217  1.00  0.00     0.017 A 
HETATM   27  C13 UNL     1      29.803   0.186  53.880  1.00  0.00    -0.019 A 
HETATM   28  C14 UNL     1      28.643   0.979  54.361  1.00  0.00     0.085 A 
ENDBRANCH  21  23
ENDBRANCH   7  21
TORSDOF 9
ENDMDL
MODEL 5
REMARK VINA RESULT:      -6.7      2.926      5.376
REMARK  9 active torsions:
REMARK  status: ('A' for Active; 'I' for Inactive)
REMARK    1  A    between atoms: C2_2  and  C3_3 
REMARK    2  A    between atoms: C3_3  and  C4_4 
REMARK    3  A    between atoms: C3_3  and  N3_18 
REMARK    4  A    between atoms: C9_10  and  N2_11 
REMARK    5  A    between atoms: N2_11  and  C10_12 
REMARK       I    between atoms: N3_18  and  C15_19 
REMARK    6  A    between atoms: C15_19  and  C16_21 
REMARK    7  A    between atoms: C16_21  and  C17_22 
REMARK    8  A    between atoms: C17_22  and  C18_23 
REMARK    9  A    between atoms: C18_23  and  N4_24 
ROOT
HETATM    1  C4  UNL     1      24.229   3.324  50.544  1.00  0.00     0.009 C 
HETATM    2  C5  UNL     1      23.293   2.593  50.005  1.00  0.00    -0.013 A 
HETATM    3  C6  UNL     1      23.114   2.726  48.536  1.00  0.00     0.189 A 
HETATM    4  N1  UNL     1      22.079   1.845  48.085  1.00  0.00    -0.297 NA
HETATM    5  C7  UNL     1      21.414   1.074  48.838  1.00  0.00     0.113 A 
HETATM    6  C8  UNL     1      21.589   0.955  50.264  1.00  0.00     0.049 A 
HETATM    7  C9  UNL     1      22.510   1.702  50.841  1.00  0.00     0.041 A 
ENDROOT
BRANCH   1   8
HETATM    8  C3  UNL     1      25.103   4.249  49.814  1.00  0.00     0.107 C 
BRANCH   8   9
HETATM    9  C2  UNL     1      26.512   3.729  49.611  1.00  0.00     0.025 C 
HETATM   10  C1  UNL     1      27.373   4.655  48.796  1.00  0.00     0.007 C 
ENDBRANCH   8   9
BRANCH   8  11
HETATM   11  N3  UNL     1      25.182   5.565  50.413  1.00  0.00    -0.353 N 
HETATM   12  C15 UNL     1      24.352   6.607  49.946  1.00  0.00     0.218 C 
HETATM   13  O1  UNL     1      23.523   6.441  49.017  1.00  0.00    -0.274 OA
HETATM   14  H17 UNL     1      25.894   5.582  51.173  1.00  0.00     0.163 HD
BRANCH  12  15
HETATM   15  C16 UNL     1      24.542   7.905  50.641  1.00  0.00     0.104 C 
BRANCH  15  16
HETATM   16  C17 UNL     1      25.372   8.886  49.867  1.00  0.00     0.039 C 
BRANCH  16  17
HETATM   17  C18 UNL     1      26.849   8.722  50.042  1.00  0.00     0.271 C 
BRANCH  17  18
HETATM   18  N4  UNL     1      27.459   9.162  48.778  1.00  0.00     0.080 N 
HETATM   19  C19 UNL     1      27.108  10.520  48.474  1.00  0.00     0.309 C 
HETATM   20  C20 UNL     1      27.036   8.260  47.731  1.00  0.00     0.309 C 
ENDBRANCH  17  18
ENDBRANCH  16  17
ENDBRANCH  15  16
ENDBRANCH  12  15
ENDBRANCH   8  11
ENDBRANCH   1   8
BRANCH   7  21
HETATM   21  N2  UNL     1      22.634   1.540  52.240  1.00  0.00    -0.358 N 
HETATM   22  H12 UNL     1      22.945   2.313  52.860  1.00  0.00     0.166 HD
BRANCH  21  23
HETATM   23  C10 UNL     1      22.454   0.545  53.227  1.00  0.00     0.030 A 
HETATM   24  C11 UNL     1      23.342  -0.281  53.749  1.00  0.00     0.033 A 
HETATM   25 BR1  UNL     1      25.183  -0.243  53.186  1.00  0.00    -0.049 Br
HETATM   26  C12 UNL     1      22.788  -1.172  54.748  1.00  0.00     0.017 A 
HETATM   27  C13 UNL     1      21.505  -0.851  54.816  1.00  0.00    -0.019 A 
HETATM   28  C14 UNL     1      21.133   0.248  53.890  1.00  0.00     0.085 A 
ENDBRANCH  21  23
ENDBRANCH   7  21
TORSDOF 9
ENDMDL
MODEL 6
REMARK VINA RESULT:      -6.7      3.405      5.926
REMARK  9 active torsions:
REMARK  status: ('A' for Active; 'I' for Inactive)
REMARK    1  A    between atoms: C2_2  and  C3_3 
REMARK    2  A    between atoms: C3_3  and  C4_4 
REMARK    3  A    between atoms: C3_3  and  N3_18 
REMARK    4  A    between atoms: C9_10  and  N2_11 
REMARK    5  A    between atoms: N2_11  and  C10_12 
REMARK       I    between atoms: N3_18  and  C15_19 
REMARK    6  A    between atoms: C15_19  and  C16_21 
REMARK    7  A    between atoms: C16_21  and  C17_22 
REMARK    8  A    between atoms: C17_22  and  C18_23 
REMARK    9  A    between atoms: C18_23  and  N4_24 
ROOT
HETATM    1  C4  UNL     1      25.671   4.208  50.063  1.00  0.00     0.009 C 
HETATM    2  C5  UNL     1      24.460   3.748  49.906  1.00  0.00    -0.013 A 
HETATM    3  C6  UNL     1      23.692   4.286  48.754  1.00  0.00     0.189 A 
HETATM    4  N1  UNL     1      22.402   3.668  48.692  1.00  0.00    -0.297 NA
HETATM    5  C7  UNL     1      21.983   2.795  49.509  1.00  0.00     0.113 A 
HETATM    6  C8  UNL     1      22.732   2.283  50.628  1.00  0.00     0.049 A 
HETATM    7  C9  UNL     1      23.950   2.750  50.827  1.00  0.00     0.041 A 
ENDROOT
BRANCH   1   8
HETATM    8  C3  UNL     1      26.314   5.201  49.195  1.00  0.00     0.107 C 
BRANCH   8   9
HETATM    9  C2  UNL     1      27.648   4.750  48.633  1.00  0.00     0.025 C 
HETATM   10  C1  UNL     1      28.559   5.894  48.281  1.00  0.00     0.007 C 
ENDBRANCH   8   9
BRANCH   8  11
HETATM   11  N3  UNL     1      26.496   6.491  49.827  1.00  0.00    -0.353 N 
HETATM   12  C15 UNL     1      25.764   7.610  49.374  1.00  0.00     0.218 C 
HETATM   13  O1  UNL     1      24.938   7.536  48.431  1.00  0.00    -0.274 OA
HETATM   14  H17 UNL     1      27.196   6.429  50.596  1.00  0.00     0.163 HD
BRANCH  12  15
HETATM   15  C16 UNL     1      26.053   8.870  50.103  1.00  0.00     0.104 C 
BRANCH  15  16
HETATM   16  C17 UNL     1      27.495   9.279  50.050  1.00  0.00     0.039 C 
BRANCH  16  17
HETATM   17  C18 UNL     1      27.981   9.658  48.686  1.00  0.00     0.271 C 
BRANCH  17  18
HETATM   18  N4  UNL     1      29.426   9.899  48.822  1.00  0.00     0.080 N 
HETATM   19  C19 UNL     1      29.720  11.303  48.869  1.00  0.00     0.309 C 
HETATM   20  C20 UNL     1      30.099   9.255  47.717  1.00  0.00     0.309 C 
ENDBRANCH  17  18
ENDBRANCH  16  17
ENDBRANCH  15  16
ENDBRANCH  12  15
ENDBRANCH   8  11
ENDBRANCH   1   8
BRANCH   7  21
HETATM   21  N2  UNL     1      24.634   2.207  51.940  1.00  0.00    -0.358 N 
HETATM   22  H12 UNL     1      24.700   2.710  52.846  1.00  0.00     0.166 HD
BRANCH  21  23
HETATM   23  C10 UNL     1      25.362   1.050  52.294  1.00  0.00     0.030 A 
HETATM   24  C11 UNL     1      24.949  -0.032  52.931  1.00  0.00     0.033 A 
HETATM   25 BR1  UNL     1      23.124  -0.198  53.523  1.00  0.00    -0.049 Br
HETATM   26  C12 UNL     1      25.987  -1.025  53.118  1.00  0.00     0.017 A 
HETATM   27  C13 UNL     1      27.066  -0.499  52.560  1.00  0.00    -0.019 A 
HETATM   28  C14 UNL     1      26.822   0.846  51.980  1.00  0.00     0.085 A 
ENDBRANCH  21  23
ENDBRANCH   7  21
TORSDOF 9
ENDMDL
MODEL 7
REMARK VINA RESULT:      -6.6      2.115      6.234
REMARK  9 active torsions:
REMARK  status: ('A' for Active; 'I' for Inactive)
REMARK    1  A    between atoms: C2_2  and  C3_3 
REMARK    2  A    between atoms: C3_3  and  C4_4 
REMARK    3  A    between atoms: C3_3  and  N3_18 
REMARK    4  A    between atoms: C9_10  and  N2_11 
REMARK    5  A    between atoms: N2_11  and  C10_12 
REMARK       I    between atoms: N3_18  and  C15_19 
REMARK    6  A    between atoms: C15_19  and  C16_21 
REMARK    7  A    between atoms: C16_21  and  C17_22 
REMARK    8  A    between atoms: C17_22  and  C18_23 
REMARK    9  A    between atoms: C18_23  and  N4_24 
ROOT
HETATM    1  C4  UNL     1      22.874   2.347  51.278  1.00  0.00     0.009 C 
HETATM    2  C5  UNL     1      22.511   2.338  50.025  1.00  0.00    -0.013 A 
HETATM    3  C6  UNL     1      21.681   1.186  49.586  1.00  0.00     0.189 A 
HETATM    4  N1  UNL     1      21.334   1.329  48.204  1.00  0.00    -0.297 NA
HETATM    5  C7  UNL     1      21.694   2.296  47.469  1.00  0.00     0.113 A 
HETATM    6  C8  UNL     1      22.505   3.407  47.901  1.00  0.00     0.049 A 
HETATM    7  C9  UNL     1      22.909   3.429  49.156  1.00  0.00     0.041 A 
ENDROOT
BRANCH   1   8
HETATM    8  C3  UNL     1      22.524   1.320  52.265  1.00  0.00     0.107 C 
BRANCH   8   9
HETATM    9  C2  UNL     1      21.337   1.685  53.135  1.00  0.00     0.025 C 
HETATM   10  C1  UNL     1      20.186   0.728  52.997  1.00  0.00     0.007 C 
ENDBRANCH   8   9
BRANCH   8  11
HETATM   11  N3  UNL     1      23.626   0.946  53.127  1.00  0.00    -0.353 N 
HETATM   12  C15 UNL     1      23.809  -0.404  53.497  1.00  0.00     0.218 C 
HETATM   13  O1  UNL     1      23.047  -1.319  53.100  1.00  0.00    -0.274 OA
HETATM   14  H17 UNL     1      24.192   1.782  53.386  1.00  0.00     0.163 HD
BRANCH  12  15
HETATM   15  C16 UNL     1      24.970  -0.645  54.390  1.00  0.00     0.104 C 
BRANCH  15  16
HETATM   16  C17 UNL     1      26.297  -0.420  53.726  1.00  0.00     0.039 C 
BRANCH  16  17
HETATM   17  C18 UNL     1      27.168   0.586  54.411  1.00  0.00     0.271 C 
BRANCH  17  18
HETATM   18  N4  UNL     1      28.235   0.917  53.454  1.00  0.00     0.080 N 
HETATM   19  C19 UNL     1      29.419   0.145  53.704  1.00  0.00     0.309 C 
HETATM   20  C20 UNL     1      28.501   2.335  53.543  1.00  0.00     0.309 C 
ENDBRANCH  17  18
ENDBRANCH  16  17
ENDBRANCH  15  16
ENDBRANCH  12  15
ENDBRANCH   8  11
ENDBRANCH   1   8
BRANCH   7  21
HETATM   21  N2  UNL     1      23.701   4.544  49.519  1.00  0.00    -0.358 N 
HETATM   22  H12 UNL     1      23.437   5.179  50.297  1.00  0.00     0.166 HD
BRANCH  21  23
HETATM   23  C10 UNL     1      24.900   5.182  49.131  1.00  0.00     0.030 A 
HETATM   24  C11 UNL     1      26.148   4.780  49.292  1.00  0.00     0.033 A 
HETATM   25 BR1  UNL     1      26.546   3.107  50.158  1.00  0.00    -0.049 Br
HETATM   26  C12 UNL     1      27.128   5.705  48.760  1.00  0.00     0.017 A 
HETATM   27  C13 UNL     1      26.417   6.704  48.261  1.00  0.00    -0.019 A 
HETATM   28  C14 UNL     1      24.954   6.512  48.423  1.00  0.00     0.085 A 
ENDBRANCH  21  23
ENDBRANCH   7  21
TORSDOF 9
ENDMDL
MODEL 8
REMARK VINA RESULT:      -6.4      2.062      4.172
REMARK  9 active torsions:
REMARK  status: ('A' for Active; 'I' for Inactive)
REMARK    1  A    between atoms: C2_2  and  C3_3 
REMARK    2  A    between atoms: C3_3  and  C4_4 
REMARK    3  A    between atoms: C3_3  and  N3_18 
REMARK    4  A    between atoms: C9_10  and  N2_11 
REMARK    5  A    between atoms: N2_11  and  C10_12 
REMARK       I    between atoms: N3_18  and  C15_19 
REMARK    6  A    between atoms: C15_19  and  C16_21 
REMARK    7  A    between atoms: C16_21  and  C17_22 
REMARK    8  A    between atoms: C17_22  and  C18_23 
REMARK    9  A    between atoms: C18_23  and  N4_24 
ROOT
HETATM    1  C4  UNL     1      23.820   1.330  52.478  1.00  0.00     0.009 C 
HETATM    2  C5  UNL     1      24.257   2.326  51.759  1.00  0.00    -0.013 A 
HETATM    3  C6  UNL     1      23.268   3.382  51.421  1.00  0.00     0.189 A 
HETATM    4  N1  UNL     1      23.898   4.420  50.661  1.00  0.00    -0.297 NA
HETATM    5  C7  UNL     1      25.118   4.425  50.324  1.00  0.00     0.113 A 
HETATM    6  C8  UNL     1      26.071   3.392  50.649  1.00  0.00     0.049 A 
HETATM    7  C9  UNL     1      25.650   2.359  51.353  1.00  0.00     0.041 A 
ENDROOT
BRANCH   1   8
HETATM    8  C3  UNL     1      22.446   1.184  52.969  1.00  0.00     0.107 C 
BRANCH   8   9
HETATM    9  C2  UNL     1      22.297   0.159  54.077  1.00  0.00     0.025 C 
HETATM   10  C1  UNL     1      22.098  -1.241  53.565  1.00  0.00     0.007 C 
ENDBRANCH   8   9
BRANCH   8  11
HETATM   11  N3  UNL     1      21.488   0.874  51.928  1.00  0.00    -0.353 N 
HETATM   12  C15 UNL     1      20.241   1.535  51.894  1.00  0.00     0.218 C 
HETATM   13  O1  UNL     1      19.917   2.403  52.741  1.00  0.00    -0.274 OA
HETATM   14  H17 UNL     1      21.867   0.149  51.283  1.00  0.00     0.163 HD
BRANCH  12  15
HETATM   15  C16 UNL     1      19.353   1.117  50.781  1.00  0.00     0.104 C 
BRANCH  15  16
HETATM   16  C17 UNL     1      19.963   1.301  49.423  1.00  0.00     0.039 C 
BRANCH  16  17
HETATM   17  C18 UNL     1      20.034   2.724  48.964  1.00  0.00     0.271 C 
BRANCH  17  18
HETATM   18  N4  UNL     1      21.423   2.944  48.535  1.00  0.00     0.080 N 
HETATM   19  C19 UNL     1      21.489   3.840  47.416  1.00  0.00     0.309 C 
HETATM   20  C20 UNL     1      22.008   1.661  48.217  1.00  0.00     0.309 C 
ENDBRANCH  17  18
ENDBRANCH  16  17
ENDBRANCH  15  16
ENDBRANCH  12  15
ENDBRANCH   8  11
ENDBRANCH   1   8
BRANCH   7  21
HETATM   21  N2  UNL     1      26.631   1.382  51.641  1.00  0.00    -0.358 N 
HETATM   22  H12 UNL     1      26.865   0.621  50.974  1.00  0.00     0.166 HD
BRANCH  21  23
HETATM   23  C10 UNL     1      27.532   1.034  52.673  1.00  0.00     0.030 A 
HETATM   24  C11 UNL     1      27.776  -0.151  53.201  1.00  0.00     0.033 A 
HETATM   25 BR1  UNL     1      26.850  -1.723  52.582  1.00  0.00    -0.049 Br
HETATM   26  C12 UNL     1      28.776  -0.123  54.249  1.00  0.00     0.017 A 
HETATM   27  C13 UNL     1      29.138   1.147  54.340  1.00  0.00    -0.019 A 
HETATM   28  C14 UNL     1      28.421   2.024  53.381  1.00  0.00     0.085 A 
ENDBRANCH  21  23
ENDBRANCH   7  21
TORSDOF 9
ENDMDL
MODEL 9
REMARK VINA RESULT:      -6.4      2.673      5.453
REMARK  9 active torsions:
REMARK  status: ('A' for Active; 'I' for Inactive)
REMARK    1  A    between atoms: C2_2  and  C3_3 
REMARK    2  A    between atoms: C3_3  and  C4_4 
REMARK    3  A    between atoms: C3_3  and  N3_18 
REMARK    4  A    between atoms: C9_10  and  N2_11 
REMARK    5  A    between atoms: N2_11  and  C10_12 
REMARK       I    between atoms: N3_18  and  C15_19 
REMARK    6  A    between atoms: C15_19  and  C16_21 
REMARK    7  A    between atoms: C16_21  and  C17_22 
REMARK    8  A    between atoms: C17_22  and  C18_23 
REMARK    9  A    between atoms: C18_23  and  N4_24 
ROOT
HETATM    1  C4  UNL     1      24.173   2.860  50.817  1.00  0.00     0.009 C 
HETATM    2  C5  UNL     1      23.177   2.336  50.157  1.00  0.00    -0.013 A 
HETATM    3  C6  UNL     1      23.145   2.592  48.694  1.00  0.00     0.189 A 
HETATM    4  N1  UNL     1      22.020   1.931  48.105  1.00  0.00    -0.297 NA
HETATM    5  C7  UNL     1      21.177   1.237  48.746  1.00  0.00     0.113 A 
HETATM    6  C8  UNL     1      21.211   0.999  50.167  1.00  0.00     0.049 A 
HETATM    7  C9  UNL     1      22.192   1.538  50.864  1.00  0.00     0.041 A 
ENDROOT
BRANCH   1   8
HETATM    8  C3  UNL     1      25.245   3.668  50.224  1.00  0.00     0.107 C 
BRANCH   8   9
HETATM    9  C2  UNL     1      26.623   3.049  50.354  1.00  0.00     0.025 C 
HETATM   10  C1  UNL     1      26.741   2.110  51.523  1.00  0.00     0.007 C 
ENDBRANCH   8   9
BRANCH   8  11
HETATM   11  N3  UNL     1      25.301   5.021  50.737  1.00  0.00    -0.353 N 
HETATM   12  C15 UNL     1      25.300   6.116  49.846  1.00  0.00     0.218 C 
HETATM   13  O1  UNL     1      25.246   5.970  48.600  1.00  0.00    -0.274 OA
HETATM   14  H17 UNL     1      25.336   5.019  51.778  1.00  0.00     0.163 HD
BRANCH  12  15
HETATM   15  C16 UNL     1      25.370   7.445  50.504  1.00  0.00     0.104 C 
BRANCH  15  16
HETATM   16  C17 UNL     1      24.218   8.345  50.167  1.00  0.00     0.039 C 
BRANCH  16  17
HETATM   17  C18 UNL     1      22.870   7.760  50.454  1.00  0.00     0.271 C 
BRANCH  17  18
HETATM   18  N4  UNL     1      21.988   8.223  49.372  1.00  0.00     0.080 N 
HETATM   19  C19 UNL     1      20.677   8.537  49.865  1.00  0.00     0.309 C 
HETATM   20  C20 UNL     1      21.937   7.196  48.357  1.00  0.00     0.309 C 
ENDBRANCH  17  18
ENDBRANCH  16  17
ENDBRANCH  15  16
ENDBRANCH  12  15
ENDBRANCH   8  11
ENDBRANCH   1   8
BRANCH   7  21
HETATM   21  N2  UNL     1      22.172   1.267  52.252  1.00  0.00    -0.358 N 
HETATM   22  H12 UNL     1      22.392   1.995  52.960  1.00  0.00     0.166 HD
BRANCH  21  23
HETATM   23  C10 UNL     1      21.918   0.193  53.134  1.00  0.00     0.030 A 
HETATM   24  C11 UNL     1      22.776  -0.567  53.790  1.00  0.00     0.033 A 
HETATM   25 BR1  UNL     1      24.675  -0.292  53.622  1.00  0.00    -0.049 Br
HETATM   26  C12 UNL     1      22.143  -1.580  54.610  1.00  0.00     0.017 A 
HETATM   27  C13 UNL     1      20.844  -1.404  54.425  1.00  0.00    -0.019 A 
HETATM   28  C14 UNL     1      20.536  -0.290  53.494  1.00  0.00     0.085 A 
ENDBRANCH  21  23
ENDBRANCH   7  21
TORSDOF 9
ENDMDL
