MODEL 1
REMARK VINA RESULT:      -6.6      0.000      0.000
REMARK  6 active torsions:
REMARK  status: ('A' for Active; 'I' for Inactive)
REMARK    1  A    between atoms: C3_3  and  C4_4 
REMARK    2  A    between atoms: C5_5  and  S1_6 
REMARK    3  A    between atoms: S1_6  and  C6_7 
REMARK    4  A    between atoms: C10_11  and  O1_12 
REMARK    5  A    between atoms: C11_13  and  C12_14 
REMARK    6  A    between atoms: C12_14  and  O2_15 
ROOT
HETATM    1  C6  UNL     1      24.617   0.010  53.467  1.00  0.00     0.085 C 
HETATM    2  C7  UNL     1      24.398  -0.905  54.430  1.00  0.00     0.015 C 
HETATM    3  C8  UNL     1      23.226  -0.522  55.214  1.00  0.00     0.060 C 
HETATM    4  C9  UNL     1      21.989  -1.271  54.950  1.00  0.00     0.014 C 
HETATM    5  C10 UNL     1      21.049  -0.896  54.079  1.00  0.00     0.075 C 
HETATM    6  C11 UNL     1      20.710   0.113  53.103  1.00  0.00     0.031 C 
HETATM    7  C14 UNL     1      21.401   1.288  52.499  1.00  0.00     0.106 C 
HETATM    8  N1  UNL     1      22.509   1.321  53.054  1.00  0.00    -0.158 NA
HETATM    9  C15 UNL     1      23.575   2.193  52.895  1.00  0.00     0.201 A 
HETATM   10  N2  UNL     1      23.877   1.076  53.176  1.00  0.00    -0.258 N 
ENDROOT
BRANCH   1  11
HETATM   11  S1  UNL     1      25.992  -0.152  52.322  1.00  0.00    -0.110 SA
BRANCH  11  12
HETATM   12  C5  UNL     1      26.916  -1.636  52.640  1.00  0.00     0.046 C 
HETATM   13  C4  UNL     1      28.147  -1.206  52.997  1.00  0.00     0.068 C 
BRANCH  13  14
HETATM   14  C3  UNL     1      29.388  -1.852  53.386  1.00  0.00    -0.024 C 
HETATM   15  C2  UNL     1      30.006  -0.720  53.767  1.00  0.00    -0.034 C 
HETATM   16  C1  UNL     1      29.129   0.466  53.588  1.00  0.00     0.036 C 
ENDBRANCH  13  14
ENDBRANCH  11  12
ENDBRANCH   1  11
BRANCH   5  17
HETATM   17  O1  UNL     1      20.036  -1.878  54.150  1.00  0.00    -0.360 OA
HETATM   18  H12 UNL     1      20.222  -2.749  54.636  1.00  0.00     0.217 HD
ENDBRANCH   5  17
BRANCH   6  19
HETATM   19  C12 UNL     1      19.560   0.026  52.497  1.00  0.00     0.149 C 
BRANCH  19  20
HETATM   20  O2  UNL     1      18.421  -0.268  51.728  1.00  0.00    -0.367 OA
HETATM   21  C13 UNL     1      17.210  -0.672  52.378  1.00  0.00     0.208 C 
ENDBRANCH  19  20
ENDBRANCH   6  19
TORSDOF 6
ENDMDL
MODEL 2
REMARK VINA RESULT:      -6.5      4.424      5.953
REMARK  6 active torsions:
REMARK  status: ('A' for Active; 'I' for Inactive)
REMARK    1  A    between atoms: C3_3  and  C4_4 
REMARK    2  A    between atoms: C5_5  and  S1_6 
REMARK    3  A    between atoms: S1_6  and  C6_7 
REMARK    4  A    between atoms: C10_11  and  O1_12 
REMARK    5  A    between atoms: C11_13  and  C12_14 
REMARK    6  A    between atoms: C12_14  and  O2_15 
ROOT
HETATM    1  C6  UNL     1      25.662   1.788  51.684  1.00  0.00     0.085 C 
HETATM    2  C7  UNL     1      26.737   2.155  50.961  1.00  0.00     0.015 C 
HETATM    3  C8  UNL     1      26.302   2.852  49.752  1.00  0.00     0.060 C 
HETATM    4  C9  UNL     1      26.455   4.313  49.750  1.00  0.00     0.014 C 
HETATM    5  C10 UNL     1      25.505   5.174  50.123  1.00  0.00     0.075 C 
HETATM    6  C11 UNL     1      24.160   5.262  50.643  1.00  0.00     0.031 C 
HETATM    7  C14 UNL     1      23.143   4.292  51.139  1.00  0.00     0.106 C 
HETATM    8  N1  UNL     1      23.678   3.181  51.010  1.00  0.00    -0.158 NA
HETATM    9  C15 UNL     1      23.208   1.911  51.307  1.00  0.00     0.201 A 
HETATM   10  N2  UNL     1      24.384   2.054  51.430  1.00  0.00    -0.258 N 
ENDROOT
BRANCH   1  11
HETATM   11  S1  UNL     1      25.840   0.899  53.234  1.00  0.00    -0.110 SA
BRANCH  11  12
HETATM   12  C5  UNL     1      26.517  -0.722  52.967  1.00  0.00     0.046 C 
HETATM   13  C4  UNL     1      27.834  -0.597  53.249  1.00  0.00     0.068 C 
BRANCH  13  14
HETATM   14  C3  UNL     1      28.974  -1.495  53.245  1.00  0.00    -0.024 C 
HETATM   15  C2  UNL     1      29.864  -0.572  53.652  1.00  0.00    -0.034 C 
HETATM   16  C1  UNL     1      29.219   0.751  53.861  1.00  0.00     0.036 C 
ENDBRANCH  13  14
ENDBRANCH  11  12
ENDBRANCH   1  11
BRANCH   5  17
HETATM   17  O1  UNL     1      26.057   6.463  49.952  1.00  0.00    -0.360 OA
HETATM   18  H12 UNL     1      25.543   7.156  49.418  1.00  0.00     0.217 HD
ENDBRANCH   5  17
BRANCH   6  19
HETATM   19  C12 UNL     1      23.641   6.444  50.817  1.00  0.00     0.149 C 
BRANCH  19  20
HETATM   20  O2  UNL     1      23.261   7.797  50.848  1.00  0.00    -0.367 OA
HETATM   21  C13 UNL     1      22.792   8.429  49.651  1.00  0.00     0.208 C 
ENDBRANCH  19  20
ENDBRANCH   6  19
TORSDOF 6
ENDMDL
MODEL 3
REMARK VINA RESULT:      -6.5      4.248      5.805
REMARK  6 active torsions:
REMARK  status: ('A' for Active; 'I' for Inactive)
REMARK    1  A    between atoms: C3_3  and  C4_4 
REMARK    2  A    between atoms: C5_5  and  S1_6 
REMARK    3  A    between atoms: S1_6  and  C6_7 
REMARK    4  A    between atoms: C10_11  and  O1_12 
REMARK    5  A    between atoms: C11_13  and  C12_14 
REMARK    6  A    between atoms: C12_14  and  O2_15 
ROOT
HETATM    1  C6  UNL     1      25.453   3.305  50.817  1.00  0.00     0.085 C 
HETATM    2  C7  UNL     1      26.649   2.689  50.880  1.00  0.00     0.015 C 
HETATM    3  C8  UNL     1      26.862   2.168  52.229  1.00  0.00     0.060 C 
HETATM    4  C9  UNL     1      26.694   0.719  52.403  1.00  0.00     0.014 C 
HETATM    5  C10 UNL     1      25.555   0.128  52.772  1.00  0.00     0.075 C 
HETATM    6  C11 UNL     1      24.172   0.382  53.103  1.00  0.00     0.031 C 
HETATM    7  C14 UNL     1      23.273   1.571  53.087  1.00  0.00     0.106 C 
HETATM    8  N1  UNL     1      23.992   2.505  52.703  1.00  0.00    -0.158 NA
HETATM    9  C15 UNL     1      23.701   3.844  52.496  1.00  0.00     0.201 A 
HETATM   10  N2  UNL     1      24.533   3.393  51.774  1.00  0.00    -0.258 N 
ENDROOT
BRANCH   1  11
HETATM   11  S1  UNL     1      24.878   4.069  49.297  1.00  0.00    -0.110 SA
BRANCH  11  12
HETATM   12  C5  UNL     1      25.155   5.824  49.320  1.00  0.00     0.046 C 
HETATM   13  C4  UNL     1      26.366   5.990  48.741  1.00  0.00     0.068 C 
BRANCH  13  14
HETATM   14  C3  UNL     1      27.209   7.131  48.432  1.00  0.00    -0.024 C 
HETATM   15  C2  UNL     1      28.333   6.413  48.256  1.00  0.00    -0.034 C 
HETATM   16  C1  UNL     1      28.090   4.961  48.462  1.00  0.00     0.036 C 
ENDBRANCH  13  14
ENDBRANCH  11  12
ENDBRANCH   1  11
BRANCH   5  17
HETATM   17  O1  UNL     1      25.834  -1.256  52.835  1.00  0.00    -0.360 OA
HETATM   18  H12 UNL     1      26.779  -1.580  52.658  1.00  0.00     0.217 HD
ENDBRANCH   5  17
BRANCH   6  19
HETATM   19  C12 UNL     1      23.424  -0.625  53.453  1.00  0.00     0.149 C 
BRANCH  19  20
HETATM   20  O2  UNL     1      22.466  -1.536  53.931  1.00  0.00    -0.367 OA
HETATM   21  C13 UNL     1      21.308  -1.052  54.621  1.00  0.00     0.208 C 
ENDBRANCH  19  20
ENDBRANCH   6  19
TORSDOF 6
ENDMDL
MODEL 4
REMARK VINA RESULT:      -6.4      5.532      7.306
REMARK  6 active torsions:
REMARK  status: ('A' for Active; 'I' for Inactive)
REMARK    1  A    between atoms: C3_3  and  C4_4 
REMARK    2  A    between atoms: C5_5  and  S1_6 
REMARK    3  A    between atoms: S1_6  and  C6_7 
REMARK    4  A    between atoms: C10_11  and  O1_12 
REMARK    5  A    between atoms: C11_13  and  C12_14 
REMARK    6  A    between atoms: C12_14  and  O2_15 
ROOT
HETATM    1  C6  UNL     1      25.436   2.846  51.492  1.00  0.00     0.085 C 
HETATM    2  C7  UNL     1      26.439   2.619  50.623  1.00  0.00     0.015 C 
HETATM    3  C8  UNL     1      26.177   3.330  49.373  1.00  0.00     0.060 C 
HETATM    4  C9  UNL     1      26.955   4.555  49.143  1.00  0.00     0.014 C 
HETATM    5  C10 UNL     1      26.548   5.783  49.476  1.00  0.00     0.075 C 
HETATM    6  C11 UNL     1      25.475   6.518  50.104  1.00  0.00     0.031 C 
HETATM    7  C14 UNL     1      24.224   6.164  50.832  1.00  0.00     0.106 C 
HETATM    8  N1  UNL     1      24.189   4.925  50.815  1.00  0.00    -0.158 NA
HETATM    9  C15 UNL     1      23.260   4.039  51.338  1.00  0.00     0.201 A 
HETATM   10  N2  UNL     1      24.382   3.642  51.326  1.00  0.00    -0.258 N 
ENDROOT
BRANCH   1  11
HETATM   11  S1  UNL     1      25.438   2.112  53.131  1.00  0.00    -0.110 SA
BRANCH  11  12
HETATM   12  C5  UNL     1      25.172   0.357  53.045  1.00  0.00     0.046 C 
HETATM   13  C4  UNL     1      26.408  -0.172  52.896  1.00  0.00     0.068 C 
BRANCH  13  14
HETATM   14  C3  UNL     1      26.940  -1.516  52.760  1.00  0.00    -0.024 C 
HETATM   15  C2  UNL     1      28.195  -1.192  53.120  1.00  0.00    -0.034 C 
HETATM   16  C1  UNL     1      28.316   0.256  53.432  1.00  0.00     0.036 C 
ENDBRANCH  13  14
ENDBRANCH  11  12
ENDBRANCH   1  11
BRANCH   5  17
HETATM   17  O1  UNL     1      27.577   6.660  49.066  1.00  0.00    -0.360 OA
HETATM   18  H12 UNL     1      28.544   6.360  49.138  1.00  0.00     0.217 HD
ENDBRANCH   5  17
BRANCH   6  19
HETATM   19  C12 UNL     1      25.561   7.817  50.154  1.00  0.00     0.149 C 
BRANCH  19  20
HETATM   20  O2  UNL     1      25.890   9.183  50.125  1.00  0.00    -0.367 OA
HETATM   21  C13 UNL     1      25.937   9.876  48.872  1.00  0.00     0.208 C 
ENDBRANCH  19  20
ENDBRANCH   6  19
TORSDOF 6
ENDMDL
MODEL 5
REMARK VINA RESULT:      -6.4      4.072      7.459
REMARK  6 active torsions:
REMARK  status: ('A' for Active; 'I' for Inactive)
REMARK    1  A    between atoms: C3_3  and  C4_4 
REMARK    2  A    between atoms: C5_5  and  S1_6 
REMARK    3  A    between atoms: S1_6  and  C6_7 
REMARK    4  A    between atoms: C10_11  and  O1_12 
REMARK    5  A    between atoms: C11_13  and  C12_14 
REMARK    6  A    between atoms: C12_14  and  O2_15 
ROOT
HETATM    1  C6  UNL     1      23.674   2.938  52.234  1.00  0.00     0.085 C 
HETATM    2  C7  UNL     1      22.837   2.001  52.720  1.00  0.00     0.015 C 
HETATM    3  C8  UNL     1      23.314   0.672  52.342  1.00  0.00     0.060 C 
HETATM    4  C9  UNL     1      23.967  -0.113  53.398  1.00  0.00     0.014 C 
HETATM    5  C10 UNL     1      25.282  -0.129  53.625  1.00  0.00     0.075 C 
HETATM    6  C11 UNL     1      26.541   0.432  53.190  1.00  0.00     0.031 C 
HETATM    7  C14 UNL     1      26.961   1.485  52.223  1.00  0.00     0.106 C 
HETATM    8  N1  UNL     1      25.903   1.890  51.718  1.00  0.00    -0.158 NA
HETATM    9  C15 UNL     1      25.674   2.863  50.758  1.00  0.00     0.201 A 
HETATM   10  N2  UNL     1      24.812   2.745  51.571  1.00  0.00    -0.258 N 
ENDROOT
BRANCH   1  11
HETATM   11  S1  UNL     1      23.377   4.687  52.510  1.00  0.00    -0.110 SA
BRANCH  11  12
HETATM   12  C5  UNL     1      21.937   5.238  51.628  1.00  0.00     0.046 C 
HETATM   13  C4  UNL     1      22.317   6.389  51.030  1.00  0.00     0.068 C 
BRANCH  13  14
HETATM   14  C3  UNL     1      21.668   7.363  50.170  1.00  0.00    -0.024 C 
HETATM   15  C2  UNL     1      22.746   8.158  50.045  1.00  0.00    -0.034 C 
HETATM   16  C1  UNL     1      23.908   7.626  50.804  1.00  0.00     0.036 C 
ENDBRANCH  13  14
ENDBRANCH  11  12
ENDBRANCH   1  11
BRANCH   5  17
HETATM   17  O1  UNL     1      25.482  -1.017  54.705  1.00  0.00    -0.360 OA
HETATM   18  H12 UNL     1      24.678  -1.451  55.147  1.00  0.00     0.217 HD
ENDBRANCH   5  17
BRANCH   6  19
HETATM   19  C12 UNL     1      27.633   0.026  53.772  1.00  0.00     0.149 C 
BRANCH  19  20
HETATM   20  O2  UNL     1      28.685  -0.627  54.437  1.00  0.00    -0.367 OA
HETATM   21  C13 UNL     1      29.857  -1.010  53.707  1.00  0.00     0.208 C 
ENDBRANCH  19  20
ENDBRANCH   6  19
TORSDOF 6
ENDMDL
MODEL 6
REMARK VINA RESULT:      -6.4      2.709      3.693
REMARK  6 active torsions:
REMARK  status: ('A' for Active; 'I' for Inactive)
REMARK    1  A    between atoms: C3_3  and  C4_4 
REMARK    2  A    between atoms: C5_5  and  S1_6 
REMARK    3  A    between atoms: S1_6  and  C6_7 
REMARK    4  A    between atoms: C10_11  and  O1_12 
REMARK    5  A    between atoms: C11_13  and  C12_14 
REMARK    6  A    between atoms: C12_14  and  O2_15 
ROOT
HETATM    1  C6  UNL     1      23.941   0.198  53.376  1.00  0.00     0.085 C 
HETATM    2  C7  UNL     1      22.736  -0.403  53.398  1.00  0.00     0.015 C 
HETATM    3  C8  UNL     1      21.704   0.550  52.996  1.00  0.00     0.060 C 
HETATM    4  C9  UNL     1      21.170   0.401  51.636  1.00  0.00     0.014 C 
HETATM    5  C10 UNL     1      21.638   1.048  50.565  1.00  0.00     0.075 C 
HETATM    6  C11 UNL     1      22.651   1.978  50.124  1.00  0.00     0.031 C 
HETATM    7  C14 UNL     1      23.830   2.644  50.746  1.00  0.00     0.106 C 
HETATM    8  N1  UNL     1      23.833   2.248  51.920  1.00  0.00    -0.158 NA
HETATM    9  C15 UNL     1      24.694   2.532  52.968  1.00  0.00     0.201 A 
HETATM   10  N2  UNL     1      24.222   1.439  52.988  1.00  0.00    -0.258 N 
ENDROOT
BRANCH   1  11
HETATM   11  S1  UNL     1      25.435  -0.691  53.825  1.00  0.00    -0.110 SA
BRANCH  11  12
HETATM   12  C5  UNL     1      26.545   0.348  54.744  1.00  0.00     0.046 C 
HETATM   13  C4  UNL     1      27.760   0.128  54.194  1.00  0.00     0.068 C 
BRANCH  13  14
HETATM   14  C3  UNL     1      29.102   0.625  54.435  1.00  0.00    -0.024 C 
HETATM   15  C2  UNL     1      29.725  -0.359  53.761  1.00  0.00    -0.034 C 
HETATM   16  C1  UNL     1      28.753  -1.328  53.191  1.00  0.00     0.036 C 
ENDBRANCH  13  14
ENDBRANCH  11  12
ENDBRANCH   1  11
BRANCH   5  17
HETATM   17  O1  UNL     1      20.838   0.632  49.477  1.00  0.00    -0.360 OA
HETATM   18  H12 UNL     1      19.828   0.662  49.563  1.00  0.00     0.217 HD
ENDBRANCH   5  17
BRANCH   6  19
HETATM   19  C12 UNL     1      22.657   2.338  48.872  1.00  0.00     0.149 C 
BRANCH  19  20
HETATM   20  O2  UNL     1      22.543   2.509  47.481  1.00  0.00    -0.367 OA
HETATM   21  C13 UNL     1      21.958   3.708  46.958  1.00  0.00     0.208 C 
ENDBRANCH  19  20
ENDBRANCH   6  19
TORSDOF 6
ENDMDL
MODEL 7
REMARK VINA RESULT:      -6.2      3.358      4.508
REMARK  6 active torsions:
REMARK  status: ('A' for Active; 'I' for Inactive)
REMARK    1  A    between atoms: C3_3  and  C4_4 
REMARK    2  A    between atoms: C5_5  and  S1_6 
REMARK    3  A    between atoms: S1_6  and  C6_7 
REMARK    4  A    between atoms: C10_11  and  O1_12 
REMARK    5  A    between atoms: C11_13  and  C12_14 
REMARK    6  A    between atoms: C12_14  and  O2_15 
ROOT
HETATM    1  C6  UNL     1      23.088   2.452  50.921  1.00  0.00     0.085 C 
HETATM    2  C7  UNL     1      24.077   1.717  51.466  1.00  0.00     0.015 C 
HETATM    3  C8  UNL     1      23.790   1.477  52.878  1.00  0.00     0.060 C 
HETATM    4  C9  UNL     1      23.310   0.133  53.228  1.00  0.00     0.014 C 
HETATM    5  C10 UNL     1      22.023  -0.214  53.306  1.00  0.00     0.075 C 
HETATM    6  C11 UNL     1      20.677   0.279  53.130  1.00  0.00     0.031 C 
HETATM    7  C14 UNL     1      20.060   1.541  52.630  1.00  0.00     0.106 C 
HETATM    8  N1  UNL     1      21.022   2.271  52.347  1.00  0.00    -0.158 NA
HETATM    9  C15 UNL     1      21.060   3.559  51.838  1.00  0.00     0.201 A 
HETATM   10  N2  UNL     1      21.964   2.861  51.505  1.00  0.00    -0.258 N 
ENDROOT
BRANCH   1  11
HETATM   11  S1  UNL     1      23.129   2.936  49.193  1.00  0.00    -0.110 SA
BRANCH  11  12
HETATM   12  C5  UNL     1      23.687   4.614  49.013  1.00  0.00     0.046 C 
HETATM   13  C4  UNL     1      25.033   4.543  49.119  1.00  0.00     0.068 C 
BRANCH  13  14
HETATM   14  C3  UNL     1      26.119   5.505  49.072  1.00  0.00    -0.024 C 
HETATM   15  C2  UNL     1      27.100   4.596  49.219  1.00  0.00    -0.034 C 
HETATM   16  C1  UNL     1      26.553   3.219  49.338  1.00  0.00     0.036 C 
ENDBRANCH  13  14
ENDBRANCH  11  12
ENDBRANCH   1  11
BRANCH   5  17
HETATM   17  O1  UNL     1      22.007  -1.575  53.684  1.00  0.00    -0.360 OA
HETATM   18  H12 UNL     1      21.373  -1.881  54.414  1.00  0.00     0.217 HD
ENDBRANCH   5  17
BRANCH   6  19
HETATM   19  C12 UNL     1      19.685  -0.525  53.386  1.00  0.00     0.149 C 
BRANCH  19  20
HETATM   20  O2  UNL     1      18.780  -1.577  53.612  1.00  0.00    -0.367 OA
HETATM   21  C13 UNL     1      17.430  -1.465  53.144  1.00  0.00     0.208 C 
ENDBRANCH  19  20
ENDBRANCH   6  19
TORSDOF 6
ENDMDL
MODEL 8
REMARK VINA RESULT:      -6.1      5.591      7.924
REMARK  6 active torsions:
REMARK  status: ('A' for Active; 'I' for Inactive)
REMARK    1  A    between atoms: C3_3  and  C4_4 
REMARK    2  A    between atoms: C5_5  and  S1_6 
REMARK    3  A    between atoms: S1_6  and  C6_7 
REMARK    4  A    between atoms: C10_11  and  O1_12 
REMARK    5  A    between atoms: C11_13  and  C12_14 
REMARK    6  A    between atoms: C12_14  and  O2_15 
ROOT
HETATM    1  C6  UNL     1      25.346   2.908  51.480  1.00  0.00     0.085 C 
HETATM    2  C7  UNL     1      26.394   2.638  50.679  1.00  0.00     0.015 C 
HETATM    3  C8  UNL     1      26.212   3.302  49.390  1.00  0.00     0.060 C 
HETATM    4  C9  UNL     1      27.015   4.510  49.158  1.00  0.00     0.014 C 
HETATM    5  C10 UNL     1      26.604   5.753  49.420  1.00  0.00     0.075 C 
HETATM    6  C11 UNL     1      25.506   6.522  49.956  1.00  0.00     0.031 C 
HETATM    7  C14 UNL     1      24.211   6.209  50.625  1.00  0.00     0.106 C 
HETATM    8  N1  UNL     1      24.163   4.970  50.654  1.00  0.00    -0.158 NA
HETATM    9  C15 UNL     1      23.196   4.114  51.156  1.00  0.00     0.201 A 
HETATM   10  N2  UNL     1      24.313   3.706  51.224  1.00  0.00    -0.258 N 
ENDROOT
BRANCH   1  11
HETATM   11  S1  UNL     1      25.246   2.238  53.144  1.00  0.00    -0.110 SA
BRANCH  11  12
HETATM   12  C5  UNL     1      25.066   0.471  53.111  1.00  0.00     0.046 C 
HETATM   13  C4  UNL     1      23.740   0.257  53.262  1.00  0.00     0.068 C 
BRANCH  13  14
HETATM   14  C3  UNL     1      22.890  -0.919  53.328  1.00  0.00    -0.024 C 
HETATM   15  C2  UNL     1      21.738  -0.254  53.128  1.00  0.00    -0.034 C 
HETATM   16  C1  UNL     1      21.972   1.204  52.963  1.00  0.00     0.036 C 
ENDBRANCH  13  14
ENDBRANCH  11  12
ENDBRANCH   1  11
BRANCH   5  17
HETATM   17  O1  UNL     1      27.665   6.604  49.035  1.00  0.00    -0.360 OA
HETATM   18  H12 UNL     1      27.659   7.018  48.110  1.00  0.00     0.217 HD
ENDBRANCH   5  17
BRANCH   6  19
HETATM   19  C12 UNL     1      25.604   7.821  49.961  1.00  0.00     0.149 C 
BRANCH  19  20
HETATM   20  O2  UNL     1      25.895   9.186  50.132  1.00  0.00    -0.367 OA
HETATM   21  C13 UNL     1      26.374   9.954  49.022  1.00  0.00     0.208 C 
ENDBRANCH  19  20
ENDBRANCH   6  19
TORSDOF 6
ENDMDL
MODEL 9
REMARK VINA RESULT:      -6.0      3.222      7.539
REMARK  6 active torsions:
REMARK  status: ('A' for Active; 'I' for Inactive)
REMARK    1  A    between atoms: C3_3  and  C4_4 
REMARK    2  A    between atoms: C5_5  and  S1_6 
REMARK    3  A    between atoms: S1_6  and  C6_7 
REMARK    4  A    between atoms: C10_11  and  O1_12 
REMARK    5  A    between atoms: C11_13  and  C12_14 
REMARK    6  A    between atoms: C12_14  and  O2_15 
ROOT
HETATM    1  C6  UNL     1      22.614   1.044  52.106  1.00  0.00     0.085 C 
HETATM    2  C7  UNL     1      23.142   2.242  51.788  1.00  0.00     0.015 C 
HETATM    3  C8  UNL     1      24.089   2.652  52.822  1.00  0.00     0.060 C 
HETATM    4  C9  UNL     1      25.514   2.523  52.492  1.00  0.00     0.014 C 
HETATM    5  C10 UNL     1      26.263   1.454  52.775  1.00  0.00     0.075 C 
HETATM    6  C11 UNL     1      26.223   0.132  53.355  1.00  0.00     0.031 C 
HETATM    7  C14 UNL     1      25.159  -0.770  53.881  1.00  0.00     0.106 C 
HETATM    8  N1  UNL     1      24.109  -0.121  53.762  1.00  0.00    -0.158 NA
HETATM    9  C15 UNL     1      22.801  -0.450  54.084  1.00  0.00     0.201 A 
HETATM   10  N2  UNL     1      22.922   0.272  53.145  1.00  0.00    -0.258 N 
ENDROOT
BRANCH   1  11
HETATM   11  S1  UNL     1      21.402   0.248  51.047  1.00  0.00    -0.110 SA
BRANCH  11  12
HETATM   12  C5  UNL     1      19.806   1.009  51.219  1.00  0.00     0.046 C 
HETATM   13  C4  UNL     1      19.001   0.024  51.675  1.00  0.00     0.068 C 
BRANCH  13  14
HETATM   14  C3  UNL     1      17.597  -0.073  52.032  1.00  0.00    -0.024 C 
HETATM   15  C2  UNL     1      17.786  -0.915  53.063  1.00  0.00    -0.034 C 
HETATM   16  C1  UNL     1      19.224  -1.245  53.240  1.00  0.00     0.036 C 
ENDBRANCH  13  14
ENDBRANCH  11  12
ENDBRANCH   1  11
BRANCH   5  17
HETATM   17  O1  UNL     1      27.562   1.751  52.306  1.00  0.00    -0.360 OA
HETATM   18  H12 UNL     1      28.312   1.891  52.974  1.00  0.00     0.217 HD
ENDBRANCH   5  17
BRANCH   6  19
HETATM   19  C12 UNL     1      27.331  -0.549  53.421  1.00  0.00     0.149 C 
BRANCH  19  20
HETATM   20  O2  UNL     1      28.388  -1.476  53.408  1.00  0.00    -0.367 OA
HETATM   21  C13 UNL     1      29.739  -1.013  53.521  1.00  0.00     0.208 C 
ENDBRANCH  19  20
ENDBRANCH   6  19
TORSDOF 6
ENDMDL
