MODEL 1
REMARK VINA RESULT:      -6.9      0.000      0.000
REMARK  6 active torsions:
REMARK  status: ('A' for Active; 'I' for Inactive)
REMARK    1  A    between atoms: C2_2  and  N1_3 
REMARK    2  A    between atoms: N1_3  and  C3_4 
REMARK    3  A    between atoms: N1_3  and  C5_6 
REMARK    4  A    between atoms: C5_6  and  C6_7 
REMARK    5  A    between atoms: C7_8  and  C8_9 
REMARK       I    between atoms: C8_9  and  N2_11 
REMARK    6  A    between atoms: N2_11  and  C9_12 
ROOT
HETATM    1  C8  UNL     1      22.355   0.975  51.751  1.00  0.00     0.301 C 
HETATM    2  O1  UNL     1      22.985   1.466  50.749  1.00  0.00    -0.258 OA
HETATM    3  N2  UNL     1      22.877   0.757  53.034  1.00  0.00    -0.316 N 
HETATM    4  H13 UNL     1      22.362   0.351  53.809  1.00  0.00     0.170 HD
ENDROOT
BRANCH   3   5
HETATM    5  C9  UNL     1      24.238   1.193  53.010  1.00  0.00     0.041 C 
HETATM    6  C10 UNL     1      25.223   0.190  53.052  1.00  0.00     0.004 C 
HETATM    7  C11 UNL     1      26.148  -0.930  52.929  1.00  0.00     0.047 C 
HETATM    8  C14 UNL     1      26.014   0.769  54.160  1.00  0.00     0.274 A 
HETATM    9  C12 UNL     1      27.071   0.196  53.293  1.00  0.00     0.240 A 
HETATM   10  N3  UNL     1      27.957  -0.692  54.075  1.00  0.00    -0.234 NA
HETATM   11  C15 UNL     1      26.495   1.502  52.841  1.00  0.00     0.089 A 
HETATM   12  N4  UNL     1      27.166   0.482  54.922  1.00  0.00     0.007 N 
HETATM   13  C13 UNL     1      28.648   0.169  54.841  1.00  0.00     0.318 C 
HETATM   14  C16 UNL     1      25.390   2.274  52.861  1.00  0.00     0.021 C 
HETATM   15  H16 UNL     1      26.861   0.556  56.010  1.00  0.00     0.292 HD
ENDBRANCH   3   5
BRANCH   1  16
HETATM   16  C7  UNL     1      20.956   0.577  51.626  1.00  0.00    -0.004 C 
HETATM   17  C6  UNL     1      19.789   0.247  51.501  1.00  0.00    -0.066 C 
BRANCH  17  18
HETATM   18  C5  UNL     1      18.390  -0.138  51.329  1.00  0.00     0.366 C 
BRANCH  18  19
HETATM   19  N1  UNL     1      17.720  -0.499  52.538  1.00  0.00     0.098 N 
BRANCH  19  20
HETATM   20  C2  UNL     1      16.354  -0.798  52.303  1.00  0.00     0.269 C 
HETATM   21  C1  UNL     1      15.918  -0.839  50.876  1.00  0.00     0.037 C 
ENDBRANCH  19  20
BRANCH  19  22
HETATM   22  C3  UNL     1      18.448  -1.365  53.380  1.00  0.00     0.269 C 
HETATM   23  C4  UNL     1      17.789  -2.703  53.664  1.00  0.00     0.037 C 
ENDBRANCH  19  22
ENDBRANCH  18  19
ENDBRANCH  17  18
ENDBRANCH   1  16
TORSDOF 6
ENDMDL
MODEL 2
REMARK VINA RESULT:      -6.8      5.205      8.275
REMARK  6 active torsions:
REMARK  status: ('A' for Active; 'I' for Inactive)
REMARK    1  A    between atoms: C2_2  and  N1_3 
REMARK    2  A    between atoms: N1_3  and  C3_4 
REMARK    3  A    between atoms: N1_3  and  C5_6 
REMARK    4  A    between atoms: C5_6  and  C6_7 
REMARK    5  A    between atoms: C7_8  and  C8_9 
REMARK       I    between atoms: C8_9  and  N2_11 
REMARK    6  A    between atoms: N2_11  and  C9_12 
ROOT
HETATM    1  C8  UNL     1      25.868   2.966  50.868  1.00  0.00     0.301 C 
HETATM    2  O1  UNL     1      25.042   3.719  51.494  1.00  0.00    -0.258 OA
HETATM    3  N2  UNL     1      26.460   3.235  49.626  1.00  0.00    -0.316 N 
HETATM    4  H13 UNL     1      27.101   2.615  49.141  1.00  0.00     0.170 HD
ENDROOT
BRANCH   3   5
HETATM    5  C9  UNL     1      25.969   4.508  49.198  1.00  0.00     0.041 C 
HETATM    6  C10 UNL     1      26.932   5.465  48.832  1.00  0.00     0.004 C 
HETATM    7  C11 UNL     1      28.002   6.312  48.318  1.00  0.00     0.047 C 
HETATM    8  C14 UNL     1      26.409   6.568  49.667  1.00  0.00     0.274 A 
HETATM    9  C12 UNL     1      26.870   7.289  48.458  1.00  0.00     0.240 A 
HETATM   10  N3  UNL     1      27.780   8.394  48.829  1.00  0.00    -0.234 NA
HETATM   11  C15 UNL     1      25.557   6.581  48.332  1.00  0.00     0.089 A 
HETATM   12  N4  UNL     1      26.708   7.909  49.986  1.00  0.00     0.007 N 
HETATM   13  C13 UNL     1      26.954   9.287  49.400  1.00  0.00     0.318 C 
HETATM   14  C16 UNL     1      24.834   5.534  48.777  1.00  0.00     0.021 C 
HETATM   15  H16 UNL     1      26.730   7.976  51.116  1.00  0.00     0.292 HD
ENDBRANCH   3   5
BRANCH   1  16
HETATM   16  C7  UNL     1      26.284   1.686  51.436  1.00  0.00    -0.004 C 
HETATM   17  C6  UNL     1      26.614   0.616  51.919  1.00  0.00    -0.066 C 
BRANCH  17  18
HETATM   18  C5  UNL     1      26.990  -0.663  52.515  1.00  0.00     0.366 C 
BRANCH  18  19
HETATM   19  N1  UNL     1      27.291  -0.602  53.911  1.00  0.00     0.098 N 
BRANCH  19  20
HETATM   20  C2  UNL     1      28.631  -0.199  54.134  1.00  0.00     0.269 C 
HETATM   21  C1  UNL     1      29.691  -1.013  53.469  1.00  0.00     0.037 C 
ENDBRANCH  19  20
BRANCH  19  22
HETATM   22  C3  UNL     1      26.285  -0.016  54.705  1.00  0.00     0.269 C 
HETATM   23  C4  UNL     1      25.001  -0.818  54.826  1.00  0.00     0.037 C 
ENDBRANCH  19  22
ENDBRANCH  18  19
ENDBRANCH  17  18
ENDBRANCH   1  16
TORSDOF 6
ENDMDL
MODEL 3
REMARK VINA RESULT:      -6.7      1.042      1.820
REMARK  6 active torsions:
REMARK  status: ('A' for Active; 'I' for Inactive)
REMARK    1  A    between atoms: C2_2  and  N1_3 
REMARK    2  A    between atoms: N1_3  and  C3_4 
REMARK    3  A    between atoms: N1_3  and  C5_6 
REMARK    4  A    between atoms: C5_6  and  C6_7 
REMARK    5  A    between atoms: C7_8  and  C8_9 
REMARK       I    between atoms: C8_9  and  N2_11 
REMARK    6  A    between atoms: N2_11  and  C9_12 
ROOT
HETATM    1  C8  UNL     1      23.008   0.760  52.374  1.00  0.00     0.301 C 
HETATM    2  O1  UNL     1      23.456   1.302  51.303  1.00  0.00    -0.258 OA
HETATM    3  N2  UNL     1      23.772   0.320  53.463  1.00  0.00    -0.316 N 
HETATM    4  H13 UNL     1      23.397  -0.122  54.297  1.00  0.00     0.170 HD
ENDROOT
BRANCH   3   5
HETATM    5  C9  UNL     1      25.140   0.596  53.152  1.00  0.00     0.041 C 
HETATM    6  C10 UNL     1      25.983  -0.515  52.971  1.00  0.00     0.004 C 
HETATM    7  C11 UNL     1      26.719  -1.730  52.640  1.00  0.00     0.047 C 
HETATM    8  C14 UNL     1      27.056  -0.071  53.888  1.00  0.00     0.274 A 
HETATM    9  C12 UNL     1      27.827  -0.731  52.808  1.00  0.00     0.240 A 
HETATM   10  N3  UNL     1      28.745  -1.743  53.372  1.00  0.00    -0.234 NA
HETATM   11  C15 UNL     1      27.330   0.648  52.504  1.00  0.00     0.089 A 
HETATM   12  N4  UNL     1      28.299  -0.517  54.382  1.00  0.00     0.007 N 
HETATM   13  C13 UNL     1      29.682  -0.996  53.981  1.00  0.00     0.318 C 
HETATM   14  C16 UNL     1      26.356   1.541  52.770  1.00  0.00     0.021 C 
HETATM   15  H16 UNL     1      28.244  -0.447  55.511  1.00  0.00     0.292 HD
ENDBRANCH   3   5
BRANCH   1  16
HETATM   16  C7  UNL     1      21.575   0.546  52.556  1.00  0.00    -0.004 C 
HETATM   17  C6  UNL     1      20.379   0.380  52.723  1.00  0.00    -0.066 C 
BRANCH  17  18
HETATM   18  C5  UNL     1      18.948   0.190  52.947  1.00  0.00     0.366 C 
BRANCH  18  19
HETATM   19  N1  UNL     1      18.299  -0.634  51.977  1.00  0.00     0.098 N 
BRANCH  19  20
HETATM   20  C2  UNL     1      17.270  -1.413  52.564  1.00  0.00     0.269 C 
HETATM   21  C1  UNL     1      17.704  -2.495  53.496  1.00  0.00     0.037 C 
ENDBRANCH  19  20
BRANCH  19  22
HETATM   22  C3  UNL     1      18.023   0.005  50.751  1.00  0.00     0.269 C 
HETATM   23  C4  UNL     1      16.710  -0.385  50.095  1.00  0.00     0.037 C 
ENDBRANCH  19  22
ENDBRANCH  18  19
ENDBRANCH  17  18
ENDBRANCH   1  16
TORSDOF 6
ENDMDL
MODEL 4
REMARK VINA RESULT:      -6.3      5.986      8.898
REMARK  6 active torsions:
REMARK  status: ('A' for Active; 'I' for Inactive)
REMARK    1  A    between atoms: C2_2  and  N1_3 
REMARK    2  A    between atoms: N1_3  and  C3_4 
REMARK    3  A    between atoms: N1_3  and  C5_6 
REMARK    4  A    between atoms: C5_6  and  C6_7 
REMARK    5  A    between atoms: C7_8  and  C8_9 
REMARK       I    between atoms: C8_9  and  N2_11 
REMARK    6  A    between atoms: N2_11  and  C9_12 
ROOT
HETATM    1  C8  UNL     1      26.176   3.919  50.243  1.00  0.00     0.301 C 
HETATM    2  O1  UNL     1      25.221   4.682  50.626  1.00  0.00    -0.258 OA
HETATM    3  N2  UNL     1      27.118   4.205  49.245  1.00  0.00    -0.316 N 
HETATM    4  H13 UNL     1      27.858   3.577  48.947  1.00  0.00     0.170 HD
ENDROOT
BRANCH   3   5
HETATM    5  C9  UNL     1      26.812   5.509  48.744  1.00  0.00     0.041 C 
HETATM    6  C10 UNL     1      27.888   6.259  48.238  1.00  0.00     0.004 C 
HETATM    7  C11 UNL     1      29.039   6.873  47.588  1.00  0.00     0.047 C 
HETATM    8  C14 UNL     1      27.619   7.492  49.010  1.00  0.00     0.274 A 
HETATM    9  C12 UNL     1      28.098   8.036  47.717  1.00  0.00     0.240 A 
HETATM   10  N3  UNL     1      29.203   8.993  47.936  1.00  0.00    -0.234 NA
HETATM   11  C15 UNL     1      26.681   7.553  47.735  1.00  0.00     0.089 A 
HETATM   12  N4  UNL     1      28.158   8.782  49.195  1.00  0.00     0.007 N 
HETATM   13  C13 UNL     1      28.581  10.053  48.482  1.00  0.00     0.318 C 
HETATM   14  C16 UNL     1      25.832   6.679  48.311  1.00  0.00     0.021 C 
HETATM   15  H16 UNL     1      28.278   8.926  50.312  1.00  0.00     0.292 HD
ENDBRANCH   3   5
BRANCH   1  16
HETATM   16  C7  UNL     1      26.369   2.607  50.855  1.00  0.00    -0.004 C 
HETATM   17  C6  UNL     1      26.537   1.521  51.383  1.00  0.00    -0.066 C 
BRANCH  17  18
HETATM   18  C5  UNL     1      26.753   0.231  52.033  1.00  0.00     0.366 C 
BRANCH  18  19
HETATM   19  N1  UNL     1      27.535   0.291  53.228  1.00  0.00     0.098 N 
BRANCH  19  20
HETATM   20  C2  UNL     1      26.721   0.497  54.370  1.00  0.00     0.269 C 
HETATM   21  C1  UNL     1      25.479  -0.326  54.459  1.00  0.00     0.037 C 
ENDBRANCH  19  20
BRANCH  19  22
HETATM   22  C3  UNL     1      28.556  -0.677  53.312  1.00  0.00     0.269 C 
HETATM   23  C4  UNL     1      29.959  -0.129  53.506  1.00  0.00     0.037 C 
ENDBRANCH  19  22
ENDBRANCH  18  19
ENDBRANCH  17  18
ENDBRANCH   1  16
TORSDOF 6
ENDMDL
MODEL 5
REMARK VINA RESULT:      -6.3      5.305      9.201
REMARK  6 active torsions:
REMARK  status: ('A' for Active; 'I' for Inactive)
REMARK    1  A    between atoms: C2_2  and  N1_3 
REMARK    2  A    between atoms: N1_3  and  C3_4 
REMARK    3  A    between atoms: N1_3  and  C5_6 
REMARK    4  A    between atoms: C5_6  and  C6_7 
REMARK    5  A    between atoms: C7_8  and  C8_9 
REMARK       I    between atoms: C8_9  and  N2_11 
REMARK    6  A    between atoms: N2_11  and  C9_12 
ROOT
HETATM    1  C8  UNL     1      26.400   3.916  49.606  1.00  0.00     0.301 C 
HETATM    2  O1  UNL     1      26.537   2.737  49.125  1.00  0.00    -0.258 OA
HETATM    3  N2  UNL     1      25.624   4.275  50.717  1.00  0.00    -0.316 N 
HETATM    4  H13 UNL     1      25.518   5.220  51.071  1.00  0.00     0.170 HD
ENDROOT
BRANCH   3   5
HETATM    5  C9  UNL     1      25.023   3.075  51.210  1.00  0.00     0.041 C 
HETATM    6  C10 UNL     1      25.530   2.565  52.418  1.00  0.00     0.004 C 
HETATM    7  C11 UNL     1      26.013   2.225  53.751  1.00  0.00     0.047 C 
HETATM    8  C14 UNL     1      25.741   1.179  51.947  1.00  0.00     0.274 A 
HETATM    9  C12 UNL     1      25.304   0.965  53.347  1.00  0.00     0.240 A 
HETATM   10  N3  UNL     1      26.270   0.109  54.066  1.00  0.00    -0.234 NA
HETATM   11  C15 UNL     1      24.217   1.277  52.365  1.00  0.00     0.089 A 
HETATM   12  N4  UNL     1      26.229  -0.056  52.426  1.00  0.00     0.007 N 
HETATM   13  C13 UNL     1      26.073  -1.100  53.515  1.00  0.00     0.318 C 
HETATM   14  C16 UNL     1      23.937   1.917  51.213  1.00  0.00     0.021 C 
HETATM   15  H16 UNL     1      27.003  -0.410  51.680  1.00  0.00     0.292 HD
ENDBRANCH   3   5
BRANCH   1  16
HETATM   16  C7  UNL     1      27.085   5.052  48.995  1.00  0.00    -0.004 C 
HETATM   17  C6  UNL     1      27.673   5.998  48.498  1.00  0.00    -0.066 C 
BRANCH  17  18
HETATM   18  C5  UNL     1      28.391   7.133  47.924  1.00  0.00     0.366 C 
BRANCH  18  19
HETATM   19  N1  UNL     1      28.994   8.002  48.885  1.00  0.00     0.098 N 
BRANCH  19  20
HETATM   20  C2  UNL     1      30.403   8.044  48.733  1.00  0.00     0.269 C 
HETATM   21  C1  UNL     1      31.105   9.207  49.352  1.00  0.00     0.037 C 
ENDBRANCH  19  20
BRANCH  19  22
HETATM   22  C3  UNL     1      28.316   9.222  49.084  1.00  0.00     0.269 C 
HETATM   23  C4  UNL     1      27.345   9.244  50.251  1.00  0.00     0.037 C 
ENDBRANCH  19  22
ENDBRANCH  18  19
ENDBRANCH  17  18
ENDBRANCH   1  16
TORSDOF 6
ENDMDL
MODEL 6
REMARK VINA RESULT:      -6.3      5.050      6.287
REMARK  6 active torsions:
REMARK  status: ('A' for Active; 'I' for Inactive)
REMARK    1  A    between atoms: C2_2  and  N1_3 
REMARK    2  A    between atoms: N1_3  and  C3_4 
REMARK    3  A    between atoms: N1_3  and  C5_6 
REMARK    4  A    between atoms: C5_6  and  C6_7 
REMARK    5  A    between atoms: C7_8  and  C8_9 
REMARK       I    between atoms: C8_9  and  N2_11 
REMARK    6  A    between atoms: N2_11  and  C9_12 
ROOT
HETATM    1  C8  UNL     1      24.969   2.381  51.941  1.00  0.00     0.301 C 
HETATM    2  O1  UNL     1      24.760   1.150  51.658  1.00  0.00    -0.258 OA
HETATM    3  N2  UNL     1      25.722   2.870  53.018  1.00  0.00    -0.316 N 
HETATM    4  H13 UNL     1      25.860   3.852  53.233  1.00  0.00     0.170 HD
ENDROOT
BRANCH   3   5
HETATM    5  C9  UNL     1      26.214   1.733  53.732  1.00  0.00     0.041 C 
HETATM    6  C10 UNL     1      27.609   1.564  53.765  1.00  0.00     0.004 C 
HETATM    7  C11 UNL     1      29.063   1.582  53.877  1.00  0.00     0.047 C 
HETATM    8  C14 UNL     1      27.624   0.150  53.329  1.00  0.00     0.274 A 
HETATM    9  C12 UNL     1      28.735   0.182  54.309  1.00  0.00     0.240 A 
HETATM   10  N3  UNL     1      29.970  -0.364  53.708  1.00  0.00    -0.234 NA
HETATM   11  C15 UNL     1      27.357   0.130  54.890  1.00  0.00     0.089 A 
HETATM   12  N4  UNL     1      28.548  -0.878  53.050  1.00  0.00     0.007 N 
HETATM   13  C13 UNL     1      29.706  -1.679  53.616  1.00  0.00     0.318 C 
HETATM   14  C16 UNL     1      26.069   0.468  54.679  1.00  0.00     0.021 C 
HETATM   15  H16 UNL     1      28.289  -1.276  52.022  1.00  0.00     0.292 HD
ENDBRANCH   3   5
BRANCH   1  16
HETATM   16  C7  UNL     1      24.402   3.441  51.112  1.00  0.00    -0.004 C 
HETATM   17  C6  UNL     1      23.916   4.332  50.435  1.00  0.00    -0.066 C 
BRANCH  17  18
HETATM   18  C5  UNL     1      23.314   5.399  49.640  1.00  0.00     0.366 C 
BRANCH  18  19
HETATM   19  N1  UNL     1      23.944   6.674  49.783  1.00  0.00     0.098 N 
BRANCH  19  20
HETATM   20  C2  UNL     1      23.266   7.482  50.730  1.00  0.00     0.269 C 
HETATM   21  C1  UNL     1      21.775   7.407  50.724  1.00  0.00     0.037 C 
ENDBRANCH  19  20
BRANCH  19  22
HETATM   22  C3  UNL     1      25.351   6.633  49.840  1.00  0.00     0.269 C 
HETATM   23  C4  UNL     1      26.055   6.570  48.495  1.00  0.00     0.037 C 
ENDBRANCH  19  22
ENDBRANCH  18  19
ENDBRANCH  17  18
ENDBRANCH   1  16
TORSDOF 6
ENDMDL
MODEL 7
REMARK VINA RESULT:      -6.3      5.502      7.372
REMARK  6 active torsions:
REMARK  status: ('A' for Active; 'I' for Inactive)
REMARK    1  A    between atoms: C2_2  and  N1_3 
REMARK    2  A    between atoms: N1_3  and  C3_4 
REMARK    3  A    between atoms: N1_3  and  C5_6 
REMARK    4  A    between atoms: C5_6  and  C6_7 
REMARK    5  A    between atoms: C7_8  and  C8_9 
REMARK       I    between atoms: C8_9  and  N2_11 
REMARK    6  A    between atoms: N2_11  and  C9_12 
ROOT
HETATM    1  C8  UNL     1      24.513   4.480  50.558  1.00  0.00     0.301 C 
HETATM    2  O1  UNL     1      24.266   5.606  51.117  1.00  0.00    -0.258 OA
HETATM    3  N2  UNL     1      25.137   4.289  49.317  1.00  0.00    -0.316 N 
HETATM    4  H13 UNL     1      25.308   3.386  48.885  1.00  0.00     0.170 HD
ENDROOT
BRANCH   3   5
HETATM    5  C9  UNL     1      25.447   5.586  48.802  1.00  0.00     0.041 C 
HETATM    6  C10 UNL     1      26.808   5.877  48.600  1.00  0.00     0.004 C 
HETATM    7  C11 UNL     1      28.223   6.006  48.272  1.00  0.00     0.047 C 
HETATM    8  C14 UNL     1      26.820   7.166  49.325  1.00  0.00     0.274 A 
HETATM    9  C12 UNL     1      27.757   7.432  48.208  1.00  0.00     0.240 A 
HETATM   10  N3  UNL     1      29.044   7.946  48.724  1.00  0.00    -0.234 NA
HETATM   11  C15 UNL     1      26.301   7.485  47.863  1.00  0.00     0.089 A 
HETATM   12  N4  UNL     1      27.723   8.190  49.681  1.00  0.00     0.007 N 
HETATM   13  C13 UNL     1      28.730   9.186  49.137  1.00  0.00     0.318 C 
HETATM   14  C16 UNL     1      25.085   7.002  48.183  1.00  0.00     0.021 C 
HETATM   15  H16 UNL     1      27.614   8.344  50.797  1.00  0.00     0.292 HD
ENDBRANCH   3   5
BRANCH   1  16
HETATM   16  C7  UNL     1      24.141   3.228  51.210  1.00  0.00    -0.004 C 
HETATM   17  C6  UNL     1      23.832   2.172  51.737  1.00  0.00    -0.066 C 
BRANCH  17  18
HETATM   18  C5  UNL     1      23.456   0.899  52.345  1.00  0.00     0.366 C 
BRANCH  18  19
HETATM   19  N1  UNL     1      24.298   0.483  53.422  1.00  0.00     0.098 N 
BRANCH  19  20
HETATM   20  C2  UNL     1      23.785  -0.672  54.064  1.00  0.00     0.269 C 
HETATM   21  C1  UNL     1      22.387  -1.063  53.713  1.00  0.00     0.037 C 
ENDBRANCH  19  20
BRANCH  19  22
HETATM   22  C3  UNL     1      25.679   0.521  53.139  1.00  0.00     0.269 C 
HETATM   23  C4  UNL     1      26.283  -0.792  52.673  1.00  0.00     0.037 C 
ENDBRANCH  19  22
ENDBRANCH  18  19
ENDBRANCH  17  18
ENDBRANCH   1  16
TORSDOF 6
ENDMDL
MODEL 8
REMARK VINA RESULT:      -6.2      4.528      8.100
REMARK  6 active torsions:
REMARK  status: ('A' for Active; 'I' for Inactive)
REMARK    1  A    between atoms: C2_2  and  N1_3 
REMARK    2  A    between atoms: N1_3  and  C3_4 
REMARK    3  A    between atoms: N1_3  and  C5_6 
REMARK    4  A    between atoms: C5_6  and  C6_7 
REMARK    5  A    between atoms: C7_8  and  C8_9 
REMARK       I    between atoms: C8_9  and  N2_11 
REMARK    6  A    between atoms: N2_11  and  C9_12 
ROOT
HETATM    1  C8  UNL     1      24.926   3.724  50.910  1.00  0.00     0.301 C 
HETATM    2  O1  UNL     1      24.788   2.805  50.029  1.00  0.00    -0.258 OA
HETATM    3  N2  UNL     1      24.899   3.551  52.301  1.00  0.00    -0.316 N 
HETATM    4  H13 UNL     1      24.995   4.298  52.982  1.00  0.00     0.170 HD
ENDROOT
BRANCH   3   5
HETATM    5  C9  UNL     1      24.693   2.157  52.544  1.00  0.00     0.041 C 
HETATM    6  C10 UNL     1      25.710   1.481  53.240  1.00  0.00     0.004 C 
HETATM    7  C11 UNL     1      26.739   0.925  54.110  1.00  0.00     0.047 C 
HETATM    8  C14 UNL     1      25.856   0.358  52.288  1.00  0.00     0.274 A 
HETATM    9  C12 UNL     1      26.068  -0.314  53.592  1.00  0.00     0.240 A 
HETATM   10  N3  UNL     1      27.334  -1.077  53.581  1.00  0.00    -0.234 NA
HETATM   11  C15 UNL     1      24.645  -0.019  53.235  1.00  0.00     0.089 A 
HETATM   12  N4  UNL     1      26.630  -0.808  52.113  1.00  0.00     0.007 N 
HETATM   13  C13 UNL     1      27.058  -2.109  52.766  1.00  0.00     0.318 C 
HETATM   14  C16 UNL     1      23.841   0.818  52.549  1.00  0.00     0.021 C 
HETATM   15  H16 UNL     1      27.056  -0.760  51.065  1.00  0.00     0.292 HD
ENDBRANCH   3   5
BRANCH   1  16
HETATM   16  C7  UNL     1      25.137   5.112  50.510  1.00  0.00    -0.004 C 
HETATM   17  C6  UNL     1      25.327   6.265  50.161  1.00  0.00    -0.066 C 
BRANCH  17  18
HETATM   18  C5  UNL     1      25.578   7.640  49.736  1.00  0.00     0.366 C 
BRANCH  18  19
HETATM   19  N1  UNL     1      26.951   7.941  49.480  1.00  0.00     0.098 N 
BRANCH  19  20
HETATM   20  C2  UNL     1      27.343   7.509  48.188  1.00  0.00     0.269 C 
HETATM   21  C1  UNL     1      28.228   6.308  48.128  1.00  0.00     0.037 C 
ENDBRANCH  19  20
BRANCH  19  22
HETATM   22  C3  UNL     1      27.361   9.224  49.898  1.00  0.00     0.269 C 
HETATM   23  C4  UNL     1      28.794   9.592  49.559  1.00  0.00     0.037 C 
ENDBRANCH  19  22
ENDBRANCH  18  19
ENDBRANCH  17  18
ENDBRANCH   1  16
TORSDOF 6
ENDMDL
MODEL 9
REMARK VINA RESULT:      -6.0      5.345      7.398
REMARK  6 active torsions:
REMARK  status: ('A' for Active; 'I' for Inactive)
REMARK    1  A    between atoms: C2_2  and  N1_3 
REMARK    2  A    between atoms: N1_3  and  C3_4 
REMARK    3  A    between atoms: N1_3  and  C5_6 
REMARK    4  A    between atoms: C5_6  and  C6_7 
REMARK    5  A    between atoms: C7_8  and  C8_9 
REMARK       I    between atoms: C8_9  and  N2_11 
REMARK    6  A    between atoms: N2_11  and  C9_12 
ROOT
HETATM    1  C8  UNL     1      25.747   3.114  50.710  1.00  0.00     0.301 C 
HETATM    2  O1  UNL     1      27.013   3.040  50.892  1.00  0.00    -0.258 OA
HETATM    3  N2  UNL     1      25.078   4.039  49.897  1.00  0.00    -0.316 N 
HETATM    4  H13 UNL     1      24.071   4.090  49.781  1.00  0.00     0.170 HD
ENDROOT
BRANCH   3   5
HETATM    5  C9  UNL     1      26.077   4.877  49.310  1.00  0.00     0.041 C 
HETATM    6  C10 UNL     1      25.978   6.255  49.568  1.00  0.00     0.004 C 
HETATM    7  C11 UNL     1      25.876   7.631  50.038  1.00  0.00     0.047 C 
HETATM    8  C14 UNL     1      26.080   6.703  48.162  1.00  0.00     0.274 A 
HETATM    9  C12 UNL     1      26.821   7.767  48.879  1.00  0.00     0.240 A 
HETATM   10  N3  UNL     1      26.293   9.100  48.517  1.00  0.00    -0.234 NA
HETATM   11  C15 UNL     1      27.565   6.485  48.666  1.00  0.00     0.089 A 
HETATM   12  N4  UNL     1      26.063   7.898  47.411  1.00  0.00     0.007 N 
HETATM   13  C13 UNL     1      26.715   9.258  47.251  1.00  0.00     0.318 C 
HETATM   14  C16 UNL     1      27.425   5.153  48.518  1.00  0.00     0.021 C 
HETATM   15  H16 UNL     1      25.292   7.756  46.595  1.00  0.00     0.292 HD
ENDBRANCH   3   5
BRANCH   1  16
HETATM   16  C7  UNL     1      24.844   2.181  51.378  1.00  0.00    -0.004 C 
HETATM   17  C6  UNL     1      24.098   1.407  51.954  1.00  0.00    -0.066 C 
BRANCH  17  18
HETATM   18  C5  UNL     1      23.220   0.480  52.664  1.00  0.00     0.366 C 
BRANCH  18  19
HETATM   19  N1  UNL     1      23.805  -0.125  53.820  1.00  0.00     0.098 N 
BRANCH  19  20
HETATM   20  C2  UNL     1      22.875  -0.955  54.495  1.00  0.00     0.269 C 
HETATM   21  C1  UNL     1      21.481  -0.435  54.611  1.00  0.00     0.037 C 
ENDBRANCH  19  20
BRANCH  19  22
HETATM   22  C3  UNL     1      25.111  -0.618  53.629  1.00  0.00     0.269 C 
HETATM   23  C4  UNL     1      26.153  -0.096  54.604  1.00  0.00     0.037 C 
ENDBRANCH  19  22
ENDBRANCH  18  19
ENDBRANCH  17  18
ENDBRANCH   1  16
TORSDOF 6
ENDMDL
