MODEL 1
REMARK VINA RESULT:      -8.5      0.000      0.000
REMARK  5 active torsions:
REMARK  status: ('A' for Active; 'I' for Inactive)
REMARK    1  A    between atoms: C2_2  and  C3_4 
REMARK    2  A    between atoms: C4_5  and  C5_6 
REMARK    3  A    between atoms: N1_7  and  C6_8 
REMARK    4  A    between atoms: C13_18  and  N5_19 
REMARK    5  A    between atoms: N5_19  and  S1_20 
ROOT
HETATM    1  C6  UNL     1      23.937   2.953  51.902  1.00  0.00     0.181 A 
HETATM    2  N2  UNL     1      22.733   3.366  52.328  1.00  0.00    -0.220 NA
HETATM    3  C7  UNL     1      22.239   4.549  51.917  1.00  0.00     0.238 A 
HETATM    4  N3  UNL     1      22.899   5.384  51.068  1.00  0.00    -0.215 NA
HETATM    5  C8  UNL     1      24.123   5.019  50.602  1.00  0.00     0.202 A 
HETATM    6  C9  UNL     1      24.604   3.801  51.042  1.00  0.00     0.130 A 
HETATM    7  N4  UNL     1      25.856   3.222  50.685  1.00  0.00    -0.379 N 
HETATM    8  C10 UNL     1      26.638   3.379  49.466  1.00  0.00     0.161 C 
HETATM    9  C11 UNL     1      26.812   4.801  49.097  1.00  0.00    -0.004 A 
HETATM   10  C12 UNL     1      28.040   5.060  48.525  1.00  0.00     0.041 A 
HETATM   11  C13 UNL     1      28.492   6.302  48.075  1.00  0.00     0.043 A 
HETATM   12  C15 UNL     1      27.582   7.324  48.246  1.00  0.00     0.033 A 
HETATM   13  C16 UNL     1      26.348   7.156  48.799  1.00  0.00     0.040 A 
HETATM   14  C17 UNL     1      25.979   5.892  49.218  1.00  0.00     0.086 A 
HETATM   15  O3  UNL     1      24.696   5.949  49.746  1.00  0.00    -0.289 OA
HETATM   16  H7  UNL     1      26.251   2.587  51.441  1.00  0.00     0.160 HD
ENDROOT
BRANCH   1  17
HETATM   17  N1  UNL     1      24.479   1.712  52.322  1.00  0.00    -0.239 NA
HETATM   18  C5  UNL     1      23.861   0.868  53.080  1.00  0.00     0.119 C 
BRANCH  18  19
HETATM   19  C4  UNL     1      24.889  -0.167  53.153  1.00  0.00     0.020 C 
HETATM   20  C3  UNL     1      26.133   0.094  52.818  1.00  0.00     0.016 C 
BRANCH  20  21
HETATM   21  C2  UNL     1      27.150  -0.947  52.897  1.00  0.00    -0.011 C 
HETATM   22  C1  UNL     1      26.888  -2.167  52.412  1.00  0.00     0.051 C 
HETATM   23 BR1  UNL     1      28.846  -0.577  53.685  1.00  0.00    -0.056 Br
ENDBRANCH  20  21
ENDBRANCH  18  19
ENDBRANCH   1  17
BRANCH  11  24
HETATM   24  N5  UNL     1      29.788   6.388  47.511  1.00  0.00    -0.285 N 
HETATM   25  H11 UNL     1      29.824   7.042  46.686  1.00  0.00     0.178 HD
BRANCH  24  26
HETATM   26  S1  UNL     1      31.239   5.588  47.993  1.00  0.00     0.227 S 
HETATM   27  C14 UNL     1      32.612   6.497  47.349  1.00  0.00     0.186 C 
HETATM   28  O1  UNL     1      31.346   5.569  49.485  1.00  0.00    -0.206 OA
HETATM   29  O2  UNL     1      31.254   4.163  47.510  1.00  0.00    -0.206 OA
ENDBRANCH  24  26
ENDBRANCH  11  24
TORSDOF 5
ENDMDL
MODEL 2
REMARK VINA RESULT:      -8.2      1.125      1.326
REMARK  5 active torsions:
REMARK  status: ('A' for Active; 'I' for Inactive)
REMARK    1  A    between atoms: C2_2  and  C3_4 
REMARK    2  A    between atoms: C4_5  and  C5_6 
REMARK    3  A    between atoms: N1_7  and  C6_8 
REMARK    4  A    between atoms: C13_18  and  N5_19 
REMARK    5  A    between atoms: N5_19  and  S1_20 
ROOT
HETATM    1  C6  UNL     1      23.437   3.881  51.775  1.00  0.00     0.181 A 
HETATM    2  N2  UNL     1      22.262   4.473  52.035  1.00  0.00    -0.220 NA
HETATM    3  C7  UNL     1      21.947   5.641  51.446  1.00  0.00     0.238 A 
HETATM    4  N3  UNL     1      22.768   6.288  50.574  1.00  0.00    -0.215 NA
HETATM    5  C8  UNL     1      23.974   5.737  50.271  1.00  0.00     0.202 A 
HETATM    6  C9  UNL     1      24.268   4.538  50.891  1.00  0.00     0.130 A 
HETATM    7  N4  UNL     1      25.468   3.787  50.722  1.00  0.00    -0.379 N 
HETATM    8  C10 UNL     1      26.359   3.705  49.573  1.00  0.00     0.161 C 
HETATM    9  C11 UNL     1      26.730   5.042  49.062  1.00  0.00    -0.004 A 
HETATM   10  C12 UNL     1      28.023   5.093  48.583  1.00  0.00     0.041 A 
HETATM   11  C13 UNL     1      28.655   6.213  48.040  1.00  0.00     0.043 A 
HETATM   12  C15 UNL     1      27.862   7.341  48.005  1.00  0.00     0.033 A 
HETATM   13  C16 UNL     1      26.576   7.379  48.454  1.00  0.00     0.040 A 
HETATM   14  C17 UNL     1      26.026   6.224  48.978  1.00  0.00     0.086 A 
HETATM   15  O3  UNL     1      24.721   6.485  49.372  1.00  0.00    -0.289 OA
HETATM   16  H7  UNL     1      25.722   3.212  51.580  1.00  0.00     0.160 HD
ENDROOT
BRANCH   1  17
HETATM   17  N1  UNL     1      23.792   2.651  52.383  1.00  0.00    -0.239 NA
HETATM   18  C5  UNL     1      22.965   1.683  52.602  1.00  0.00     0.119 C 
BRANCH  18  19
HETATM   19  C4  UNL     1      23.885   0.734  53.223  1.00  0.00     0.020 C 
HETATM   20  C3  UNL     1      25.184   0.854  53.068  1.00  0.00     0.016 C 
BRANCH  20  21
HETATM   21  C2  UNL     1      26.092  -0.100  53.693  1.00  0.00    -0.011 C 
HETATM   22  C1  UNL     1      26.423   0.048  54.982  1.00  0.00     0.051 C 
HETATM   23 BR1  UNL     1      26.807  -1.550  52.684  1.00  0.00    -0.056 Br
ENDBRANCH  20  21
ENDBRANCH  18  19
ENDBRANCH   1  17
BRANCH  11  24
HETATM   24  N5  UNL     1      29.993   6.087  47.594  1.00  0.00    -0.285 N 
HETATM   25  H11 UNL     1      30.055   5.845  46.571  1.00  0.00     0.178 HD
BRANCH  24  26
HETATM   26  S1  UNL     1      31.458   6.275  48.487  1.00  0.00     0.227 S 
HETATM   27  C14 UNL     1      32.812   5.911  47.410  1.00  0.00     0.186 C 
HETATM   28  O1  UNL     1      31.598   7.690  48.956  1.00  0.00    -0.206 OA
HETATM   29  O2  UNL     1      31.470   5.384  49.698  1.00  0.00    -0.206 OA
ENDBRANCH  24  26
ENDBRANCH  11  24
TORSDOF 5
ENDMDL
MODEL 3
REMARK VINA RESULT:      -8.2      5.393      9.729
REMARK  5 active torsions:
REMARK  status: ('A' for Active; 'I' for Inactive)
REMARK    1  A    between atoms: C2_2  and  C3_4 
REMARK    2  A    between atoms: C4_5  and  C5_6 
REMARK    3  A    between atoms: N1_7  and  C6_8 
REMARK    4  A    between atoms: C13_18  and  N5_19 
REMARK    5  A    between atoms: N5_19  and  S1_20 
ROOT
HETATM    1  C6  UNL     1      26.681   1.702  52.039  1.00  0.00     0.181 A 
HETATM    2  N2  UNL     1      27.866   1.230  52.452  1.00  0.00    -0.220 NA
HETATM    3  C7  UNL     1      27.923   0.150  53.254  1.00  0.00     0.238 A 
HETATM    4  N3  UNL     1      26.821  -0.519  53.692  1.00  0.00    -0.215 NA
HETATM    5  C8  UNL     1      25.590  -0.087  53.306  1.00  0.00     0.202 A 
HETATM    6  C9  UNL     1      25.565   1.023  52.483  1.00  0.00     0.130 A 
HETATM    7  N4  UNL     1      24.393   1.645  51.961  1.00  0.00    -0.379 N 
HETATM    8  C10 UNL     1      23.096   1.065  51.646  1.00  0.00     0.161 C 
HETATM    9  C11 UNL     1      22.568   0.246  52.759  1.00  0.00    -0.004 A 
HETATM   10  C12 UNL     1      21.197   0.324  52.880  1.00  0.00     0.041 A 
HETATM   11  C13 UNL     1      20.416  -0.334  53.831  1.00  0.00     0.043 A 
HETATM   12  C15 UNL     1      21.139  -1.120  54.703  1.00  0.00     0.033 A 
HETATM   13  C16 UNL     1      22.495  -1.255  54.655  1.00  0.00     0.040 A 
HETATM   14  C17 UNL     1      23.193  -0.568  53.680  1.00  0.00     0.086 A 
HETATM   15  O3  UNL     1      24.546  -0.847  53.813  1.00  0.00    -0.289 OA
HETATM   16  H7  UNL     1      24.519   2.686  51.786  1.00  0.00     0.160 HD
ENDROOT
BRANCH   1  17
HETATM   17  N1  UNL     1      26.596   2.838  51.194  1.00  0.00    -0.239 NA
HETATM   18  C5  UNL     1      26.676   2.793  49.906  1.00  0.00     0.119 C 
BRANCH  18  19
HETATM   19  C4  UNL     1      26.524   4.217  49.619  1.00  0.00     0.020 C 
HETATM   20  C3  UNL     1      27.301   4.815  48.744  1.00  0.00     0.016 C 
BRANCH  20  21
HETATM   21  C2  UNL     1      27.139   6.237  48.466  1.00  0.00    -0.011 C 
HETATM   22  C1  UNL     1      25.910   6.765  48.412  1.00  0.00     0.051 C 
HETATM   23 BR1  UNL     1      28.666   7.341  48.181  1.00  0.00    -0.056 Br
ENDBRANCH  20  21
ENDBRANCH  18  19
ENDBRANCH   1  17
BRANCH  11  24
HETATM   24  N5  UNL     1      19.013  -0.140  53.809  1.00  0.00    -0.285 N 
HETATM   25  H11 UNL     1      18.709   0.667  54.415  1.00  0.00     0.178 HD
BRANCH  24  26
HETATM   26  S1  UNL     1      17.806  -1.023  52.949  1.00  0.00     0.227 S 
HETATM   27  C14 UNL     1      17.892  -2.715  53.457  1.00  0.00     0.186 C 
HETATM   28  O1  UNL     1      16.445  -0.500  53.286  1.00  0.00    -0.206 OA
HETATM   29  O2  UNL     1      17.997  -0.890  51.463  1.00  0.00    -0.206 OA
ENDBRANCH  24  26
ENDBRANCH  11  24
TORSDOF 5
ENDMDL
MODEL 4
REMARK VINA RESULT:      -7.8      4.486      7.241
REMARK  5 active torsions:
REMARK  status: ('A' for Active; 'I' for Inactive)
REMARK    1  A    between atoms: C2_2  and  C3_4 
REMARK    2  A    between atoms: C4_5  and  C5_6 
REMARK    3  A    between atoms: N1_7  and  C6_8 
REMARK    4  A    between atoms: C13_18  and  N5_19 
REMARK    5  A    between atoms: N5_19  and  S1_20 
ROOT
HETATM    1  C6  UNL     1      21.581   2.937  49.542  1.00  0.00     0.181 A 
HETATM    2  N2  UNL     1      20.453   2.337  49.132  1.00  0.00    -0.220 NA
HETATM    3  C7  UNL     1      20.042   1.197  49.718  1.00  0.00     0.238 A 
HETATM    4  N3  UNL     1      20.714   0.589  50.733  1.00  0.00    -0.215 NA
HETATM    5  C8  UNL     1      21.865   1.150  51.192  1.00  0.00     0.202 A 
HETATM    6  C9  UNL     1      22.261   2.319  50.572  1.00  0.00     0.130 A 
HETATM    7  N4  UNL     1      23.428   3.075  50.888  1.00  0.00    -0.379 N 
HETATM    8  C10 UNL     1      24.134   3.207  52.154  1.00  0.00     0.161 C 
HETATM    9  C11 UNL     1      24.411   1.893  52.775  1.00  0.00    -0.004 A 
HETATM   10  C12 UNL     1      25.615   1.861  53.448  1.00  0.00     0.041 A 
HETATM   11  C13 UNL     1      26.146   0.765  54.131  1.00  0.00     0.043 A 
HETATM   12  C15 UNL     1      25.348  -0.358  54.095  1.00  0.00     0.033 A 
HETATM   13  C16 UNL     1      24.144  -0.413  53.456  1.00  0.00     0.040 A 
HETATM   14  C17 UNL     1      23.692   0.718  52.803  1.00  0.00     0.086 A 
HETATM   15  O3  UNL     1      22.459   0.442  52.227  1.00  0.00    -0.289 OA
HETATM   16  H7  UNL     1      23.815   3.609  50.054  1.00  0.00     0.160 HD
ENDROOT
BRANCH   1  17
HETATM   17  N1  UNL     1      22.035   4.138  48.941  1.00  0.00    -0.239 NA
HETATM   18  C5  UNL     1      22.184   4.303  47.668  1.00  0.00     0.119 C 
BRANCH  18  19
HETATM   19  C4  UNL     1      22.656   5.685  47.672  1.00  0.00     0.020 C 
HETATM   20  C3  UNL     1      23.828   5.996  48.178  1.00  0.00     0.016 C 
BRANCH  20  21
HETATM   21  C2  UNL     1      24.287   7.380  48.175  1.00  0.00    -0.011 C 
HETATM   22  C1  UNL     1      24.704   7.937  47.032  1.00  0.00     0.051 C 
HETATM   23 BR1  UNL     1      24.297   8.392  49.790  1.00  0.00    -0.056 Br
ENDBRANCH  20  21
ENDBRANCH  18  19
ENDBRANCH   1  17
BRANCH  11  24
HETATM   24  N5  UNL     1      27.402   0.909  54.769  1.00  0.00    -0.285 N 
HETATM   25  H11 UNL     1      27.362   0.667  55.794  1.00  0.00     0.178 HD
BRANCH  24  26
HETATM   26  S1  UNL     1      28.912   1.407  54.099  1.00  0.00     0.227 S 
HETATM   27  C14 UNL     1      29.834  -0.042  53.678  1.00  0.00     0.186 C 
HETATM   28  O1  UNL     1      28.685   2.199  52.849  1.00  0.00    -0.206 OA
HETATM   29  O2  UNL     1      29.671   2.274  55.064  1.00  0.00    -0.206 OA
ENDBRANCH  24  26
ENDBRANCH  11  24
TORSDOF 5
ENDMDL
MODEL 5
REMARK VINA RESULT:      -7.8      1.958      2.724
REMARK  5 active torsions:
REMARK  status: ('A' for Active; 'I' for Inactive)
REMARK    1  A    between atoms: C2_2  and  C3_4 
REMARK    2  A    between atoms: C4_5  and  C5_6 
REMARK    3  A    between atoms: N1_7  and  C6_8 
REMARK    4  A    between atoms: C13_18  and  N5_19 
REMARK    5  A    between atoms: N5_19  and  S1_20 
ROOT
HETATM    1  C6  UNL     1      24.191   5.628  50.937  1.00  0.00     0.181 A 
HETATM    2  N2  UNL     1      23.285   6.596  51.145  1.00  0.00    -0.220 NA
HETATM    3  C7  UNL     1      23.469   7.820  50.618  1.00  0.00     0.238 A 
HETATM    4  N3  UNL     1      24.550   8.157  49.861  1.00  0.00    -0.215 NA
HETATM    5  C8  UNL     1      25.502   7.218  49.616  1.00  0.00     0.202 A 
HETATM    6  C9  UNL     1      25.285   5.972  50.170  1.00  0.00     0.130 A 
HETATM    7  N4  UNL     1      26.147   4.843  50.044  1.00  0.00    -0.379 N 
HETATM    8  C10 UNL     1      27.059   4.487  48.966  1.00  0.00     0.161 C 
HETATM    9  C11 UNL     1      27.933   5.617  48.582  1.00  0.00    -0.004 A 
HETATM   10  C12 UNL     1      29.199   5.214  48.212  1.00  0.00     0.041 A 
HETATM   11  C13 UNL     1      30.241   6.048  47.801  1.00  0.00     0.043 A 
HETATM   12  C15 UNL     1      29.912   7.387  47.784  1.00  0.00     0.033 A 
HETATM   13  C16 UNL     1      28.686   7.871  48.132  1.00  0.00     0.040 A 
HETATM   14  C17 UNL     1      27.711   6.976  48.528  1.00  0.00     0.086 A 
HETATM   15  O3  UNL     1      26.553   7.678  48.834  1.00  0.00    -0.289 OA
HETATM   16  H7  UNL     1      26.091   4.183  50.876  1.00  0.00     0.160 HD
ENDROOT
BRANCH   1  17
HETATM   17  N1  UNL     1      24.019   4.331  51.483  1.00  0.00    -0.239 NA
HETATM   18  C5  UNL     1      23.411   4.084  52.595  1.00  0.00     0.119 C 
BRANCH  18  19
HETATM   19  C4  UNL     1      23.554   2.631  52.615  1.00  0.00     0.020 C 
HETATM   20  C3  UNL     1      24.677   2.070  53.006  1.00  0.00     0.016 C 
BRANCH  20  21
HETATM   21  C2  UNL     1      24.807   0.618  53.022  1.00  0.00    -0.011 C 
HETATM   22  C1  UNL     1      23.788  -0.134  53.457  1.00  0.00     0.051 C 
HETATM   23 BR1  UNL     1      26.419  -0.209  52.429  1.00  0.00    -0.056 Br
ENDBRANCH  20  21
ENDBRANCH  18  19
ENDBRANCH   1  17
BRANCH  11  24
HETATM   24  N5  UNL     1      31.482   5.461  47.455  1.00  0.00    -0.285 N 
HETATM   25  H11 UNL     1      31.502   4.424  47.637  1.00  0.00     0.178 HD
BRANCH  24  26
HETATM   26  S1  UNL     1      32.894   6.210  46.804  1.00  0.00     0.227 S 
HETATM   27  C14 UNL     1      33.629   7.201  48.070  1.00  0.00     0.186 C 
HETATM   28  O1  UNL     1      33.885   5.168  46.389  1.00  0.00    -0.206 OA
HETATM   29  O2  UNL     1      32.556   7.035  45.592  1.00  0.00    -0.206 OA
ENDBRANCH  24  26
ENDBRANCH  11  24
TORSDOF 5
ENDMDL
MODEL 6
REMARK VINA RESULT:      -7.7      3.744      5.673
REMARK  5 active torsions:
REMARK  status: ('A' for Active; 'I' for Inactive)
REMARK    1  A    between atoms: C2_2  and  C3_4 
REMARK    2  A    between atoms: C4_5  and  C5_6 
REMARK    3  A    between atoms: N1_7  and  C6_8 
REMARK    4  A    between atoms: C13_18  and  N5_19 
REMARK    5  A    between atoms: N5_19  and  S1_20 
ROOT
HETATM    1  C6  UNL     1      24.851  -0.310  53.203  1.00  0.00     0.181 A 
HETATM    2  N2  UNL     1      25.872  -1.067  53.633  1.00  0.00    -0.220 NA
HETATM    3  C7  UNL     1      27.140  -0.723  53.339  1.00  0.00     0.238 A 
HETATM    4  N3  UNL     1      27.470   0.377  52.610  1.00  0.00    -0.215 NA
HETATM    5  C8  UNL     1      26.478   1.184  52.146  1.00  0.00     0.202 A 
HETATM    6  C9  UNL     1      25.187   0.806  52.464  1.00  0.00     0.130 A 
HETATM    7  N4  UNL     1      24.000   1.498  52.086  1.00  0.00    -0.379 N 
HETATM    8  C10 UNL     1      23.793   2.916  51.829  1.00  0.00     0.161 C 
HETATM    9  C11 UNL     1      24.808   3.466  50.904  1.00  0.00    -0.004 A 
HETATM   10  C12 UNL     1      24.299   4.438  50.066  1.00  0.00     0.041 A 
HETATM   11  C13 UNL     1      25.012   5.137  49.091  1.00  0.00     0.043 A 
HETATM   12  C15 UNL     1      26.341   4.781  49.004  1.00  0.00     0.033 A 
HETATM   13  C16 UNL     1      26.925   3.834  49.792  1.00  0.00     0.040 A 
HETATM   14  C17 UNL     1      26.147   3.188  50.734  1.00  0.00     0.086 A 
HETATM   15  O3  UNL     1      26.936   2.273  51.418  1.00  0.00    -0.289 OA
HETATM   16  H7  UNL     1      23.159   0.855  51.984  1.00  0.00     0.160 HD
ENDROOT
BRANCH   1  17
HETATM   17  N1  UNL     1      23.507  -0.651  53.500  1.00  0.00    -0.239 NA
HETATM   18  C5  UNL     1      23.093  -1.032  54.663  1.00  0.00     0.119 C 
BRANCH  18  19
HETATM   19  C4  UNL     1      21.681  -1.229  54.348  1.00  0.00     0.020 C 
HETATM   20  C3  UNL     1      21.070  -0.456  53.479  1.00  0.00     0.016 C 
BRANCH  20  21
HETATM   21  C2  UNL     1      19.659  -0.663  53.173  1.00  0.00    -0.011 C 
HETATM   22  C1  UNL     1      18.975  -1.616  53.818  1.00  0.00     0.051 C 
HETATM   23 BR1  UNL     1      18.792   0.414  51.861  1.00  0.00    -0.056 Br
ENDBRANCH  20  21
ENDBRANCH  18  19
ENDBRANCH   1  17
BRANCH  11  24
HETATM   24  N5  UNL     1      24.328   6.106  48.317  1.00  0.00    -0.285 N 
HETATM   25  H11 UNL     1      23.760   5.674  47.542  1.00  0.00     0.178 HD
BRANCH  24  26
HETATM   26  S1  UNL     1      24.317   7.823  48.487  1.00  0.00     0.227 S 
HETATM   27  C14 UNL     1      23.664   8.216  50.083  1.00  0.00     0.186 C 
HETATM   28  O1  UNL     1      25.712   8.359  48.405  1.00  0.00    -0.206 OA
HETATM   29  O2  UNL     1      23.509   8.468  47.394  1.00  0.00    -0.206 OA
ENDBRANCH  24  26
ENDBRANCH  11  24
TORSDOF 5
ENDMDL
MODEL 7
REMARK VINA RESULT:      -7.6      5.476      9.562
REMARK  5 active torsions:
REMARK  status: ('A' for Active; 'I' for Inactive)
REMARK    1  A    between atoms: C2_2  and  C3_4 
REMARK    2  A    between atoms: C4_5  and  C5_6 
REMARK    3  A    between atoms: N1_7  and  C6_8 
REMARK    4  A    between atoms: C13_18  and  N5_19 
REMARK    5  A    between atoms: N5_19  and  S1_20 
ROOT
HETATM    1  C6  UNL     1      25.451   1.557  52.452  1.00  0.00     0.181 A 
HETATM    2  N2  UNL     1      26.423   1.094  53.253  1.00  0.00    -0.220 NA
HETATM    3  C7  UNL     1      26.170   0.092  54.115  1.00  0.00     0.238 A 
HETATM    4  N3  UNL     1      24.953  -0.506  54.235  1.00  0.00    -0.215 NA
HETATM    5  C8  UNL     1      23.928  -0.080  53.449  1.00  0.00     0.202 A 
HETATM    6  C9  UNL     1      24.218   0.949  52.575  1.00  0.00     0.130 A 
HETATM    7  N4  UNL     1      23.302   1.550  51.663  1.00  0.00    -0.379 N 
HETATM    8  C10 UNL     1      22.139   0.977  51.002  1.00  0.00     0.161 C 
HETATM    9  C11 UNL     1      21.248   0.278  51.954  1.00  0.00    -0.004 A 
HETATM   10  C12 UNL     1      19.913   0.401  51.630  1.00  0.00     0.041 A 
HETATM   11  C13 UNL     1      18.841  -0.147  52.337  1.00  0.00     0.043 A 
HETATM   12  C15 UNL     1      19.215  -0.867  53.452  1.00  0.00     0.033 A 
HETATM   13  C16 UNL     1      20.509  -1.041  53.843  1.00  0.00     0.040 A 
HETATM   14  C17 UNL     1      21.511  -0.464  53.086  1.00  0.00     0.086 A 
HETATM   15  O3  UNL     1      22.739  -0.764  53.660  1.00  0.00    -0.289 OA
HETATM   16  H7  UNL     1      23.531   2.568  51.454  1.00  0.00     0.160 HD
ENDROOT
BRANCH   1  17
HETATM   17  N1  UNL     1      25.694   2.612  51.536  1.00  0.00    -0.239 NA
HETATM   18  C5  UNL     1      26.511   2.536  50.539  1.00  0.00     0.119 C 
BRANCH  18  19
HETATM   19  C4  UNL     1      26.331   3.879  49.995  1.00  0.00     0.020 C 
HETATM   20  C3  UNL     1      27.161   4.359  49.095  1.00  0.00     0.016 C 
BRANCH  20  21
HETATM   21  C2  UNL     1      26.969   5.701  48.559  1.00  0.00    -0.011 C 
HETATM   22  C1  UNL     1      25.751   6.254  48.579  1.00  0.00     0.051 C 
HETATM   23 BR1  UNL     1      28.445   6.664  47.832  1.00  0.00    -0.056 Br
ENDBRANCH  20  21
ENDBRANCH  18  19
ENDBRANCH   1  17
BRANCH  11  24
HETATM   24  N5  UNL     1      17.528   0.080  51.859  1.00  0.00    -0.285 N 
HETATM   25  H11 UNL     1      16.932  -0.788  51.892  1.00  0.00     0.178 HD
BRANCH  24  26
HETATM   26  S1  UNL     1      16.825   1.539  51.261  1.00  0.00     0.227 S 
HETATM   27  C14 UNL     1      15.136   1.594  51.783  1.00  0.00     0.186 C 
HETATM   28  O1  UNL     1      17.533   2.726  51.836  1.00  0.00    -0.206 OA
HETATM   29  O2  UNL     1      16.936   1.616  49.763  1.00  0.00    -0.206 OA
ENDBRANCH  24  26
ENDBRANCH  11  24
TORSDOF 5
ENDMDL
MODEL 8
REMARK VINA RESULT:      -7.3      5.687      8.234
REMARK  5 active torsions:
REMARK  status: ('A' for Active; 'I' for Inactive)
REMARK    1  A    between atoms: C2_2  and  C3_4 
REMARK    2  A    between atoms: C4_5  and  C5_6 
REMARK    3  A    between atoms: N1_7  and  C6_8 
REMARK    4  A    between atoms: C13_18  and  N5_19 
REMARK    5  A    between atoms: N5_19  and  S1_20 
ROOT
HETATM    1  C6  UNL     1      19.332   1.021  50.629  1.00  0.00     0.181 A 
HETATM    2  N2  UNL     1      18.071   0.586  50.775  1.00  0.00    -0.220 NA
HETATM    3  C7  UNL     1      17.734  -0.170  51.837  1.00  0.00     0.238 A 
HETATM    4  N3  UNL     1      18.615  -0.536  52.807  1.00  0.00    -0.215 NA
HETATM    5  C8  UNL     1      19.908  -0.126  52.714  1.00  0.00     0.202 A 
HETATM    6  C9  UNL     1      20.224   0.648  51.614  1.00  0.00     0.130 A 
HETATM    7  N4  UNL     1      21.510   1.185  51.315  1.00  0.00    -0.379 N 
HETATM    8  C10 UNL     1      22.586   1.572  52.215  1.00  0.00     0.161 C 
HETATM    9  C11 UNL     1      22.890   0.516  53.205  1.00  0.00    -0.004 A 
HETATM   10  C12 UNL     1      24.231   0.443  53.517  1.00  0.00     0.041 A 
HETATM   11  C13 UNL     1      24.819  -0.450  54.416  1.00  0.00     0.043 A 
HETATM   12  C15 UNL     1      23.925  -1.313  55.014  1.00  0.00     0.033 A 
HETATM   13  C16 UNL     1      22.585  -1.308  54.765  1.00  0.00     0.040 A 
HETATM   14  C17 UNL     1      22.084  -0.390  53.861  1.00  0.00     0.086 A 
HETATM   15  O3  UNL     1      20.710  -0.560  53.760  1.00  0.00    -0.289 OA
HETATM   16  H7  UNL     1      21.676   1.309  50.272  1.00  0.00     0.160 HD
ENDROOT
BRANCH   1  17
HETATM   17  N1  UNL     1      19.711   1.817  49.519  1.00  0.00    -0.239 NA
HETATM   18  C5  UNL     1      18.884   2.495  48.794  1.00  0.00     0.119 C 
BRANCH  18  19
HETATM   19  C4  UNL     1      19.834   3.080  47.852  1.00  0.00     0.020 C 
HETATM   20  C3  UNL     1      20.915   3.693  48.278  1.00  0.00     0.016 C 
BRANCH  20  21
HETATM   21  C2  UNL     1      21.857   4.272  47.327  1.00  0.00    -0.011 C 
HETATM   22  C1  UNL     1      22.818   5.095  47.764  1.00  0.00     0.051 C 
HETATM   23 BR1  UNL     1      21.720   3.863  45.470  1.00  0.00    -0.056 Br
ENDBRANCH  20  21
ENDBRANCH  18  19
ENDBRANCH   1  17
BRANCH  11  24
HETATM   24  N5  UNL     1      26.219  -0.385  54.617  1.00  0.00    -0.285 N 
HETATM   25  H11 UNL     1      26.477  -0.325  55.637  1.00  0.00     0.178 HD
BRANCH  24  26
HETATM   26  S1  UNL     1      27.488  -0.395  53.447  1.00  0.00     0.227 S 
HETATM   27  C14 UNL     1      28.174   1.233  53.363  1.00  0.00     0.186 C 
HETATM   28  O1  UNL     1      28.570  -1.340  53.866  1.00  0.00    -0.206 OA
HETATM   29  O2  UNL     1      26.978  -0.841  52.103  1.00  0.00    -0.206 OA
ENDBRANCH  24  26
ENDBRANCH  11  24
TORSDOF 5
ENDMDL
MODEL 9
REMARK VINA RESULT:      -7.2      4.049      5.393
REMARK  5 active torsions:
REMARK  status: ('A' for Active; 'I' for Inactive)
REMARK    1  A    between atoms: C2_2  and  C3_4 
REMARK    2  A    between atoms: C4_5  and  C5_6 
REMARK    3  A    between atoms: N1_7  and  C6_8 
REMARK    4  A    between atoms: C13_18  and  N5_19 
REMARK    5  A    between atoms: N5_19  and  S1_20 
ROOT
HETATM    1  C6  UNL     1      25.945   7.346  49.229  1.00  0.00     0.181 A 
HETATM    2  N2  UNL     1      25.356   8.539  49.402  1.00  0.00    -0.220 NA
HETATM    3  C7  UNL     1      26.090   9.667  49.374  1.00  0.00     0.238 A 
HETATM    4  N3  UNL     1      27.436   9.682  49.176  1.00  0.00    -0.215 NA
HETATM    5  C8  UNL     1      28.090   8.503  48.995  1.00  0.00     0.202 A 
HETATM    6  C9  UNL     1      27.311   7.363  49.029  1.00  0.00     0.130 A 
HETATM    7  N4  UNL     1      27.781   6.028  48.864  1.00  0.00    -0.379 N 
HETATM    8  C10 UNL     1      28.923   5.532  48.110  1.00  0.00     0.161 C 
HETATM    9  C11 UNL     1      30.160   6.284  48.416  1.00  0.00    -0.004 A 
HETATM   10  C12 UNL     1      31.289   5.492  48.397  1.00  0.00     0.041 A 
HETATM   11  C13 UNL     1      32.596   5.916  48.646  1.00  0.00     0.043 A 
HETATM   12  C15 UNL     1      32.703   7.260  48.931  1.00  0.00     0.033 A 
HETATM   13  C16 UNL     1      31.642   8.115  48.969  1.00  0.00     0.040 A 
HETATM   14  C17 UNL     1      30.381   7.613  48.710  1.00  0.00     0.086 A 
HETATM   15  O3  UNL     1      29.457   8.645  48.802  1.00  0.00    -0.289 OA
HETATM   16  H7  UNL     1      27.188   5.312  49.380  1.00  0.00     0.160 HD
ENDROOT
BRANCH   1  17
HETATM   17  N1  UNL     1      25.194   6.144  49.255  1.00  0.00    -0.239 NA
HETATM   18  C5  UNL     1      23.904   6.091  49.197  1.00  0.00     0.119 C 
BRANCH  18  19
HETATM   19  C4  UNL     1      23.733   4.642  49.262  1.00  0.00     0.020 C 
HETATM   20  C3  UNL     1      22.686   4.062  48.721  1.00  0.00     0.016 C 
BRANCH  20  21
HETATM   21  C2  UNL     1      22.527   2.614  48.792  1.00  0.00    -0.011 C 
HETATM   22  C1  UNL     1      22.432   1.902  47.663  1.00  0.00     0.051 C 
HETATM   23 BR1  UNL     1      22.453   1.738  50.484  1.00  0.00    -0.056 Br
ENDBRANCH  20  21
ENDBRANCH  18  19
ENDBRANCH   1  17
BRANCH  11  24
HETATM   24  N5  UNL     1      33.641   4.962  48.583  1.00  0.00    -0.285 N 
HETATM   25  H11 UNL     1      34.361   5.105  49.338  1.00  0.00     0.178 HD
BRANCH  24  26
HETATM   26  S1  UNL     1      33.859   3.660  47.472  1.00  0.00     0.227 S 
HETATM   27  C14 UNL     1      33.465   4.245  45.850  1.00  0.00     0.186 C 
HETATM   28  O1  UNL     1      35.288   3.213  47.475  1.00  0.00    -0.206 OA
HETATM   29  O2  UNL     1      33.005   2.481  47.848  1.00  0.00    -0.206 OA
ENDBRANCH  24  26
ENDBRANCH  11  24
TORSDOF 5
ENDMDL
