MODEL 1
REMARK VINA RESULT:      -9.2      0.000      0.000
REMARK  8 active torsions:
REMARK  status: ('A' for Active; 'I' for Inactive)
REMARK    1  A    between atoms: C2_2  and  C3_3 
REMARK    2  A    between atoms: C3_3  and  C4_4 
REMARK    3  A    between atoms: C4_4  and  C5_5 
REMARK    4  A    between atoms: C5_5  and  N1_6 
REMARK    5  A    between atoms: C6_7  and  C7_8 
REMARK    6  A    between atoms: C11_12  and  N2_13 
REMARK    7  A    between atoms: N2_13  and  C12_14 
REMARK    8  A    between atoms: C22_28  and  C23_29 
ROOT
HETATM    1  C7  UNL     1      21.557  -0.052  52.374  1.00  0.00    -0.045 A 
HETATM    2  C8  UNL     1      22.164   0.536  51.502  1.00  0.00     0.012 A 
HETATM    3  C9  UNL     1      23.373   1.384  51.652  1.00  0.00     0.006 A 
HETATM    4  C10 UNL     1      24.058   2.334  51.055  1.00  0.00     0.036 A 
HETATM    5  C11 UNL     1      25.210   2.944  51.485  1.00  0.00     0.141 A 
HETATM    6  N3  UNL     1      25.666   3.872  50.649  1.00  0.00    -0.224 NA
HETATM    7  C18 UNL     1      25.126   4.242  49.487  1.00  0.00     0.235 A 
HETATM    8  N4  UNL     1      23.978   3.625  49.069  1.00  0.00    -0.241 NA
HETATM    9  C19 UNL     1      23.445   2.663  49.866  1.00  0.00     0.068 A 
HETATM   10  C20 UNL     1      22.354   2.003  49.573  1.00  0.00     0.007 A 
HETATM   11  C21 UNL     1      21.530   0.952  50.161  1.00  0.00     0.048 A 
HETATM   12  C22 UNL     1      21.106   1.621  52.582  1.00  0.00     0.072 A 
ENDROOT
BRANCH   1  13
HETATM   13  C6  UNL     1      21.132  -0.435  52.977  1.00  0.00     0.008 A 
HETATM   14  N1  UNL     1      20.626  -0.924  53.725  1.00  0.00    -0.277 NA
HETATM   15  C23 UNL     1      22.090  -1.268  53.444  1.00  0.00     0.088 A 
HETATM   16  C24 UNL     1      22.736  -1.034  54.836  1.00  0.00     0.031 C 
BRANCH  14  17
HETATM   17  C5  UNL     1      19.301  -0.464  53.823  1.00  0.00     0.096 C 
BRANCH  17  18
HETATM   18  C4  UNL     1      18.346  -1.559  53.318  1.00  0.00     0.015 C 
BRANCH  18  19
HETATM   19  C3  UNL     1      17.376  -1.041  52.307  1.00  0.00     0.001 C 
BRANCH  19  20
HETATM   20  C2  UNL     1      17.962  -0.113  51.294  1.00  0.00    -0.005 C 
HETATM   21  C1  UNL     1      17.146  -0.080  50.008  1.00  0.00     0.005 C 
ENDBRANCH  19  20
ENDBRANCH  18  19
ENDBRANCH  17  18
ENDBRANCH  14  17
ENDBRANCH   1  13
BRANCH   5  22
HETATM   22  N2  UNL     1      25.761   2.556  52.706  1.00  0.00    -0.340 N 
HETATM   23  H13 UNL     1      25.457   2.944  53.618  1.00  0.00     0.167 HD
BRANCH  22  24
HETATM   24  C12 UNL     1      26.787   1.606  52.931  1.00  0.00     0.035 A 
HETATM   25  C13 UNL     1      28.028   1.950  53.406  1.00  0.00     0.032 A 
HETATM   26  C14 UNL     1      29.053   1.078  53.650  1.00  0.00     0.046 A 
HETATM   27  C15 UNL     1      28.858  -0.264  53.410  1.00  0.00     0.138 A 
HETATM   28  F1  UNL     1      29.792  -1.204  53.614  1.00  0.00    -0.204 F 
HETATM   29  C16 UNL     1      27.642  -0.692  52.932  1.00  0.00     0.074 A 
HETATM   30 CL1  UNL     1      27.326  -2.379  52.606  1.00  0.00    -0.081 Cl
HETATM   31  C17 UNL     1      26.667   0.252  52.715  1.00  0.00     0.056 A 
ENDBRANCH  22  24
ENDBRANCH   5  22
TORSDOF 8
ENDMDL
MODEL 2
REMARK VINA RESULT:      -8.8      3.157      7.471
REMARK  8 active torsions:
REMARK  status: ('A' for Active; 'I' for Inactive)
REMARK    1  A    between atoms: C2_2  and  C3_3 
REMARK    2  A    between atoms: C3_3  and  C4_4 
REMARK    3  A    between atoms: C4_4  and  C5_5 
REMARK    4  A    between atoms: C5_5  and  N1_6 
REMARK    5  A    between atoms: C6_7  and  C7_8 
REMARK    6  A    between atoms: C11_12  and  N2_13 
REMARK    7  A    between atoms: N2_13  and  C12_14 
REMARK    8  A    between atoms: C22_28  and  C23_29 
ROOT
HETATM    1  C7  UNL     1      26.032   1.067  52.606  1.00  0.00    -0.045 A 
HETATM    2  C8  UNL     1      25.008   0.441  52.785  1.00  0.00     0.012 A 
HETATM    3  C9  UNL     1      23.645   0.775  52.302  1.00  0.00     0.006 A 
HETATM    4  C10 UNL     1      22.372   0.534  52.530  1.00  0.00     0.036 A 
HETATM    5  C11 UNL     1      21.283   1.033  51.860  1.00  0.00     0.141 A 
HETATM    6  N3  UNL     1      20.121   0.595  52.331  1.00  0.00    -0.224 NA
HETATM    7  C18 UNL     1      19.931  -0.246  53.349  1.00  0.00     0.235 A 
HETATM    8  N4  UNL     1      21.024  -0.736  54.009  1.00  0.00    -0.241 NA
HETATM    9  C19 UNL     1      22.253  -0.339  53.590  1.00  0.00     0.068 A 
HETATM   10  C20 UNL     1      23.371  -0.740  54.140  1.00  0.00     0.007 A 
HETATM   11  C21 UNL     1      24.804  -0.533  53.962  1.00  0.00     0.048 A 
HETATM   12  C22 UNL     1      25.168   1.985  53.812  1.00  0.00     0.072 A 
ENDROOT
BRANCH   1  13
HETATM   13  C6  UNL     1      26.728   1.510  52.499  1.00  0.00     0.008 A 
HETATM   14  N1  UNL     1      27.585   2.054  52.343  1.00  0.00    -0.277 NA
HETATM   15  C23 UNL     1      26.723   1.629  51.152  1.00  0.00     0.088 A 
HETATM   16  C24 UNL     1      26.432   2.996  50.477  1.00  0.00     0.031 C 
BRANCH  14  17
HETATM   17  C5  UNL     1      28.228   2.344  53.559  1.00  0.00     0.096 C 
BRANCH  17  18
HETATM   18  C4  UNL     1      29.436   1.407  53.729  1.00  0.00     0.015 C 
BRANCH  18  19
HETATM   19  C3  UNL     1      29.066   0.123  54.398  1.00  0.00     0.001 C 
BRANCH  19  20
HETATM   20  C2  UNL     1      29.513  -1.108  53.682  1.00  0.00    -0.005 C 
HETATM   21  C1  UNL     1      28.358  -1.817  52.987  1.00  0.00     0.005 C 
ENDBRANCH  19  20
ENDBRANCH  18  19
ENDBRANCH  17  18
ENDBRANCH  14  17
ENDBRANCH   1  13
BRANCH   5  22
HETATM   22  N2  UNL     1      21.493   1.918  50.803  1.00  0.00    -0.340 N 
HETATM   23  H13 UNL     1      21.272   1.691  49.815  1.00  0.00     0.167 HD
BRANCH  22  24
HETATM   24  C12 UNL     1      22.021   3.231  50.863  1.00  0.00     0.035 A 
HETATM   25  C13 UNL     1      21.776   4.084  51.910  1.00  0.00     0.032 A 
HETATM   26  C14 UNL     1      22.264   5.357  52.026  1.00  0.00     0.046 A 
HETATM   27  C15 UNL     1      23.071   5.855  51.028  1.00  0.00     0.138 A 
HETATM   28  F1  UNL     1      23.602   7.086  51.040  1.00  0.00    -0.204 F 
HETATM   29  C16 UNL     1      23.364   5.064  49.942  1.00  0.00     0.074 A 
HETATM   30 CL1  UNL     1      24.381   5.632  48.640  1.00  0.00    -0.081 Cl
HETATM   31  C17 UNL     1      22.833   3.797  49.906  1.00  0.00     0.056 A 
ENDBRANCH  22  24
ENDBRANCH   5  22
TORSDOF 8
ENDMDL
MODEL 3
REMARK VINA RESULT:      -8.7      3.385      6.980
REMARK  8 active torsions:
REMARK  status: ('A' for Active; 'I' for Inactive)
REMARK    1  A    between atoms: C2_2  and  C3_3 
REMARK    2  A    between atoms: C3_3  and  C4_4 
REMARK    3  A    between atoms: C4_4  and  C5_5 
REMARK    4  A    between atoms: C5_5  and  N1_6 
REMARK    5  A    between atoms: C6_7  and  C7_8 
REMARK    6  A    between atoms: C11_12  and  N2_13 
REMARK    7  A    between atoms: N2_13  and  C12_14 
REMARK    8  A    between atoms: C22_28  and  C23_29 
ROOT
HETATM    1  C7  UNL     1      24.963   0.884  52.519  1.00  0.00    -0.045 A 
HETATM    2  C8  UNL     1      23.766   1.021  52.371  1.00  0.00     0.012 A 
HETATM    3  C9  UNL     1      23.064   2.031  51.540  1.00  0.00     0.006 A 
HETATM    4  C10 UNL     1      21.902   2.627  51.388  1.00  0.00     0.036 A 
HETATM    5  C11 UNL     1      21.554   3.579  50.462  1.00  0.00     0.141 A 
HETATM    6  N3  UNL     1      20.294   3.987  50.564  1.00  0.00    -0.224 NA
HETATM    7  C18 UNL     1      19.383   3.571  51.446  1.00  0.00     0.235 A 
HETATM    8  N4  UNL     1      19.742   2.623  52.364  1.00  0.00    -0.241 NA
HETATM    9  C19 UNL     1      21.015   2.150  52.329  1.00  0.00     0.068 A 
HETATM   10  C20 UNL     1      21.474   1.242  53.152  1.00  0.00     0.007 A 
HETATM   11  C21 UNL     1      22.724   0.531  53.396  1.00  0.00     0.048 A 
HETATM   12  C22 UNL     1      24.566   2.289  53.473  1.00  0.00     0.072 A 
ENDROOT
BRANCH   1  13
HETATM   13  C6  UNL     1      25.783   0.807  52.633  1.00  0.00     0.008 A 
HETATM   14  N1  UNL     1      26.792   0.690  52.784  1.00  0.00    -0.277 NA
HETATM   15  C23 UNL     1      25.838  -0.471  53.072  1.00  0.00     0.088 A 
HETATM   16  C24 UNL     1      26.437  -1.591  52.179  1.00  0.00     0.031 C 
BRANCH  14  17
HETATM   17  C5  UNL     1      27.491   1.867  52.460  1.00  0.00     0.096 C 
BRANCH  17  18
HETATM   18  C4  UNL     1      28.485   2.192  53.588  1.00  0.00     0.015 C 
BRANCH  18  19
HETATM   19  C3  UNL     1      28.967   0.963  54.289  1.00  0.00     0.001 C 
BRANCH  19  20
HETATM   20  C2  UNL     1      30.022   0.199  53.561  1.00  0.00    -0.005 C 
HETATM   21  C1  UNL     1      29.766  -1.302  53.592  1.00  0.00     0.005 C 
ENDBRANCH  19  20
ENDBRANCH  18  19
ENDBRANCH  17  18
ENDBRANCH  14  17
ENDBRANCH   1  13
BRANCH   5  22
HETATM   22  N2  UNL     1      22.516   4.012  49.550  1.00  0.00    -0.340 N 
HETATM   23  H13 UNL     1      22.585   3.654  48.579  1.00  0.00     0.167 HD
BRANCH  22  24
HETATM   24  C12 UNL     1      23.535   4.974  49.756  1.00  0.00     0.035 A 
HETATM   25  C13 UNL     1      23.380   6.056  50.586  1.00  0.00     0.032 A 
HETATM   26  C14 UNL     1      24.329   7.011  50.830  1.00  0.00     0.046 A 
HETATM   27  C15 UNL     1      25.552   6.908  50.207  1.00  0.00     0.138 A 
HETATM   28  F1  UNL     1      26.553   7.786  50.373  1.00  0.00    -0.204 F 
HETATM   29  C16 UNL     1      25.789   5.853  49.358  1.00  0.00     0.074 A 
HETATM   30 CL1  UNL     1      27.319   5.661  48.536  1.00  0.00    -0.081 Cl
HETATM   31  C17 UNL     1      24.781   4.938  49.171  1.00  0.00     0.056 A 
ENDBRANCH  22  24
ENDBRANCH   5  22
TORSDOF 8
ENDMDL
MODEL 4
REMARK VINA RESULT:      -8.6      3.144      6.964
REMARK  8 active torsions:
REMARK  status: ('A' for Active; 'I' for Inactive)
REMARK    1  A    between atoms: C2_2  and  C3_3 
REMARK    2  A    between atoms: C3_3  and  C4_4 
REMARK    3  A    between atoms: C4_4  and  C5_5 
REMARK    4  A    between atoms: C5_5  and  N1_6 
REMARK    5  A    between atoms: C6_7  and  C7_8 
REMARK    6  A    between atoms: C11_12  and  N2_13 
REMARK    7  A    between atoms: N2_13  and  C12_14 
REMARK    8  A    between atoms: C22_28  and  C23_29 
ROOT
HETATM    1  C7  UNL     1      24.675  -0.024  53.261  1.00  0.00    -0.045 A 
HETATM    2  C8  UNL     1      23.501  -0.333  53.232  1.00  0.00     0.012 A 
HETATM    3  C9  UNL     1      22.511  -0.037  52.167  1.00  0.00     0.006 A 
HETATM    4  C10 UNL     1      21.218   0.055  51.946  1.00  0.00     0.036 A 
HETATM    5  C11 UNL     1      20.582   0.370  50.771  1.00  0.00     0.141 A 
HETATM    6  N3  UNL     1      19.256   0.378  50.868  1.00  0.00    -0.224 NA
HETATM    7  C18 UNL     1      18.528   0.119  51.955  1.00  0.00     0.235 A 
HETATM    8  N4  UNL     1      19.174  -0.194  53.120  1.00  0.00    -0.241 NA
HETATM    9  C19 UNL     1      20.532  -0.225  53.108  1.00  0.00     0.068 A 
HETATM   10  C20 UNL     1      21.260  -0.512  54.157  1.00  0.00     0.007 A 
HETATM   11  C21 UNL     1      22.673  -0.637  54.496  1.00  0.00     0.048 A 
HETATM   12  C22 UNL     1      23.825   1.458  53.616  1.00  0.00     0.072 A 
ENDROOT
BRANCH   1  13
HETATM   13  C6  UNL     1      25.473   0.208  53.287  1.00  0.00     0.008 A 
HETATM   14  N1  UNL     1      26.465   0.472  53.323  1.00  0.00    -0.277 NA
HETATM   15  C23 UNL     1      26.063  -1.001  53.425  1.00  0.00     0.088 A 
HETATM   16  C24 UNL     1      26.877  -1.624  52.260  1.00  0.00     0.031 C 
BRANCH  14  17
HETATM   17  C5  UNL     1      26.621   1.865  53.211  1.00  0.00     0.096 C 
BRANCH  17  18
HETATM   18  C4  UNL     1      27.111   2.208  51.794  1.00  0.00     0.015 C 
BRANCH  18  19
HETATM   19  C3  UNL     1      26.108   3.006  51.027  1.00  0.00     0.001 C 
BRANCH  19  20
HETATM   20  C2  UNL     1      26.395   3.137  49.568  1.00  0.00    -0.005 C 
HETATM   21  C1  UNL     1      26.675   4.580  49.167  1.00  0.00     0.005 C 
ENDBRANCH  19  20
ENDBRANCH  18  19
ENDBRANCH  17  18
ENDBRANCH  14  17
ENDBRANCH   1  13
BRANCH   5  22
HETATM   22  N2  UNL     1      21.353   0.648  49.643  1.00  0.00    -0.340 N 
HETATM   23  H13 UNL     1      21.635  -0.073  48.952  1.00  0.00     0.167 HD
BRANCH  22  24
HETATM   24  C12 UNL     1      21.876   1.900  49.237  1.00  0.00     0.035 A 
HETATM   25  C13 UNL     1      22.020   2.254  47.919  1.00  0.00     0.032 A 
HETATM   26  C14 UNL     1      22.510   3.448  47.468  1.00  0.00     0.046 A 
HETATM   27  C15 UNL     1      22.901   4.397  48.386  1.00  0.00     0.138 A 
HETATM   28  F1  UNL     1      23.394   5.600  48.055  1.00  0.00    -0.204 F 
HETATM   29  C16 UNL     1      22.790   4.121  49.728  1.00  0.00     0.074 A 
HETATM   30 CL1  UNL     1      23.266   5.280  50.946  1.00  0.00    -0.081 Cl
HETATM   31  C17 UNL     1      22.286   2.896  50.094  1.00  0.00     0.056 A 
ENDBRANCH  22  24
ENDBRANCH   5  22
TORSDOF 8
ENDMDL
MODEL 5
REMARK VINA RESULT:      -8.5      2.929      7.149
REMARK  8 active torsions:
REMARK  status: ('A' for Active; 'I' for Inactive)
REMARK    1  A    between atoms: C2_2  and  C3_3 
REMARK    2  A    between atoms: C3_3  and  C4_4 
REMARK    3  A    between atoms: C4_4  and  C5_5 
REMARK    4  A    between atoms: C5_5  and  N1_6 
REMARK    5  A    between atoms: C6_7  and  C7_8 
REMARK    6  A    between atoms: C11_12  and  N2_13 
REMARK    7  A    between atoms: N2_13  and  C12_14 
REMARK    8  A    between atoms: C22_28  and  C23_29 
ROOT
HETATM    1  C7  UNL     1      24.501   0.170  53.079  1.00  0.00    -0.045 A 
HETATM    2  C8  UNL     1      23.327  -0.067  52.877  1.00  0.00     0.012 A 
HETATM    3  C9  UNL     1      22.502   0.356  51.718  1.00  0.00     0.006 A 
HETATM    4  C10 UNL     1      21.256   0.538  51.340  1.00  0.00     0.036 A 
HETATM    5  C11 UNL     1      20.797   0.966  50.119  1.00  0.00     0.141 A 
HETATM    6  N3  UNL     1      19.473   1.046  50.046  1.00  0.00    -0.224 NA
HETATM    7  C18 UNL     1      18.595   0.759  51.008  1.00  0.00     0.235 A 
HETATM    8  N4  UNL     1      19.066   0.333  52.220  1.00  0.00    -0.241 NA
HETATM    9  C19 UNL     1      20.410   0.223  52.380  1.00  0.00     0.068 A 
HETATM   10  C20 UNL     1      20.977  -0.175  53.490  1.00  0.00     0.007 A 
HETATM   11  C21 UNL     1      22.325  -0.403  53.999  1.00  0.00     0.048 A 
HETATM   12  C22 UNL     1      23.687   1.673  53.429  1.00  0.00     0.072 A 
ENDROOT
BRANCH   1  13
HETATM   13  C6  UNL     1      25.299   0.353  53.224  1.00  0.00     0.008 A 
HETATM   14  N1  UNL     1      26.289   0.556  53.407  1.00  0.00    -0.277 NA
HETATM   15  C23 UNL     1      25.794  -0.892  53.403  1.00  0.00     0.088 A 
HETATM   16  C24 UNL     1      26.728  -1.535  52.343  1.00  0.00     0.031 C 
BRANCH  14  17
HETATM   17  C5  UNL     1      26.538   1.939  53.364  1.00  0.00     0.096 C 
BRANCH  17  18
HETATM   18  C4  UNL     1      28.055   2.183  53.443  1.00  0.00     0.015 C 
BRANCH  18  19
HETATM   19  C3  UNL     1      28.760   1.117  54.216  1.00  0.00     0.001 C 
BRANCH  19  20
HETATM   20  C2  UNL     1      29.832   0.401  53.463  1.00  0.00    -0.005 C 
HETATM   21  C1  UNL     1      29.901  -1.075  53.831  1.00  0.00     0.005 C 
ENDBRANCH  19  20
ENDBRANCH  18  19
ENDBRANCH  17  18
ENDBRANCH  14  17
ENDBRANCH   1  13
BRANCH   5  22
HETATM   22  N2  UNL     1      21.724   1.272  49.122  1.00  0.00    -0.340 N 
HETATM   23  H13 UNL     1      22.042   0.589  48.410  1.00  0.00     0.167 HD
BRANCH  22  24
HETATM   24  C12 UNL     1      22.379   2.507  48.896  1.00  0.00     0.035 A 
HETATM   25  C13 UNL     1      21.850   3.495  48.106  1.00  0.00     0.032 A 
HETATM   26  C14 UNL     1      22.430   4.709  47.858  1.00  0.00     0.046 A 
HETATM   27  C15 UNL     1      23.648   4.995  48.434  1.00  0.00     0.138 A 
HETATM   28  F1  UNL     1      24.306   6.151  48.259  1.00  0.00    -0.204 F 
HETATM   29  C16 UNL     1      24.248   4.056  49.241  1.00  0.00     0.074 A 
HETATM   30 CL1  UNL     1      25.791   4.353  50.004  1.00  0.00    -0.081 Cl
HETATM   31  C17 UNL     1      23.594   2.864  49.437  1.00  0.00     0.056 A 
ENDBRANCH  22  24
ENDBRANCH   5  22
TORSDOF 8
ENDMDL
MODEL 6
REMARK VINA RESULT:      -8.3      3.720      7.556
REMARK  8 active torsions:
REMARK  status: ('A' for Active; 'I' for Inactive)
REMARK    1  A    between atoms: C2_2  and  C3_3 
REMARK    2  A    between atoms: C3_3  and  C4_4 
REMARK    3  A    between atoms: C4_4  and  C5_5 
REMARK    4  A    between atoms: C5_5  and  N1_6 
REMARK    5  A    between atoms: C6_7  and  C7_8 
REMARK    6  A    between atoms: C11_12  and  N2_13 
REMARK    7  A    between atoms: N2_13  and  C12_14 
REMARK    8  A    between atoms: C22_28  and  C23_29 
ROOT
HETATM    1  C7  UNL     1      24.083   2.804  50.973  1.00  0.00    -0.045 A 
HETATM    2  C8  UNL     1      24.085   1.757  51.587  1.00  0.00     0.012 A 
HETATM    3  C9  UNL     1      23.018   1.220  52.469  1.00  0.00     0.006 A 
HETATM    4  C10 UNL     1      22.809   0.364  53.444  1.00  0.00     0.036 A 
HETATM    5  C11 UNL     1      21.627   0.085  54.085  1.00  0.00     0.141 A 
HETATM    6  N3  UNL     1      21.741  -0.839  55.034  1.00  0.00    -0.224 NA
HETATM    7  C18 UNL     1      22.849  -1.485  55.399  1.00  0.00     0.235 A 
HETATM    8  N4  UNL     1      24.020  -1.198  54.752  1.00  0.00    -0.241 NA
HETATM    9  C19 UNL     1      23.992  -0.263  53.767  1.00  0.00     0.068 A 
HETATM   10  C20 UNL     1      25.046   0.094  53.077  1.00  0.00     0.007 A 
HETATM   11  C21 UNL     1      25.374   1.017  51.997  1.00  0.00     0.048 A 
HETATM   12  C22 UNL     1      24.370   3.272  52.629  1.00  0.00     0.072 A 
ENDROOT
BRANCH   1  13
HETATM   13  C6  UNL     1      24.086   3.532  50.570  1.00  0.00     0.008 A 
HETATM   14  N1  UNL     1      24.092   4.419  50.053  1.00  0.00    -0.277 NA
HETATM   15  C23 UNL     1      24.096   3.092  49.292  1.00  0.00     0.088 A 
HETATM   16  C24 UNL     1      22.844   3.250  48.388  1.00  0.00     0.031 C 
BRANCH  14  17
HETATM   17  C5  UNL     1      24.084   5.517  50.932  1.00  0.00     0.096 C 
BRANCH  17  18
HETATM   18  C4  UNL     1      22.993   6.509  50.494  1.00  0.00     0.015 C 
BRANCH  18  19
HETATM   19  C3  UNL     1      21.722   6.324  51.257  1.00  0.00     0.001 C 
BRANCH  19  20
HETATM   20  C2  UNL     1      20.837   5.236  50.746  1.00  0.00    -0.005 C 
HETATM   21  C1  UNL     1      20.660   4.116  51.763  1.00  0.00     0.005 C 
ENDBRANCH  19  20
ENDBRANCH  18  19
ENDBRANCH  17  18
ENDBRANCH  14  17
ENDBRANCH   1  13
BRANCH   5  22
HETATM   22  N2  UNL     1      20.476   0.772  53.701  1.00  0.00    -0.340 N 
HETATM   23  H13 UNL     1      20.205   1.695  54.090  1.00  0.00     0.167 HD
BRANCH  22  24
HETATM   24  C12 UNL     1      19.501   0.371  52.755  1.00  0.00     0.035 A 
HETATM   25  C13 UNL     1      19.469   0.852  51.471  1.00  0.00     0.032 A 
HETATM   26  C14 UNL     1      18.560   0.496  50.513  1.00  0.00     0.046 A 
HETATM   27  C15 UNL     1      17.581  -0.419  50.831  1.00  0.00     0.138 A 
HETATM   28  F1  UNL     1      16.641  -0.838  49.972  1.00  0.00    -0.204 F 
HETATM   29  C16 UNL     1      17.542  -0.949  52.100  1.00  0.00     0.074 A 
HETATM   30 CL1  UNL     1      16.329  -2.115  52.571  1.00  0.00    -0.081 Cl
HETATM   31  C17 UNL     1      18.496  -0.537  52.999  1.00  0.00     0.056 A 
ENDBRANCH  22  24
ENDBRANCH   5  22
TORSDOF 8
ENDMDL
MODEL 7
REMARK VINA RESULT:      -8.3      3.252      7.338
REMARK  8 active torsions:
REMARK  status: ('A' for Active; 'I' for Inactive)
REMARK    1  A    between atoms: C2_2  and  C3_3 
REMARK    2  A    between atoms: C3_3  and  C4_4 
REMARK    3  A    between atoms: C4_4  and  C5_5 
REMARK    4  A    between atoms: C5_5  and  N1_6 
REMARK    5  A    between atoms: C6_7  and  C7_8 
REMARK    6  A    between atoms: C11_12  and  N2_13 
REMARK    7  A    between atoms: N2_13  and  C12_14 
REMARK    8  A    between atoms: C22_28  and  C23_29 
ROOT
HETATM    1  C7  UNL     1      24.744   2.557  52.835  1.00  0.00    -0.045 A 
HETATM    2  C8  UNL     1      23.775   3.257  52.622  1.00  0.00     0.012 A 
HETATM    3  C9  UNL     1      22.568   2.919  51.828  1.00  0.00     0.006 A 
HETATM    4  C10 UNL     1      21.560   3.464  51.183  1.00  0.00     0.036 A 
HETATM    5  C11 UNL     1      20.546   2.832  50.508  1.00  0.00     0.141 A 
HETATM    6  N3  UNL     1      19.670   3.667  49.959  1.00  0.00    -0.224 NA
HETATM    7  C18 UNL     1      19.691   5.000  50.006  1.00  0.00     0.235 A 
HETATM    8  N4  UNL     1      20.706   5.618  50.682  1.00  0.00    -0.241 NA
HETATM    9  C19 UNL     1      21.647   4.837  51.274  1.00  0.00     0.068 A 
HETATM   10  C20 UNL     1      22.662   5.311  51.949  1.00  0.00     0.007 A 
HETATM   11  C21 UNL     1      23.811   4.797  52.686  1.00  0.00     0.048 A 
HETATM   12  C22 UNL     1      24.938   3.077  51.181  1.00  0.00     0.072 A 
ENDROOT
BRANCH   1  13
HETATM   13  C6  UNL     1      25.415   2.082  52.961  1.00  0.00     0.008 A 
HETATM   14  N1  UNL     1      26.231   1.482  53.131  1.00  0.00    -0.277 NA
HETATM   15  C23 UNL     1      24.872   1.112  53.732  1.00  0.00     0.088 A 
HETATM   16  C24 UNL     1      24.669  -0.322  53.175  1.00  0.00     0.031 C 
BRANCH  14  17
HETATM   17  C5  UNL     1      27.375   1.992  52.494  1.00  0.00     0.096 C 
BRANCH  17  18
HETATM   18  C4  UNL     1      28.492   2.181  53.534  1.00  0.00     0.015 C 
BRANCH  18  19
HETATM   19  C3  UNL     1      28.819   0.911  54.250  1.00  0.00     0.001 C 
BRANCH  19  20
HETATM   20  C2  UNL     1      29.799   0.031  53.548  1.00  0.00    -0.005 C 
HETATM   21  C1  UNL     1      29.308  -1.408  53.450  1.00  0.00     0.005 C 
ENDBRANCH  19  20
ENDBRANCH  18  19
ENDBRANCH  17  18
ENDBRANCH  14  17
ENDBRANCH   1  13
BRANCH   5  22
HETATM   22  N2  UNL     1      20.539   1.439  50.458  1.00  0.00    -0.340 N 
HETATM   23  H13 UNL     1      20.982   0.892  49.696  1.00  0.00     0.167 HD
BRANCH  22  24
HETATM   24  C12 UNL     1      19.959   0.540  51.387  1.00  0.00     0.035 A 
HETATM   25  C13 UNL     1      18.640   0.169  51.337  1.00  0.00     0.032 A 
HETATM   26  C14 UNL     1      18.027  -0.699  52.199  1.00  0.00     0.046 A 
HETATM   27  C15 UNL     1      18.767  -1.264  53.213  1.00  0.00     0.138 A 
HETATM   28  F1  UNL     1      18.269  -2.125  54.113  1.00  0.00    -0.204 F 
HETATM   29  C16 UNL     1      20.099  -0.943  53.334  1.00  0.00     0.074 A 
HETATM   30 CL1  UNL     1      21.097  -1.624  54.596  1.00  0.00    -0.081 Cl
HETATM   31  C17 UNL     1      20.634  -0.063  52.423  1.00  0.00     0.056 A 
ENDBRANCH  22  24
ENDBRANCH   5  22
TORSDOF 8
ENDMDL
MODEL 8
REMARK VINA RESULT:      -8.2      3.704      8.329
REMARK  8 active torsions:
REMARK  status: ('A' for Active; 'I' for Inactive)
REMARK    1  A    between atoms: C2_2  and  C3_3 
REMARK    2  A    between atoms: C3_3  and  C4_4 
REMARK    3  A    between atoms: C4_4  and  C5_5 
REMARK    4  A    between atoms: C5_5  and  N1_6 
REMARK    5  A    between atoms: C6_7  and  C7_8 
REMARK    6  A    between atoms: C11_12  and  N2_13 
REMARK    7  A    between atoms: N2_13  and  C12_14 
REMARK    8  A    between atoms: C22_28  and  C23_29 
ROOT
HETATM    1  C7  UNL     1      24.222   2.717  50.694  1.00  0.00    -0.045 A 
HETATM    2  C8  UNL     1      24.180   1.707  51.367  1.00  0.00     0.012 A 
HETATM    3  C9  UNL     1      23.085   1.258  52.263  1.00  0.00     0.006 A 
HETATM    4  C10 UNL     1      22.834   0.467  53.282  1.00  0.00     0.036 A 
HETATM    5  C11 UNL     1      21.636   0.266  53.922  1.00  0.00     0.141 A 
HETATM    6  N3  UNL     1      21.706  -0.606  54.923  1.00  0.00    -0.224 NA
HETATM    7  C18 UNL     1      22.787  -1.268  55.338  1.00  0.00     0.235 A 
HETATM    8  N4  UNL     1      23.974  -1.058  54.693  1.00  0.00    -0.241 NA
HETATM    9  C19 UNL     1      23.991  -0.182  53.656  1.00  0.00     0.068 A 
HETATM   10  C20 UNL     1      25.064   0.099  52.962  1.00  0.00     0.007 A 
HETATM   11  C21 UNL     1      25.437   0.948  51.835  1.00  0.00     0.048 A 
HETATM   12  C22 UNL     1      24.506   3.268  52.325  1.00  0.00     0.072 A 
ENDROOT
BRANCH   1  13
HETATM   13  C6  UNL     1      24.256   3.420  50.252  1.00  0.00     0.008 A 
HETATM   14  N1  UNL     1      24.280   4.280  49.690  1.00  0.00    -0.277 NA
HETATM   15  C23 UNL     1      23.241   3.199  49.385  1.00  0.00     0.088 A 
HETATM   16  C24 UNL     1      21.918   4.003  49.491  1.00  0.00     0.031 C 
BRANCH  14  17
HETATM   17  C5  UNL     1      25.301   5.141  50.129  1.00  0.00     0.096 C 
BRANCH  17  18
HETATM   18  C4  UNL     1      26.478   5.078  49.140  1.00  0.00     0.015 C 
BRANCH  18  19
HETATM   19  C3  UNL     1      26.718   6.387  48.464  1.00  0.00     0.001 C 
BRANCH  19  20
HETATM   20  C2  UNL     1      28.134   6.634  48.059  1.00  0.00    -0.005 C 
HETATM   21  C1  UNL     1      29.000   5.391  48.222  1.00  0.00     0.005 C 
ENDBRANCH  19  20
ENDBRANCH  18  19
ENDBRANCH  17  18
ENDBRANCH  14  17
ENDBRANCH   1  13
BRANCH   5  22
HETATM   22  N2  UNL     1      20.515   0.970  53.484  1.00  0.00    -0.340 N 
HETATM   23  H13 UNL     1      20.244   1.900  53.853  1.00  0.00     0.167 HD
BRANCH  22  24
HETATM   24  C12 UNL     1      19.573   0.577  52.501  1.00  0.00     0.035 A 
HETATM   25  C13 UNL     1      19.630   1.011  51.201  1.00  0.00     0.032 A 
HETATM   26  C14 UNL     1      18.756   0.659  50.209  1.00  0.00     0.046 A 
HETATM   27  C15 UNL     1      17.722  -0.200  50.506  1.00  0.00     0.138 A 
HETATM   28  F1  UNL     1      16.809  -0.610  49.612  1.00  0.00    -0.204 F 
HETATM   29  C16 UNL     1      17.593  -0.681  51.788  1.00  0.00     0.074 A 
HETATM   30 CL1  UNL     1      16.305  -1.774  52.233  1.00  0.00    -0.081 Cl
HETATM   31  C17 UNL     1      18.516  -0.277  52.722  1.00  0.00     0.056 A 
ENDBRANCH  22  24
ENDBRANCH   5  22
TORSDOF 8
ENDMDL
MODEL 9
REMARK VINA RESULT:      -8.1      2.229      4.590
REMARK  8 active torsions:
REMARK  status: ('A' for Active; 'I' for Inactive)
REMARK    1  A    between atoms: C2_2  and  C3_3 
REMARK    2  A    between atoms: C3_3  and  C4_4 
REMARK    3  A    between atoms: C4_4  and  C5_5 
REMARK    4  A    between atoms: C5_5  and  N1_6 
REMARK    5  A    between atoms: C6_7  and  C7_8 
REMARK    6  A    between atoms: C11_12  and  N2_13 
REMARK    7  A    between atoms: N2_13  and  C12_14 
REMARK    8  A    between atoms: C22_28  and  C23_29 
ROOT
HETATM    1  C7  UNL     1      21.338   2.387  50.707  1.00  0.00    -0.045 A 
HETATM    2  C8  UNL     1      21.432   1.916  51.822  1.00  0.00     0.012 A 
HETATM    3  C9  UNL     1      22.568   1.147  52.389  1.00  0.00     0.006 A 
HETATM    4  C10 UNL     1      22.875   0.299  53.346  1.00  0.00     0.036 A 
HETATM    5  C11 UNL     1      24.098  -0.261  53.619  1.00  0.00     0.141 A 
HETATM    6  N3  UNL     1      24.086  -1.084  54.663  1.00  0.00    -0.224 NA
HETATM    7  C18 UNL     1      23.040  -1.395  55.430  1.00  0.00     0.235 A 
HETATM    8  N4  UNL     1      21.827  -0.830  55.147  1.00  0.00    -0.241 NA
HETATM    9  C19 UNL     1      21.751   0.024  54.094  1.00  0.00     0.068 A 
HETATM   10  C20 UNL     1      20.648   0.627  53.728  1.00  0.00     0.007 A 
HETATM   11  C21 UNL     1      20.215   1.566  52.700  1.00  0.00     0.048 A 
HETATM   12  C22 UNL     1      21.088   0.675  50.478  1.00  0.00     0.072 A 
ENDROOT
BRANCH   1  13
HETATM   13  C6  UNL     1      21.269   2.690  49.936  1.00  0.00     0.008 A 
HETATM   14  N1  UNL     1      21.201   3.080  48.988  1.00  0.00    -0.277 NA
HETATM   15  C23 UNL     1      22.257   3.613  49.958  1.00  0.00     0.088 A 
HETATM   16  C24 UNL     1      23.561   3.401  49.143  1.00  0.00     0.031 C 
BRANCH  14  17
HETATM   17  C5  UNL     1      20.174   2.457  48.257  1.00  0.00     0.096 C 
BRANCH  17  18
HETATM   18  C4  UNL     1      18.905   3.324  48.326  1.00  0.00     0.015 C 
BRANCH  18  19
HETATM   19  C3  UNL     1      17.767   2.610  48.980  1.00  0.00     0.001 C 
BRANCH  19  20
HETATM   20  C2  UNL     1      17.590   2.911  50.431  1.00  0.00    -0.005 C 
HETATM   21  C1  UNL     1      16.649   4.087  50.661  1.00  0.00     0.005 C 
ENDBRANCH  19  20
ENDBRANCH  18  19
ENDBRANCH  17  18
ENDBRANCH  14  17
ENDBRANCH   1  13
BRANCH   5  22
HETATM   22  N2  UNL     1      25.183   0.065  52.806  1.00  0.00    -0.340 N 
HETATM   23  H13 UNL     1      25.084   0.489  51.865  1.00  0.00     0.167 HD
BRANCH  22  24
HETATM   24  C12 UNL     1      26.560  -0.107  53.088  1.00  0.00     0.035 A 
HETATM   25  C13 UNL     1      27.229  -1.279  52.840  1.00  0.00     0.032 A 
HETATM   26  C14 UNL     1      28.557  -1.502  53.083  1.00  0.00     0.046 A 
HETATM   27  C15 UNL     1      29.315  -0.485  53.620  1.00  0.00     0.138 A 
HETATM   28  F1  UNL     1      30.623  -0.593  53.897  1.00  0.00    -0.204 F 
HETATM   29  C16 UNL     1      28.720   0.723  53.898  1.00  0.00     0.074 A 
HETATM   30 CL1  UNL     1      29.623   2.056  54.579  1.00  0.00    -0.081 Cl
HETATM   31  C17 UNL     1      27.381   0.860  53.622  1.00  0.00     0.056 A 
ENDBRANCH  22  24
ENDBRANCH   5  22
TORSDOF 8
ENDMDL
