MODEL 1
REMARK VINA RESULT:      -7.7      0.000      0.000
REMARK  3 active torsions:
REMARK  status: ('A' for Active; 'I' for Inactive)
REMARK    1  A    between atoms: C4_4  and  O1_5 
REMARK    2  A    between atoms: O1_5  and  C5_6 
REMARK    3  A    between atoms: C9_11  and  O3_12 
ROOT
HETATM    1  C1  UNL     1      29.881  -0.026  53.596  1.00  0.00     0.020 C 
HETATM    2  C2  UNL     1      28.818   0.409  53.228  1.00  0.00    -0.049 C 
HETATM    3  C3  UNL     1      27.548   0.934  52.812  1.00  0.00     0.168 C 
HETATM    4  C4  UNL     1      26.528   0.131  53.068  1.00  0.00     0.133 C 
HETATM    5  C6  UNL     1      25.116   0.364  52.776  1.00  0.00     0.029 A 
HETATM    6  C7  UNL     1      24.281  -0.501  53.457  1.00  0.00     0.019 A 
HETATM    7  C8  UNL     1      22.903  -0.383  53.265  1.00  0.00     0.038 A 
HETATM    8  C9  UNL     1      22.360   0.563  52.422  1.00  0.00     0.070 A 
HETATM    9  C11 UNL     1      23.179   1.414  51.752  1.00  0.00     0.067 A 
HETATM   10  C12 UNL     1      24.546   1.315  51.928  1.00  0.00     0.054 A 
HETATM   11  N1  UNL     1      25.230   2.292  51.140  1.00  0.00    -0.297 N 
HETATM   12  C13 UNL     1      24.424   2.993  50.136  1.00  0.00     0.162 C 
HETATM   13  C14 UNL     1      26.620   2.664  51.225  1.00  0.00     0.373 C 
HETATM   14  O4  UNL     1      27.029   3.468  50.345  1.00  0.00    -0.237 OA
HETATM   15  O5  UNL     1      27.520   2.197  52.201  1.00  0.00    -0.249 OA
ENDROOT
BRANCH   4  16
HETATM   16  O1  UNL     1      26.705  -1.093  53.680  1.00  0.00    -0.281 OA
BRANCH  16  17
HETATM   17  C5  UNL     1      27.123  -2.186  52.957  1.00  0.00     0.404 C 
HETATM   18  O2  UNL     1      28.012  -3.034  52.681  1.00  0.00    -0.276 OA
ENDBRANCH  16  17
ENDBRANCH   4  16
BRANCH   8  19
HETATM   19  O3  UNL     1      20.994   0.523  52.366  1.00  0.00    -0.356 OA
HETATM   20  C10 UNL     1      20.185  -0.146  53.314  1.00  0.00     0.210 C 
ENDBRANCH   8  19
TORSDOF 3
ENDMDL
MODEL 2
REMARK VINA RESULT:      -7.4      2.194      4.479
REMARK  3 active torsions:
REMARK  status: ('A' for Active; 'I' for Inactive)
REMARK    1  A    between atoms: C4_4  and  O1_5 
REMARK    2  A    between atoms: O1_5  and  C5_6 
REMARK    3  A    between atoms: C9_11  and  O3_12 
ROOT
HETATM    1  C1  UNL     1      26.081   4.998  49.104  1.00  0.00     0.020 C 
HETATM    2  C2  UNL     1      26.044   4.099  49.907  1.00  0.00    -0.049 C 
HETATM    3  C3  UNL     1      25.995   3.014  50.846  1.00  0.00     0.168 C 
HETATM    4  C4  UNL     1      24.767   2.647  51.176  1.00  0.00     0.133 C 
HETATM    5  C6  UNL     1      24.373   1.586  52.098  1.00  0.00     0.029 A 
HETATM    6  C7  UNL     1      23.041   1.239  51.972  1.00  0.00     0.019 A 
HETATM    7  C8  UNL     1      22.536   0.233  52.799  1.00  0.00     0.038 A 
HETATM    8  C9  UNL     1      23.323  -0.416  53.727  1.00  0.00     0.070 A 
HETATM    9  C11 UNL     1      24.632  -0.076  53.851  1.00  0.00     0.067 A 
HETATM   10  C12 UNL     1      25.152   0.916  53.043  1.00  0.00     0.054 A 
HETATM   11  N1  UNL     1      26.538   1.125  53.327  1.00  0.00    -0.297 N 
HETATM   12  C13 UNL     1      27.054   0.486  54.540  1.00  0.00     0.162 C 
HETATM   13  C14 UNL     1      27.481   1.893  52.551  1.00  0.00     0.373 C 
HETATM   14  O4  UNL     1      28.625   2.035  53.061  1.00  0.00    -0.237 OA
HETATM   15  O5  UNL     1      27.208   2.474  51.299  1.00  0.00    -0.249 OA
ENDROOT
BRANCH   4  16
HETATM   16  O1  UNL     1      23.657   3.274  50.648  1.00  0.00    -0.281 OA
BRANCH  16  17
HETATM   17  C5  UNL     1      23.062   4.323  51.307  1.00  0.00     0.404 C 
HETATM   18  O2  UNL     1      22.859   4.968  52.371  1.00  0.00    -0.276 OA
ENDBRANCH  16  17
ENDBRANCH   4  16
BRANCH   8  19
HETATM   19  O3  UNL     1      22.650  -1.369  54.440  1.00  0.00    -0.356 OA
HETATM   20  C10 UNL     1      21.264  -1.621  54.310  1.00  0.00     0.210 C 
ENDBRANCH   8  19
TORSDOF 3
ENDMDL
MODEL 3
REMARK VINA RESULT:      -7.2      1.774      4.075
REMARK  3 active torsions:
REMARK  status: ('A' for Active; 'I' for Inactive)
REMARK    1  A    between atoms: C4_4  and  O1_5 
REMARK    2  A    between atoms: O1_5  and  C5_6 
REMARK    3  A    between atoms: C9_11  and  O3_12 
ROOT
HETATM    1  C1  UNL     1      29.215  -1.043  53.833  1.00  0.00     0.020 C 
HETATM    2  C2  UNL     1      28.147  -0.617  53.470  1.00  0.00    -0.049 C 
HETATM    3  C3  UNL     1      26.881  -0.117  53.015  1.00  0.00     0.168 C 
HETATM    4  C4  UNL     1      26.949   1.080  52.453  1.00  0.00     0.133 C 
HETATM    5  C6  UNL     1      25.853   1.863  51.891  1.00  0.00     0.029 A 
HETATM    6  C7  UNL     1      26.294   2.903  51.094  1.00  0.00     0.019 A 
HETATM    7  C8  UNL     1      25.343   3.731  50.495  1.00  0.00     0.038 A 
HETATM    8  C9  UNL     1      23.989   3.540  50.676  1.00  0.00     0.070 A 
HETATM    9  C11 UNL     1      23.554   2.520  51.459  1.00  0.00     0.067 A 
HETATM   10  C12 UNL     1      24.478   1.688  52.060  1.00  0.00     0.054 A 
HETATM   11  N1  UNL     1      23.824   0.683  52.838  1.00  0.00    -0.297 N 
HETATM   12  C13 UNL     1      22.389   0.875  53.069  1.00  0.00     0.162 C 
HETATM   13  C14 UNL     1      24.418  -0.496  53.418  1.00  0.00     0.373 C 
HETATM   14  O4  UNL     1      23.667  -1.179  54.165  1.00  0.00    -0.237 OA
HETATM   15  O5  UNL     1      25.744  -0.917  53.205  1.00  0.00    -0.249 OA
ENDROOT
BRANCH   4  16
HETATM   16  O1  UNL     1      28.146   1.756  52.333  1.00  0.00    -0.281 OA
BRANCH  16  17
HETATM   17  C5  UNL     1      28.667   2.457  53.395  1.00  0.00     0.404 C 
HETATM   18  O2  UNL     1      29.087   2.483  54.582  1.00  0.00    -0.276 OA
ENDBRANCH  16  17
ENDBRANCH   4  16
BRANCH   8  19
HETATM   19  O3  UNL     1      23.218   4.451  50.009  1.00  0.00    -0.356 OA
HETATM   20  C10 UNL     1      23.037   4.457  48.606  1.00  0.00     0.210 C 
ENDBRANCH   8  19
TORSDOF 3
ENDMDL
MODEL 4
REMARK VINA RESULT:      -7.1      1.984      3.958
REMARK  3 active torsions:
REMARK  status: ('A' for Active; 'I' for Inactive)
REMARK    1  A    between atoms: C4_4  and  O1_5 
REMARK    2  A    between atoms: O1_5  and  C5_6 
REMARK    3  A    between atoms: C9_11  and  O3_12 
ROOT
HETATM    1  C1  UNL     1      28.555   2.410  53.510  1.00  0.00     0.020 C 
HETATM    2  C2  UNL     1      27.512   1.805  53.476  1.00  0.00    -0.049 C 
HETATM    3  C3  UNL     1      26.278   1.075  53.414  1.00  0.00     0.168 C 
HETATM    4  C4  UNL     1      25.362   1.638  52.642  1.00  0.00     0.133 C 
HETATM    5  C6  UNL     1      24.011   1.155  52.366  1.00  0.00     0.029 A 
HETATM    6  C7  UNL     1      23.434   1.781  51.277  1.00  0.00     0.019 A 
HETATM    7  C8  UNL     1      22.140   1.410  50.906  1.00  0.00     0.038 A 
HETATM    8  C9  UNL     1      21.431   0.446  51.591  1.00  0.00     0.070 A 
HETATM    9  C11 UNL     1      21.997  -0.170  52.661  1.00  0.00     0.067 A 
HETATM   10  C12 UNL     1      23.276   0.182  53.045  1.00  0.00     0.054 A 
HETATM   11  N1  UNL     1      23.689  -0.574  54.186  1.00  0.00    -0.297 N 
HETATM   12  C13 UNL     1      22.641  -1.337  54.870  1.00  0.00     0.162 C 
HETATM   13  C14 UNL     1      25.019  -0.670  54.734  1.00  0.00     0.373 C 
HETATM   14  O4  UNL     1      25.121  -1.305  55.818  1.00  0.00    -0.237 OA
HETATM   15  O5  UNL     1      26.172  -0.115  54.150  1.00  0.00    -0.249 OA
ENDROOT
BRANCH   4  16
HETATM   16  O1  UNL     1      25.605   2.820  51.973  1.00  0.00    -0.281 OA
BRANCH  16  17
HETATM   17  C5  UNL     1      26.247   2.820  50.757  1.00  0.00     0.404 C 
HETATM   18  O2  UNL     1      26.981   3.398  49.912  1.00  0.00    -0.276 OA
ENDBRANCH  16  17
ENDBRANCH   4  16
BRANCH   8  19
HETATM   19  O3  UNL     1      20.184   0.221  51.078  1.00  0.00    -0.356 OA
HETATM   20  C10 UNL     1      19.042  -0.052  51.868  1.00  0.00     0.210 C 
ENDBRANCH   8  19
TORSDOF 3
ENDMDL
MODEL 5
REMARK VINA RESULT:      -7.1      1.682      5.823
REMARK  3 active torsions:
REMARK  status: ('A' for Active; 'I' for Inactive)
REMARK    1  A    between atoms: C4_4  and  O1_5 
REMARK    2  A    between atoms: O1_5  and  C5_6 
REMARK    3  A    between atoms: C9_11  and  O3_12 
ROOT
HETATM    1  C1  UNL     1      20.436  -0.393  53.748  1.00  0.00     0.020 C 
HETATM    2  C2  UNL     1      21.564  -0.054  53.487  1.00  0.00    -0.049 C 
HETATM    3  C3  UNL     1      22.902   0.370  53.188  1.00  0.00     0.168 C 
HETATM    4  C4  UNL     1      22.989   1.157  52.127  1.00  0.00     0.133 C 
HETATM    5  C6  UNL     1      24.194   1.756  51.559  1.00  0.00     0.029 A 
HETATM    6  C7  UNL     1      23.913   2.776  50.670  1.00  0.00     0.019 A 
HETATM    7  C8  UNL     1      24.980   3.434  50.055  1.00  0.00     0.038 A 
HETATM    8  C9  UNL     1      26.293   3.096  50.310  1.00  0.00     0.070 A 
HETATM    9  C11 UNL     1      26.570   2.093  51.183  1.00  0.00     0.067 A 
HETATM   10  C12 UNL     1      25.529   1.430  51.803  1.00  0.00     0.054 A 
HETATM   11  N1  UNL     1      26.026   0.415  52.679  1.00  0.00    -0.297 N 
HETATM   12  C13 UNL     1      27.451   0.094  52.556  1.00  0.00     0.162 C 
HETATM   13  C14 UNL     1      25.281  -0.324  53.668  1.00  0.00     0.373 C 
HETATM   14  O4  UNL     1      25.906  -1.256  54.243  1.00  0.00    -0.237 OA
HETATM   15  O5  UNL     1      23.941  -0.076  54.018  1.00  0.00    -0.249 OA
ENDROOT
BRANCH   4  16
HETATM   16  O1  UNL     1      21.874   1.516  51.397  1.00  0.00    -0.281 OA
BRANCH  16  17
HETATM   17  C5  UNL     1      21.524   0.823  50.263  1.00  0.00     0.404 C 
HETATM   18  O2  UNL     1      21.502   0.728  49.006  1.00  0.00    -0.276 OA
ENDBRANCH  16  17
ENDBRANCH   4  16
BRANCH   8  19
HETATM   19  O3  UNL     1      27.195   3.852  49.614  1.00  0.00    -0.356 OA
HETATM   20  C10 UNL     1      26.853   5.014  48.884  1.00  0.00     0.210 C 
ENDBRANCH   8  19
TORSDOF 3
ENDMDL
MODEL 6
REMARK VINA RESULT:      -7.0      2.135      5.592
REMARK  3 active torsions:
REMARK  status: ('A' for Active; 'I' for Inactive)
REMARK    1  A    between atoms: C4_4  and  O1_5 
REMARK    2  A    between atoms: O1_5  and  C5_6 
REMARK    3  A    between atoms: C9_11  and  O3_12 
ROOT
HETATM    1  C1  UNL     1      19.049  -0.836  53.108  1.00  0.00     0.020 C 
HETATM    2  C2  UNL     1      19.970  -0.097  52.864  1.00  0.00    -0.049 C 
HETATM    3  C3  UNL     1      21.071   0.771  52.555  1.00  0.00     0.168 C 
HETATM    4  C4  UNL     1      22.253   0.269  52.875  1.00  0.00     0.133 C 
HETATM    5  C6  UNL     1      23.562   0.890  52.693  1.00  0.00     0.029 A 
HETATM    6  C7  UNL     1      24.602  -0.013  52.818  1.00  0.00     0.019 A 
HETATM    7  C8  UNL     1      25.909   0.454  52.666  1.00  0.00     0.038 A 
HETATM    8  C9  UNL     1      26.187   1.778  52.398  1.00  0.00     0.070 A 
HETATM    9  C11 UNL     1      25.166   2.666  52.275  1.00  0.00     0.067 A 
HETATM   10  C12 UNL     1      23.866   2.225  52.421  1.00  0.00     0.054 A 
HETATM   11  N1  UNL     1      22.943   3.305  52.257  1.00  0.00    -0.297 N 
HETATM   12  C13 UNL     1      23.520   4.652  52.244  1.00  0.00     0.162 C 
HETATM   13  C14 UNL     1      21.512   3.215  52.102  1.00  0.00     0.373 C 
HETATM   14  O4  UNL     1      20.891   4.311  52.093  1.00  0.00    -0.237 OA
HETATM   15  O5  UNL     1      20.792   2.013  51.966  1.00  0.00    -0.249 OA
ENDROOT
BRANCH   4  16
HETATM   16  O1  UNL     1      22.379  -0.977  53.453  1.00  0.00    -0.281 OA
BRANCH  16  17
HETATM   17  C5  UNL     1      22.413  -1.117  54.821  1.00  0.00     0.404 C 
HETATM   18  O2  UNL     1      22.894  -1.665  55.849  1.00  0.00    -0.276 OA
ENDBRANCH  16  17
ENDBRANCH   4  16
BRANCH   8  19
HETATM   19  O3  UNL     1      27.523   2.042  52.283  1.00  0.00    -0.356 OA
HETATM   20  C10 UNL     1      28.375   2.295  53.384  1.00  0.00     0.210 C 
ENDBRANCH   8  19
TORSDOF 3
ENDMDL
MODEL 7
REMARK VINA RESULT:      -6.8      3.111      6.184
REMARK  3 active torsions:
REMARK  status: ('A' for Active; 'I' for Inactive)
REMARK    1  A    between atoms: C4_4  and  O1_5 
REMARK    2  A    between atoms: O1_5  and  C5_6 
REMARK    3  A    between atoms: C9_11  and  O3_12 
ROOT
HETATM    1  C1  UNL     1      23.742   0.391  52.904  1.00  0.00     0.020 C 
HETATM    2  C2  UNL     1      23.856   1.430  52.303  1.00  0.00    -0.049 C 
HETATM    3  C3  UNL     1      23.989   2.655  51.567  1.00  0.00     0.168 C 
HETATM    4  C4  UNL     1      25.193   2.838  51.047  1.00  0.00     0.133 C 
HETATM    5  C6  UNL     1      25.654   3.971  50.250  1.00  0.00     0.029 A 
HETATM    6  C7  UNL     1      26.839   3.709  49.588  1.00  0.00     0.019 A 
HETATM    7  C8  UNL     1      27.390   4.712  48.789  1.00  0.00     0.038 A 
HETATM    8  C9  UNL     1      26.789   5.945  48.643  1.00  0.00     0.070 A 
HETATM    9  C11 UNL     1      25.625   6.204  49.293  1.00  0.00     0.067 A 
HETATM   10  C12 UNL     1      25.062   5.225  50.089  1.00  0.00     0.054 A 
HETATM   11  N1  UNL     1      23.848   5.691  50.682  1.00  0.00    -0.297 N 
HETATM   12  C13 UNL     1      23.582   7.128  50.570  1.00  0.00     0.162 C 
HETATM   13  C14 UNL     1      22.858   4.904  51.376  1.00  0.00     0.373 C 
HETATM   14  O4  UNL     1      21.924   5.552  51.920  1.00  0.00    -0.237 OA
HETATM   15  O5  UNL     1      22.873   3.500  51.478  1.00  0.00    -0.249 OA
ENDROOT
BRANCH   4  16
HETATM   16  O1  UNL     1      26.204   1.916  51.217  1.00  0.00    -0.281 OA
BRANCH  16  17
HETATM   17  C5  UNL     1      27.111   2.047  52.243  1.00  0.00     0.404 C 
HETATM   18  O2  UNL     1      28.274   2.326  52.640  1.00  0.00    -0.276 OA
ENDBRANCH  16  17
ENDBRANCH   4  16
BRANCH   8  19
HETATM   19  O3  UNL     1      27.478   6.793  47.821  1.00  0.00    -0.356 OA
HETATM   20  C10 UNL     1      28.889   6.863  47.762  1.00  0.00     0.210 C 
ENDBRANCH   8  19
TORSDOF 3
ENDMDL
MODEL 8
REMARK VINA RESULT:      -6.6      2.247      4.985
REMARK  3 active torsions:
REMARK  status: ('A' for Active; 'I' for Inactive)
REMARK    1  A    between atoms: C4_4  and  O1_5 
REMARK    2  A    between atoms: O1_5  and  C5_6 
REMARK    3  A    between atoms: C9_11  and  O3_12 
ROOT
HETATM    1  C1  UNL     1      27.256   5.753  48.462  1.00  0.00     0.020 C 
HETATM    2  C2  UNL     1      26.808   4.859  49.136  1.00  0.00    -0.049 C 
HETATM    3  C3  UNL     1      26.272   3.782  49.919  1.00  0.00     0.168 C 
HETATM    4  C4  UNL     1      24.953   3.685  49.864  1.00  0.00     0.133 C 
HETATM    5  C6  UNL     1      24.104   2.707  50.538  1.00  0.00     0.029 A 
HETATM    6  C7  UNL     1      22.823   2.667  50.020  1.00  0.00     0.019 A 
HETATM    7  C8  UNL     1      21.909   1.771  50.578  1.00  0.00     0.038 A 
HETATM    8  C9  UNL     1      22.246   0.935  51.621  1.00  0.00     0.070 A 
HETATM    9  C11 UNL     1      23.504   0.974  52.132  1.00  0.00     0.067 A 
HETATM   10  C12 UNL     1      24.425   1.852  51.594  1.00  0.00     0.054 A 
HETATM   11  N1  UNL     1      25.682   1.742  52.266  1.00  0.00    -0.297 N 
HETATM   12  C13 UNL     1      25.685   0.966  53.509  1.00  0.00     0.162 C 
HETATM   13  C14 UNL     1      26.943   2.307  51.854  1.00  0.00     0.373 C 
HETATM   14  O4  UNL     1      27.895   2.177  52.671  1.00  0.00    -0.237 OA
HETATM   15  O5  UNL     1      27.167   2.974  50.636  1.00  0.00    -0.249 OA
ENDROOT
BRANCH   4  16
HETATM   16  O1  UNL     1      24.193   4.557  49.112  1.00  0.00    -0.281 OA
BRANCH  16  17
HETATM   17  C5  UNL     1      23.711   5.722  49.661  1.00  0.00     0.404 C 
HETATM   18  O2  UNL     1      23.889   6.750  50.368  1.00  0.00    -0.276 OA
ENDBRANCH  16  17
ENDBRANCH   4  16
BRANCH   8  19
HETATM   19  O3  UNL     1      21.218   0.132  52.030  1.00  0.00    -0.356 OA
HETATM   20  C10 UNL     1      19.883   0.269  51.582  1.00  0.00     0.210 C 
ENDBRANCH   8  19
TORSDOF 3
ENDMDL
MODEL 9
REMARK VINA RESULT:      -6.4      1.579      5.383
REMARK  3 active torsions:
REMARK  status: ('A' for Active; 'I' for Inactive)
REMARK    1  A    between atoms: C4_4  and  O1_5 
REMARK    2  A    between atoms: O1_5  and  C5_6 
REMARK    3  A    between atoms: C9_11  and  O3_12 
ROOT
HETATM    1  C1  UNL     1      19.556   2.548  52.049  1.00  0.00     0.020 C 
HETATM    2  C2  UNL     1      20.732   2.310  51.923  1.00  0.00    -0.049 C 
HETATM    3  C3  UNL     1      22.126   2.006  51.764  1.00  0.00     0.168 C 
HETATM    4  C4  UNL     1      22.617   1.235  52.721  1.00  0.00     0.133 C 
HETATM    5  C6  UNL     1      23.987   0.746  52.855  1.00  0.00     0.029 A 
HETATM    6  C7  UNL     1      24.096  -0.290  53.763  1.00  0.00     0.019 A 
HETATM    7  C8  UNL     1      25.356  -0.849  53.985  1.00  0.00     0.038 A 
HETATM    8  C9  UNL     1      26.482  -0.399  53.327  1.00  0.00     0.070 A 
HETATM    9  C11 UNL     1      26.376   0.618  52.435  1.00  0.00     0.067 A 
HETATM   10  C12 UNL     1      25.139   1.186  52.200  1.00  0.00     0.054 A 
HETATM   11  N1  UNL     1      25.238   2.235  51.234  1.00  0.00    -0.297 N 
HETATM   12  C13 UNL     1      26.593   2.679  50.898  1.00  0.00     0.162 C 
HETATM   13  C14 UNL     1      24.153   2.902  50.556  1.00  0.00     0.373 C 
HETATM   14  O4  UNL     1      24.478   3.881  49.833  1.00  0.00    -0.237 OA
HETATM   15  O5  UNL     1      22.798   2.536  50.652  1.00  0.00    -0.249 OA
ENDROOT
BRANCH   4  16
HETATM   16  O1  UNL     1      21.833   0.784  53.763  1.00  0.00    -0.281 OA
BRANCH  16  17
HETATM   17  C5  UNL     1      21.059  -0.344  53.624  1.00  0.00     0.404 C 
HETATM   18  O2  UNL     1      19.925  -0.891  53.598  1.00  0.00    -0.276 OA
ENDBRANCH  16  17
ENDBRANCH   4  16
BRANCH   8  19
HETATM   19  O3  UNL     1      27.621  -1.071  53.677  1.00  0.00    -0.356 OA
HETATM   20  C10 UNL     1      28.842  -0.437  54.007  1.00  0.00     0.210 C 
ENDBRANCH   8  19
TORSDOF 3
ENDMDL
