MODEL 1
REMARK VINA RESULT:      -8.0      0.000      0.000
REMARK  7 active torsions:
REMARK  status: ('A' for Active; 'I' for Inactive)
REMARK    1  A    between atoms: N1_2  and  C3_4 
REMARK    2  A    between atoms: C3_4  and  C4_5 
REMARK    3  A    between atoms: C4_5  and  C5_6 
REMARK    4  A    between atoms: C5_6  and  C6_7 
REMARK       I    between atoms: C6_7  and  N2_9 
REMARK    5  A    between atoms: N2_9  and  C7_10 
REMARK    6  A    between atoms: C13_17  and  C14_18 
REMARK    7  A    between atoms: C17_21  and  N4_22 
ROOT
HETATM    1  C7  UNL     1      24.618   3.610  51.465  1.00  0.00     0.035 A 
HETATM    2  C8  UNL     1      23.308   3.811  51.911  1.00  0.00     0.032 A 
HETATM    3  C9  UNL     1      22.719   2.763  52.614  1.00  0.00     0.035 A 
HETATM    4  C10 UNL     1      23.391   1.585  52.861  1.00  0.00     0.067 A 
HETATM    5  N3  UNL     1      22.784   0.568  53.534  1.00  0.00    -0.260 NA
HETATM    6  C11 UNL     1      23.488  -0.585  53.735  1.00  0.00     0.118 A 
HETATM    7  C12 UNL     1      24.766  -0.734  53.284  1.00  0.00     0.028 A 
HETATM    8  C13 UNL     1      25.462   0.259  52.587  1.00  0.00    -0.033 A 
HETATM    9  C19 UNL     1      24.681   1.381  52.427  1.00  0.00     0.002 A 
HETATM   10  C20 UNL     1      25.246   2.421  51.734  1.00  0.00     0.044 A 
ENDROOT
BRANCH   1  11
HETATM   11  N2  UNL     1      25.215   4.691  50.743  1.00  0.00    -0.327 N 
HETATM   12  C6  UNL     1      25.128   4.930  49.335  1.00  0.00     0.222 C 
HETATM   13  O1  UNL     1      24.432   4.016  48.871  1.00  0.00    -0.273 OA
HETATM   14  H13 UNL     1      25.683   5.171  51.571  1.00  0.00     0.169 HD
BRANCH  12  15
HETATM   15  C5  UNL     1      25.891   6.154  49.005  1.00  0.00     0.105 C 
BRANCH  15  16
HETATM   16  C4  UNL     1      27.266   5.764  48.490  1.00  0.00     0.039 C 
BRANCH  16  17
HETATM   17  C3  UNL     1      27.907   7.000  47.924  1.00  0.00     0.271 C 
BRANCH  17  18
HETATM   18  N1  UNL     1      29.325   6.800  47.762  1.00  0.00     0.080 N 
HETATM   19  C1  UNL     1      29.712   5.467  48.138  1.00  0.00     0.309 C 
HETATM   20  C2  UNL     1      30.091   7.724  48.543  1.00  0.00     0.309 C 
ENDBRANCH  17  18
ENDBRANCH  16  17
ENDBRANCH  15  16
ENDBRANCH  12  15
ENDBRANCH   1  11
BRANCH   8  21
HETATM   21  C14 UNL     1      26.837   0.022  52.206  1.00  0.00     0.067 A 
HETATM   22  C15 UNL     1      27.759   0.529  53.259  1.00  0.00    -0.011 A 
HETATM   23  C16 UNL     1      28.467  -0.506  53.761  1.00  0.00     0.025 A 
HETATM   24  C17 UNL     1      28.078  -1.764  53.088  1.00  0.00     0.022 A 
HETATM   25  C18 UNL     1      27.133  -1.425  52.192  1.00  0.00     0.015 A 
BRANCH  24  26
HETATM   26  N4  UNL     1      28.400  -3.146  53.117  1.00  0.00    -0.399 N 
HETATM   27  H21 UNL     1      28.059  -3.914  52.528  1.00  0.00     0.156 HD
HETATM   28  H22 UNL     1      29.078  -3.536  53.813  1.00  0.00     0.156 HD
ENDBRANCH  24  26
ENDBRANCH   8  21
TORSDOF 7
ENDMDL
MODEL 2
REMARK VINA RESULT:      -7.7      1.614      2.490
REMARK  7 active torsions:
REMARK  status: ('A' for Active; 'I' for Inactive)
REMARK    1  A    between atoms: N1_2  and  C3_4 
REMARK    2  A    between atoms: C3_4  and  C4_5 
REMARK    3  A    between atoms: C4_5  and  C5_6 
REMARK    4  A    between atoms: C5_6  and  C6_7 
REMARK       I    between atoms: C6_7  and  N2_9 
REMARK    5  A    between atoms: N2_9  and  C7_10 
REMARK    6  A    between atoms: C13_17  and  C14_18 
REMARK    7  A    between atoms: C17_21  and  N4_22 
ROOT
HETATM    1  C7  UNL     1      24.819   3.680  51.465  1.00  0.00     0.035 A 
HETATM    2  C8  UNL     1      23.520   3.932  51.919  1.00  0.00     0.032 A 
HETATM    3  C9  UNL     1      22.893   2.906  52.621  1.00  0.00     0.035 A 
HETATM    4  C10 UNL     1      23.518   1.700  52.860  1.00  0.00     0.067 A 
HETATM    5  N3  UNL     1      22.874   0.705  53.532  1.00  0.00    -0.260 NA
HETATM    6  C11 UNL     1      23.531  -0.476  53.723  1.00  0.00     0.118 A 
HETATM    7  C12 UNL     1      24.800  -0.675  53.264  1.00  0.00     0.028 A 
HETATM    8  C13 UNL     1      25.532   0.292  52.568  1.00  0.00    -0.033 A 
HETATM    9  C19 UNL     1      24.796   1.446  52.417  1.00  0.00     0.002 A 
HETATM   10  C20 UNL     1      25.400   2.465  51.725  1.00  0.00     0.044 A 
ENDROOT
BRANCH   1  11
HETATM   11  N2  UNL     1      25.455   4.739  50.745  1.00  0.00    -0.327 N 
HETATM   12  C6  UNL     1      25.559   4.863  49.323  1.00  0.00     0.222 C 
HETATM   13  O1  UNL     1      24.987   3.873  48.845  1.00  0.00    -0.273 OA
HETATM   14  H13 UNL     1      25.773   5.310  51.586  1.00  0.00     0.169 HD
BRANCH  12  15
HETATM   15  C5  UNL     1      26.296   6.105  48.999  1.00  0.00     0.105 C 
BRANCH  15  16
HETATM   16  C4  UNL     1      25.900   7.193  49.983  1.00  0.00     0.039 C 
BRANCH  16  17
HETATM   17  C3  UNL     1      25.209   8.279  49.207  1.00  0.00     0.271 C 
BRANCH  17  18
HETATM   18  N1  UNL     1      23.831   8.388  49.614  1.00  0.00     0.080 N 
HETATM   19  C1  UNL     1      23.609   7.750  50.885  1.00  0.00     0.309 C 
HETATM   20  C2  UNL     1      22.940   7.801  48.659  1.00  0.00     0.309 C 
ENDBRANCH  17  18
ENDBRANCH  16  17
ENDBRANCH  15  16
ENDBRANCH  12  15
ENDBRANCH   1  11
BRANCH   8  21
HETATM   21  C14 UNL     1      26.895   0.002  52.178  1.00  0.00     0.067 A 
HETATM   22  C15 UNL     1      27.845   0.507  53.207  1.00  0.00    -0.011 A 
HETATM   23  C16 UNL     1      28.525  -0.535  53.729  1.00  0.00     0.025 A 
HETATM   24  C17 UNL     1      28.089  -1.798  53.096  1.00  0.00     0.022 A 
HETATM   25  C18 UNL     1      27.145  -1.454  52.202  1.00  0.00     0.015 A 
BRANCH  24  26
HETATM   26  N4  UNL     1      28.368  -3.188  53.160  1.00  0.00    -0.399 N 
HETATM   27  H21 UNL     1      28.311  -3.834  53.955  1.00  0.00     0.156 HD
HETATM   28  H22 UNL     1      28.687  -3.723  52.318  1.00  0.00     0.156 HD
ENDBRANCH  24  26
ENDBRANCH   8  21
TORSDOF 7
ENDMDL
MODEL 3
REMARK VINA RESULT:      -7.7      1.722      2.210
REMARK  7 active torsions:
REMARK  status: ('A' for Active; 'I' for Inactive)
REMARK    1  A    between atoms: N1_2  and  C3_4 
REMARK    2  A    between atoms: C3_4  and  C4_5 
REMARK    3  A    between atoms: C4_5  and  C5_6 
REMARK    4  A    between atoms: C5_6  and  C6_7 
REMARK       I    between atoms: C6_7  and  N2_9 
REMARK    5  A    between atoms: N2_9  and  C7_10 
REMARK    6  A    between atoms: C13_17  and  C14_18 
REMARK    7  A    between atoms: C17_21  and  N4_22 
ROOT
HETATM    1  C7  UNL     1      22.694   2.999  51.408  1.00  0.00     0.035 A 
HETATM    2  C8  UNL     1      21.390   2.772  51.859  1.00  0.00     0.032 A 
HETATM    3  C9  UNL     1      21.207   1.703  52.733  1.00  0.00     0.035 A 
HETATM    4  C10 UNL     1      22.258   0.907  53.137  1.00  0.00     0.067 A 
HETATM    5  N3  UNL     1      22.048  -0.145  53.977  1.00  0.00    -0.260 NA
HETATM    6  C11 UNL     1      23.119  -0.914  54.331  1.00  0.00     0.118 A 
HETATM    7  C12 UNL     1      24.375  -0.651  53.868  1.00  0.00     0.028 A 
HETATM    8  C13 UNL     1      24.677   0.407  53.005  1.00  0.00    -0.033 A 
HETATM    9  C19 UNL     1      23.543   1.125  52.699  1.00  0.00     0.002 A 
HETATM   10  C20 UNL     1      23.707   2.180  51.837  1.00  0.00     0.044 A 
ENDROOT
BRANCH   1  11
HETATM   11  N2  UNL     1      22.873   4.098  50.510  1.00  0.00    -0.327 N 
HETATM   12  C6  UNL     1      23.293   5.422  50.854  1.00  0.00     0.222 C 
HETATM   13  O1  UNL     1      23.472   5.422  52.080  1.00  0.00    -0.273 OA
HETATM   14  H13 UNL     1      22.601   3.592  49.614  1.00  0.00     0.169 HD
BRANCH  12  15
HETATM   15  C5  UNL     1      23.347   6.245  49.625  1.00  0.00     0.105 C 
BRANCH  15  16
HETATM   16  C4  UNL     1      24.392   5.674  48.684  1.00  0.00     0.039 C 
BRANCH  16  17
HETATM   17  C3  UNL     1      25.702   5.648  49.421  1.00  0.00     0.271 C 
BRANCH  17  18
HETATM   18  N1  UNL     1      26.514   4.549  48.963  1.00  0.00     0.080 N 
HETATM   19  C1  UNL     1      26.622   3.524  49.966  1.00  0.00     0.309 C 
HETATM   20  C2  UNL     1      27.837   4.968  48.610  1.00  0.00     0.309 C 
ENDBRANCH  17  18
ENDBRANCH  16  17
ENDBRANCH  15  16
ENDBRANCH  12  15
ENDBRANCH   1  11
BRANCH   8  21
HETATM   21  C14 UNL     1      26.054   0.635  52.623  1.00  0.00     0.067 A 
HETATM   22  C15 UNL     1      26.788   1.322  53.721  1.00  0.00    -0.011 A 
HETATM   23  C16 UNL     1      27.786   0.522  54.152  1.00  0.00     0.025 A 
HETATM   24  C17 UNL     1      27.796  -0.741  53.383  1.00  0.00     0.022 A 
HETATM   25  C18 UNL     1      26.781  -0.644  52.505  1.00  0.00     0.015 A 
BRANCH  24  26
HETATM   26  N4  UNL     1      28.529  -1.954  53.313  1.00  0.00    -0.399 N 
HETATM   27  H21 UNL     1      28.198  -2.925  53.329  1.00  0.00     0.156 HD
HETATM   28  H22 UNL     1      29.573  -1.960  53.232  1.00  0.00     0.156 HD
ENDBRANCH  24  26
ENDBRANCH   8  21
TORSDOF 7
ENDMDL
MODEL 4
REMARK VINA RESULT:      -7.6      2.358      4.705
REMARK  7 active torsions:
REMARK  status: ('A' for Active; 'I' for Inactive)
REMARK    1  A    between atoms: N1_2  and  C3_4 
REMARK    2  A    between atoms: C3_4  and  C4_5 
REMARK    3  A    between atoms: C4_5  and  C5_6 
REMARK    4  A    between atoms: C5_6  and  C6_7 
REMARK       I    between atoms: C6_7  and  N2_9 
REMARK    5  A    between atoms: N2_9  and  C7_10 
REMARK    6  A    between atoms: C13_17  and  C14_18 
REMARK    7  A    between atoms: C17_21  and  N4_22 
ROOT
HETATM    1  C7  UNL     1      26.244   2.467  51.877  1.00  0.00     0.035 A 
HETATM    2  C8  UNL     1      27.411   1.836  52.321  1.00  0.00     0.032 A 
HETATM    3  C9  UNL     1      27.248   0.735  53.159  1.00  0.00     0.035 A 
HETATM    4  C10 UNL     1      25.999   0.286  53.534  1.00  0.00     0.067 A 
HETATM    5  N3  UNL     1      25.868  -0.780  54.371  1.00  0.00    -0.260 NA
HETATM    6  C11 UNL     1      24.610  -1.172  54.727  1.00  0.00     0.118 A 
HETATM    7  C12 UNL     1      23.499  -0.527  54.266  1.00  0.00     0.028 A 
HETATM    8  C13 UNL     1      23.545   0.573  53.404  1.00  0.00    -0.033 A 
HETATM    9  C19 UNL     1      24.847   0.900  53.100  1.00  0.00     0.002 A 
HETATM   10  C20 UNL     1      25.024   1.984  52.277  1.00  0.00     0.044 A 
ENDROOT
BRANCH   1  11
HETATM   11  N2  UNL     1      26.420   3.596  51.018  1.00  0.00    -0.327 N 
HETATM   12  C6  UNL     1      26.600   3.569  49.599  1.00  0.00     0.222 C 
HETATM   13  O1  UNL     1      26.570   2.376  49.267  1.00  0.00    -0.273 OA
HETATM   14  H13 UNL     1      26.371   4.351  51.767  1.00  0.00     0.169 HD
BRANCH  12  15
HETATM   15  C5  UNL     1      26.746   4.957  49.105  1.00  0.00     0.105 C 
BRANCH  15  16
HETATM   16  C4  UNL     1      25.408   5.668  49.207  1.00  0.00     0.039 C 
BRANCH  16  17
HETATM   17  C3  UNL     1      25.620   6.921  50.011  1.00  0.00     0.271 C 
BRANCH  17  18
HETATM   18  N1  UNL     1      24.516   7.132  50.912  1.00  0.00     0.080 N 
HETATM   19  C1  UNL     1      23.809   5.906  51.170  1.00  0.00     0.309 C 
HETATM   20  C2  UNL     1      23.580   8.088  50.401  1.00  0.00     0.309 C 
ENDBRANCH  17  18
ENDBRANCH  16  17
ENDBRANCH  15  16
ENDBRANCH  12  15
ENDBRANCH   1  11
BRANCH   8  21
HETATM   21  C14 UNL     1      22.306   1.145  52.925  1.00  0.00     0.067 A 
HETATM   22  C15 UNL     1      22.022   0.676  51.541  1.00  0.00    -0.011 A 
HETATM   23  C16 UNL     1      20.868  -0.025  51.542  1.00  0.00     0.025 A 
HETATM   24  C17 UNL     1      20.302  -0.075  52.906  1.00  0.00     0.022 A 
HETATM   25  C18 UNL     1      21.157   0.613  53.685  1.00  0.00     0.015 A 
BRANCH  24  26
HETATM   26  N4  UNL     1      19.178  -0.611  53.588  1.00  0.00    -0.399 N 
HETATM   27  H21 UNL     1      18.808  -0.394  54.520  1.00  0.00     0.156 HD
HETATM   28  H22 UNL     1      18.572  -1.346  53.153  1.00  0.00     0.156 HD
ENDBRANCH  24  26
ENDBRANCH   8  21
TORSDOF 7
ENDMDL
MODEL 5
REMARK VINA RESULT:      -7.5      3.027      3.906
REMARK  7 active torsions:
REMARK  status: ('A' for Active; 'I' for Inactive)
REMARK    1  A    between atoms: N1_2  and  C3_4 
REMARK    2  A    between atoms: C3_4  and  C4_5 
REMARK    3  A    between atoms: C4_5  and  C5_6 
REMARK    4  A    between atoms: C5_6  and  C6_7 
REMARK       I    between atoms: C6_7  and  N2_9 
REMARK    5  A    between atoms: N2_9  and  C7_10 
REMARK    6  A    between atoms: C13_17  and  C14_18 
REMARK    7  A    between atoms: C17_21  and  N4_22 
ROOT
HETATM    1  C7  UNL     1      21.438   1.485  51.894  1.00  0.00     0.035 A 
HETATM    2  C8  UNL     1      20.303   1.078  52.604  1.00  0.00     0.032 A 
HETATM    3  C9  UNL     1      20.515   0.241  53.695  1.00  0.00     0.035 A 
HETATM    4  C10 UNL     1      21.780  -0.169  54.063  1.00  0.00     0.067 A 
HETATM    5  N3  UNL     1      21.957  -1.005  55.123  1.00  0.00    -0.260 NA
HETATM    6  C11 UNL     1      23.229  -1.397  55.432  1.00  0.00     0.118 A 
HETATM    7  C12 UNL     1      24.306  -0.971  54.712  1.00  0.00     0.028 A 
HETATM    8  C13 UNL     1      24.212  -0.113  53.612  1.00  0.00    -0.033 A 
HETATM    9  C19 UNL     1      22.900   0.228  53.370  1.00  0.00     0.002 A 
HETATM   10  C20 UNL     1      22.675   1.052  52.296  1.00  0.00     0.044 A 
ENDROOT
BRANCH   1  11
HETATM   11  N2  UNL     1      21.211   2.345  50.774  1.00  0.00    -0.327 N 
HETATM   12  C6  UNL     1      21.182   1.963  49.395  1.00  0.00     0.222 C 
HETATM   13  O1  UNL     1      21.390   0.742  49.369  1.00  0.00    -0.273 OA
HETATM   14  H13 UNL     1      21.092   3.254  51.316  1.00  0.00     0.169 HD
BRANCH  12  15
HETATM   15  C5  UNL     1      20.918   3.160  48.567  1.00  0.00     0.105 C 
BRANCH  15  16
HETATM   16  C4  UNL     1      21.623   4.358  49.179  1.00  0.00     0.039 C 
BRANCH  16  17
HETATM   17  C3  UNL     1      22.921   4.546  48.444  1.00  0.00     0.271 C 
BRANCH  17  18
HETATM   18  N1  UNL     1      24.018   4.630  49.374  1.00  0.00     0.080 N 
HETATM   19  C1  UNL     1      24.640   3.347  49.567  1.00  0.00     0.309 C 
HETATM   20  C2  UNL     1      23.602   5.121  50.653  1.00  0.00     0.309 C 
ENDBRANCH  17  18
ENDBRANCH  16  17
ENDBRANCH  15  16
ENDBRANCH  12  15
ENDBRANCH   1  11
BRANCH   8  21
HETATM   21  C14 UNL     1      25.423   0.328  52.955  1.00  0.00     0.067 A 
HETATM   22  C15 UNL     1      26.153   1.300  53.814  1.00  0.00    -0.011 A 
HETATM   23  C16 UNL     1      27.360   0.788  54.133  1.00  0.00     0.025 A 
HETATM   24  C17 UNL     1      27.527  -0.546  53.517  1.00  0.00     0.022 A 
HETATM   25  C18 UNL     1      26.389  -0.784  52.841  1.00  0.00     0.015 A 
BRANCH  24  26
HETATM   26  N4  UNL     1      28.491  -1.585  53.442  1.00  0.00    -0.399 N 
HETATM   27  H21 UNL     1      28.970  -2.093  54.193  1.00  0.00     0.156 HD
HETATM   28  H22 UNL     1      28.827  -1.956  52.522  1.00  0.00     0.156 HD
ENDBRANCH  24  26
ENDBRANCH   8  21
TORSDOF 7
ENDMDL
MODEL 6
REMARK VINA RESULT:      -7.5      4.119      5.498
REMARK  7 active torsions:
REMARK  status: ('A' for Active; 'I' for Inactive)
REMARK    1  A    between atoms: N1_2  and  C3_4 
REMARK    2  A    between atoms: C3_4  and  C4_5 
REMARK    3  A    between atoms: C4_5  and  C5_6 
REMARK    4  A    between atoms: C5_6  and  C6_7 
REMARK       I    between atoms: C6_7  and  N2_9 
REMARK    5  A    between atoms: N2_9  and  C7_10 
REMARK    6  A    between atoms: C13_17  and  C14_18 
REMARK    7  A    between atoms: C17_21  and  N4_22 
ROOT
HETATM    1  C7  UNL     1      20.773   0.377  52.551  1.00  0.00     0.035 A 
HETATM    2  C8  UNL     1      20.012  -0.388  53.441  1.00  0.00     0.032 A 
HETATM    3  C9  UNL     1      20.707  -1.064  54.440  1.00  0.00     0.035 A 
HETATM    4  C10 UNL     1      22.079  -0.986  54.551  1.00  0.00     0.067 A 
HETATM    5  N3  UNL     1      22.737  -1.673  55.526  1.00  0.00    -0.260 NA
HETATM    6  C11 UNL     1      24.098  -1.577  55.579  1.00  0.00     0.118 A 
HETATM    7  C12 UNL     1      24.799  -0.815  54.691  1.00  0.00     0.028 A 
HETATM    8  C13 UNL     1      24.203  -0.078  53.663  1.00  0.00    -0.033 A 
HETATM    9  C19 UNL     1      22.835  -0.234  53.681  1.00  0.00     0.002 A 
HETATM   10  C20 UNL     1      22.136   0.424  52.701  1.00  0.00     0.044 A 
ENDROOT
BRANCH   1  11
HETATM   11  N2  UNL     1      20.052   1.067  51.528  1.00  0.00    -0.327 N 
HETATM   12  C6  UNL     1      19.551   2.406  51.591  1.00  0.00     0.222 C 
HETATM   13  O1  UNL     1      19.869   2.844  52.706  1.00  0.00    -0.273 OA
HETATM   14  H13 UNL     1      20.044   0.283  50.808  1.00  0.00     0.169 HD
BRANCH  12  15
HETATM   15  C5  UNL     1      18.865   2.725  50.320  1.00  0.00     0.105 C 
BRANCH  15  16
HETATM   16  C4  UNL     1      19.511   1.940  49.191  1.00  0.00     0.039 C 
BRANCH  16  17
HETATM   17  C3  UNL     1      20.056   2.931  48.201  1.00  0.00     0.271 C 
BRANCH  17  18
HETATM   18  N1  UNL     1      21.392   2.563  47.807  1.00  0.00     0.080 N 
HETATM   19  C1  UNL     1      21.823   1.362  48.473  1.00  0.00     0.309 C 
HETATM   20  C2  UNL     1      22.342   3.596  48.092  1.00  0.00     0.309 C 
ENDBRANCH  17  18
ENDBRANCH  16  17
ENDBRANCH  15  16
ENDBRANCH  12  15
ENDBRANCH   1  11
BRANCH   8  21
HETATM   21  C14 UNL     1      25.033   0.747  52.813  1.00  0.00     0.067 A 
HETATM   22  C15 UNL     1      25.235   2.086  53.431  1.00  0.00    -0.011 A 
HETATM   23  C16 UNL     1      26.550   2.264  53.680  1.00  0.00     0.025 A 
HETATM   24  C17 UNL     1      27.315   1.074  53.250  1.00  0.00     0.022 A 
HETATM   25  C18 UNL     1      26.409   0.214  52.751  1.00  0.00     0.015 A 
BRANCH  24  26
HETATM   26  N4  UNL     1      28.656   0.610  53.216  1.00  0.00    -0.399 N 
HETATM   27  H21 UNL     1      29.449   0.929  52.648  1.00  0.00     0.156 HD
HETATM   28  H22 UNL     1      28.980  -0.176  53.828  1.00  0.00     0.156 HD
ENDBRANCH  24  26
ENDBRANCH   8  21
TORSDOF 7
ENDMDL
MODEL 7
REMARK VINA RESULT:      -7.5      2.049      4.466
REMARK  7 active torsions:
REMARK  status: ('A' for Active; 'I' for Inactive)
REMARK    1  A    between atoms: N1_2  and  C3_4 
REMARK    2  A    between atoms: C3_4  and  C4_5 
REMARK    3  A    between atoms: C4_5  and  C5_6 
REMARK    4  A    between atoms: C5_6  and  C6_7 
REMARK       I    between atoms: C6_7  and  N2_9 
REMARK    5  A    between atoms: N2_9  and  C7_10 
REMARK    6  A    between atoms: C13_17  and  C14_18 
REMARK    7  A    between atoms: C17_21  and  N4_22 
ROOT
HETATM    1  C7  UNL     1      26.329   1.176  52.261  1.00  0.00     0.035 A 
HETATM    2  C8  UNL     1      27.362   0.994  53.186  1.00  0.00     0.032 A 
HETATM    3  C9  UNL     1      27.048   0.284  54.343  1.00  0.00     0.035 A 
HETATM    4  C10 UNL     1      25.783  -0.216  54.568  1.00  0.00     0.067 A 
HETATM    5  N3  UNL     1      25.498  -0.889  55.717  1.00  0.00    -0.260 NA
HETATM    6  C11 UNL     1      24.224  -1.347  55.899  1.00  0.00     0.118 A 
HETATM    7  C12 UNL     1      23.249  -1.148  54.966  1.00  0.00     0.028 A 
HETATM    8  C13 UNL     1      23.458  -0.470  53.760  1.00  0.00    -0.033 A 
HETATM    9  C19 UNL     1      24.763  -0.043  53.661  1.00  0.00     0.002 A 
HETATM   10  C20 UNL     1      25.087   0.660  52.528  1.00  0.00     0.044 A 
ENDROOT
BRANCH   1  11
HETATM   11  N2  UNL     1      26.660   1.906  51.076  1.00  0.00    -0.327 N 
HETATM   12  C6  UNL     1      26.069   3.132  50.635  1.00  0.00     0.222 C 
HETATM   13  O1  UNL     1      25.218   3.432  51.484  1.00  0.00    -0.273 OA
HETATM   14  H13 UNL     1      27.417   1.250  50.714  1.00  0.00     0.169 HD
BRANCH  12  15
HETATM   15  C5  UNL     1      26.702   3.543  49.363  1.00  0.00     0.105 C 
BRANCH  15  16
HETATM   16  C4  UNL     1      26.393   5.007  49.099  1.00  0.00     0.039 C 
BRANCH  16  17
HETATM   17  C3  UNL     1      27.618   5.626  48.485  1.00  0.00     0.271 C 
BRANCH  17  18
HETATM   18  N1  UNL     1      27.578   7.060  48.624  1.00  0.00     0.080 N 
HETATM   19  C1  UNL     1      26.649   7.650  47.697  1.00  0.00     0.309 C 
HETATM   20  C2  UNL     1      28.862   7.657  48.409  1.00  0.00     0.309 C 
ENDBRANCH  17  18
ENDBRANCH  16  17
ENDBRANCH  15  16
ENDBRANCH  12  15
ENDBRANCH   1  11
BRANCH   8  21
HETATM   21  C14 UNL     1      22.371  -0.368  52.811  1.00  0.00     0.067 A 
HETATM   22  C15 UNL     1      21.122  -0.930  53.393  1.00  0.00    -0.011 A 
HETATM   23  C16 UNL     1      20.196   0.048  53.477  1.00  0.00     0.025 A 
HETATM   24  C17 UNL     1      20.748   1.319  52.962  1.00  0.00     0.022 A 
HETATM   25  C18 UNL     1      22.009   1.045  52.583  1.00  0.00     0.015 A 
BRANCH  24  26
HETATM   26  N4  UNL     1      20.347   2.667  52.766  1.00  0.00    -0.399 N 
HETATM   27  H21 UNL     1      20.817   3.538  53.034  1.00  0.00     0.156 HD
HETATM   28  H22 UNL     1      19.449   2.907  52.283  1.00  0.00     0.156 HD
ENDBRANCH  24  26
ENDBRANCH   8  21
TORSDOF 7
ENDMDL
MODEL 8
REMARK VINA RESULT:      -7.4      1.929      4.165
REMARK  7 active torsions:
REMARK  status: ('A' for Active; 'I' for Inactive)
REMARK    1  A    between atoms: N1_2  and  C3_4 
REMARK    2  A    between atoms: C3_4  and  C4_5 
REMARK    3  A    between atoms: C4_5  and  C5_6 
REMARK    4  A    between atoms: C5_6  and  C6_7 
REMARK       I    between atoms: C6_7  and  N2_9 
REMARK    5  A    between atoms: N2_9  and  C7_10 
REMARK    6  A    between atoms: C13_17  and  C14_18 
REMARK    7  A    between atoms: C17_21  and  N4_22 
ROOT
HETATM    1  C7  UNL     1      25.959   2.781  51.679  1.00  0.00     0.035 A 
HETATM    2  C8  UNL     1      27.163   2.194  52.079  1.00  0.00     0.032 A 
HETATM    3  C9  UNL     1      27.071   1.066  52.890  1.00  0.00     0.035 A 
HETATM    4  C10 UNL     1      25.854   0.549  53.280  1.00  0.00     0.067 A 
HETATM    5  N3  UNL     1      25.793  -0.545  54.090  1.00  0.00    -0.260 NA
HETATM    6  C11 UNL     1      24.562  -1.004  54.464  1.00  0.00     0.118 A 
HETATM    7  C12 UNL     1      23.413  -0.400  54.046  1.00  0.00     0.028 A 
HETATM    8  C13 UNL     1      23.387   0.724  53.214  1.00  0.00    -0.033 A 
HETATM    9  C19 UNL     1      24.665   1.120  52.890  1.00  0.00     0.002 A 
HETATM   10  C20 UNL     1      24.772   2.232  52.094  1.00  0.00     0.044 A 
ENDROOT
BRANCH   1  11
HETATM   11  N2  UNL     1      26.062   3.940  50.848  1.00  0.00    -0.327 N 
HETATM   12  C6  UNL     1      26.466   3.974  49.476  1.00  0.00     0.222 C 
HETATM   13  O1  UNL     1      26.704   2.801  49.155  1.00  0.00    -0.273 OA
HETATM   14  H13 UNL     1      25.759   4.660  51.572  1.00  0.00     0.169 HD
BRANCH  12  15
HETATM   15  C5  UNL     1      26.435   5.374  48.997  1.00  0.00     0.105 C 
BRANCH  15  16
HETATM   16  C4  UNL     1      27.798   5.741  48.437  1.00  0.00     0.039 C 
BRANCH  16  17
HETATM   17  C3  UNL     1      27.768   7.204  48.090  1.00  0.00     0.271 C 
BRANCH  17  18
HETATM   18  N1  UNL     1      28.951   7.862  48.584  1.00  0.00     0.080 N 
HETATM   19  C1  UNL     1      28.620   9.059  49.309  1.00  0.00     0.309 C 
HETATM   20  C2  UNL     1      29.851   8.215  47.527  1.00  0.00     0.309 C 
ENDBRANCH  17  18
ENDBRANCH  16  17
ENDBRANCH  15  16
ENDBRANCH  12  15
ENDBRANCH   1  11
BRANCH   8  21
HETATM   21  C14 UNL     1      22.112   1.250  52.779  1.00  0.00     0.067 A 
HETATM   22  C15 UNL     1      21.790   0.759  51.411  1.00  0.00    -0.011 A 
HETATM   23  C16 UNL     1      20.662   0.020  51.462  1.00  0.00     0.025 A 
HETATM   24  C17 UNL     1      20.151  -0.036  52.849  1.00  0.00     0.022 A 
HETATM   25  C18 UNL     1      21.012   0.687  53.587  1.00  0.00     0.015 A 
BRANCH  24  26
HETATM   26  N4  UNL     1      19.073  -0.602  53.578  1.00  0.00    -0.399 N 
HETATM   27  H21 UNL     1      18.972  -0.762  54.586  1.00  0.00     0.156 HD
HETATM   28  H22 UNL     1      18.204  -0.939  53.099  1.00  0.00     0.156 HD
ENDBRANCH  24  26
ENDBRANCH   8  21
TORSDOF 7
ENDMDL
MODEL 9
REMARK VINA RESULT:      -7.3      4.455      6.004
REMARK  7 active torsions:
REMARK  status: ('A' for Active; 'I' for Inactive)
REMARK    1  A    between atoms: N1_2  and  C3_4 
REMARK    2  A    between atoms: C3_4  and  C4_5 
REMARK    3  A    between atoms: C4_5  and  C5_6 
REMARK    4  A    between atoms: C5_6  and  C6_7 
REMARK       I    between atoms: C6_7  and  N2_9 
REMARK    5  A    between atoms: N2_9  and  C7_10 
REMARK    6  A    between atoms: C13_17  and  C14_18 
REMARK    7  A    between atoms: C17_21  and  N4_22 
ROOT
HETATM    1  C7  UNL     1      21.390   1.426  52.204  1.00  0.00     0.035 A 
HETATM    2  C8  UNL     1      20.310   0.993  52.979  1.00  0.00     0.032 A 
HETATM    3  C9  UNL     1      20.601   0.134  54.036  1.00  0.00     0.035 A 
HETATM    4  C10 UNL     1      21.891  -0.271  54.308  1.00  0.00     0.067 A 
HETATM    5  N3  UNL     1      22.146  -1.128  55.336  1.00  0.00    -0.260 NA
HETATM    6  C11 UNL     1      23.438  -1.514  55.550  1.00  0.00     0.118 A 
HETATM    7  C12 UNL     1      24.461  -1.063  54.769  1.00  0.00     0.028 A 
HETATM    8  C13 UNL     1      24.287  -0.182  53.697  1.00  0.00    -0.033 A 
HETATM    9  C19 UNL     1      22.959   0.151  53.551  1.00  0.00     0.002 A 
HETATM   10  C20 UNL     1      22.656   0.995  52.513  1.00  0.00     0.044 A 
ENDROOT
BRANCH   1  11
HETATM   11  N2  UNL     1      21.082   2.307  51.121  1.00  0.00    -0.327 N 
HETATM   12  C6  UNL     1      21.093   3.737  51.154  1.00  0.00     0.222 C 
HETATM   13  O1  UNL     1      21.424   4.056  52.304  1.00  0.00    -0.273 OA
HETATM   14  H13 UNL     1      20.871   1.562  50.390  1.00  0.00     0.169 HD
BRANCH  12  15
HETATM   15  C5  UNL     1      20.712   4.254  49.820  1.00  0.00     0.105 C 
BRANCH  15  16
HETATM   16  C4  UNL     1      19.302   3.796  49.490  1.00  0.00     0.039 C 
BRANCH  16  17
HETATM   17  C3  UNL     1      18.353   4.606  50.327  1.00  0.00     0.271 C 
BRANCH  17  18
HETATM   18  N1  UNL     1      17.658   3.758  51.261  1.00  0.00     0.080 N 
HETATM   19  C1  UNL     1      17.484   2.431  50.734  1.00  0.00     0.309 C 
HETATM   20  C2  UNL     1      16.366   4.276  51.601  1.00  0.00     0.309 C 
ENDBRANCH  17  18
ENDBRANCH  16  17
ENDBRANCH  15  16
ENDBRANCH  12  15
ENDBRANCH   1  11
BRANCH   8  21
HETATM   21  C14 UNL     1      25.448   0.284  52.970  1.00  0.00     0.067 A 
HETATM   22  C15 UNL     1      26.166   1.324  53.757  1.00  0.00    -0.011 A 
HETATM   23  C16 UNL     1      27.409   0.880  54.043  1.00  0.00     0.025 A 
HETATM   24  C17 UNL     1      27.611  -0.470  53.475  1.00  0.00     0.022 A 
HETATM   25  C18 UNL     1      26.458  -0.787  52.859  1.00  0.00     0.015 A 
BRANCH  24  26
HETATM   26  N4  UNL     1      28.619  -1.468  53.400  1.00  0.00    -0.399 N 
HETATM   27  H21 UNL     1      28.554  -2.447  53.102  1.00  0.00     0.156 HD
HETATM   28  H22 UNL     1      29.610  -1.267  53.670  1.00  0.00     0.156 HD
ENDBRANCH  24  26
ENDBRANCH   8  21
TORSDOF 7
ENDMDL
