MODEL 1
REMARK VINA RESULT:      -8.0      0.000      0.000
REMARK  4 active torsions:
REMARK  status: ('A' for Active; 'I' for Inactive)
REMARK    1  A    between atoms: C2_2  and  C3_3 
REMARK    2  A    between atoms: C9_12  and  N2_13 
REMARK    3  A    between atoms: N2_13  and  C10_14 
REMARK    4  A    between atoms: C10_14  and  C11_15 
ROOT
HETATM    1  C3  UNL     1      24.824   0.549  53.343  1.00  0.00     0.015 A 
HETATM    2  C4  UNL     1      24.533  -0.397  54.295  1.00  0.00     0.143 A 
HETATM    3  C5  UNL     1      23.463  -1.025  54.676  1.00  0.00     0.259 C 
HETATM    4  O1  UNL     1      22.382  -1.588  54.955  1.00  0.00    -0.281 OA
HETATM    5  O2  UNL     1      25.630  -0.703  54.943  1.00  0.00    -0.286 OA
HETATM    6  C6  UNL     1      26.666  -0.044  54.518  1.00  0.00     0.183 A 
HETATM    7  N1  UNL     1      27.943  -0.082  54.925  1.00  0.00    -0.236 NA
HETATM    8  C7  UNL     1      28.859   0.721  54.308  1.00  0.00     0.122 A 
HETATM    9  C8  UNL     1      28.383   1.524  53.294  1.00  0.00     0.049 A 
HETATM   10  C9  UNL     1      27.072   1.571  52.868  1.00  0.00     0.045 A 
HETATM   11  C16 UNL     1      26.175   0.750  53.509  1.00  0.00     0.056 A 
ENDROOT
BRANCH   1  12
HETATM   12  C2  UNL     1      23.930   1.060  52.528  1.00  0.00    -0.016 C 
HETATM   13  C1  UNL     1      23.374   2.356  52.895  1.00  0.00     0.037 C 
ENDBRANCH   1  12
BRANCH  10  14
HETATM   14  N2  UNL     1      26.728   2.452  51.837  1.00  0.00    -0.385 N 
HETATM   15  H7  UNL     1      26.596   3.420  52.111  1.00  0.00     0.160 HD
BRANCH  14  16
HETATM   16  C10 UNL     1      26.493   2.382  50.421  1.00  0.00     0.160 C 
BRANCH  16  17
HETATM   17  C11 UNL     1      26.492   3.758  49.871  1.00  0.00    -0.023 A 
HETATM   18  C12 UNL     1      27.285   4.448  48.982  1.00  0.00     0.012 A 
HETATM   19  C13 UNL     1      26.992   5.749  48.653  1.00  0.00     0.020 A 
HETATM   20  C14 UNL     1      25.928   6.469  49.151  1.00  0.00     0.116 A 
HETATM   21  N3  UNL     1      25.148   5.798  50.022  1.00  0.00    -0.273 NA
HETATM   22  C15 UNL     1      25.420   4.525  50.356  1.00  0.00     0.124 A 
ENDBRANCH  16  17
ENDBRANCH  14  16
ENDBRANCH  10  14
TORSDOF 4
ENDMDL
MODEL 2
REMARK VINA RESULT:      -7.7      1.244      1.562
REMARK  4 active torsions:
REMARK  status: ('A' for Active; 'I' for Inactive)
REMARK    1  A    between atoms: C2_2  and  C3_3 
REMARK    2  A    between atoms: C9_12  and  N2_13 
REMARK    3  A    between atoms: N2_13  and  C10_14 
REMARK    4  A    between atoms: C10_14  and  C11_15 
ROOT
HETATM    1  C3  UNL     1      23.945   0.162  53.158  1.00  0.00     0.015 A 
HETATM    2  C4  UNL     1      23.616  -0.647  54.218  1.00  0.00     0.143 A 
HETATM    3  C5  UNL     1      22.521  -1.167  54.677  1.00  0.00     0.259 C 
HETATM    4  O1  UNL     1      21.415  -1.635  55.029  1.00  0.00    -0.281 OA
HETATM    5  O2  UNL     1      24.704  -0.932  54.890  1.00  0.00    -0.286 OA
HETATM    6  C6  UNL     1      25.768  -0.384  54.383  1.00  0.00     0.183 A 
HETATM    7  N1  UNL     1      27.046  -0.442  54.784  1.00  0.00    -0.236 NA
HETATM    8  C7  UNL     1      27.995   0.232  54.070  1.00  0.00     0.122 A 
HETATM    9  C8  UNL     1      27.548   0.933  52.970  1.00  0.00     0.049 A 
HETATM   10  C9  UNL     1      26.236   0.999  52.550  1.00  0.00     0.045 A 
HETATM   11  C16 UNL     1      25.306   0.309  53.290  1.00  0.00     0.056 A 
ENDROOT
BRANCH   1  12
HETATM   12  C2  UNL     1      23.068   0.620  52.294  1.00  0.00    -0.016 C 
HETATM   13  C1  UNL     1      22.483   1.922  52.582  1.00  0.00     0.037 C 
ENDBRANCH   1  12
BRANCH  10  14
HETATM   14  N2  UNL     1      25.926   1.769  51.424  1.00  0.00    -0.385 N 
HETATM   15  H7  UNL     1      25.061   1.527  50.950  1.00  0.00     0.160 HD
BRANCH  14  16
HETATM   16  C10 UNL     1      26.507   2.866  50.700  1.00  0.00     0.160 C 
BRANCH  16  17
HETATM   17  C11 UNL     1      25.436   3.558  49.944  1.00  0.00    -0.023 A 
HETATM   18  C12 UNL     1      24.158   3.229  49.552  1.00  0.00     0.012 A 
HETATM   19  C13 UNL     1      23.389   4.132  48.859  1.00  0.00     0.020 A 
HETATM   20  C14 UNL     1      23.792   5.399  48.499  1.00  0.00     0.116 A 
HETATM   21  N3  UNL     1      25.043   5.726  48.880  1.00  0.00    -0.273 NA
HETATM   22  C15 UNL     1      25.810   4.855  49.558  1.00  0.00     0.124 A 
ENDBRANCH  16  17
ENDBRANCH  14  16
ENDBRANCH  10  14
TORSDOF 4
ENDMDL
MODEL 3
REMARK VINA RESULT:      -7.6      2.134      3.844
REMARK  4 active torsions:
REMARK  status: ('A' for Active; 'I' for Inactive)
REMARK    1  A    between atoms: C2_2  and  C3_3 
REMARK    2  A    between atoms: C9_12  and  N2_13 
REMARK    3  A    between atoms: N2_13  and  C10_14 
REMARK    4  A    between atoms: C10_14  and  C11_15 
ROOT
HETATM    1  C3  UNL     1      26.008   0.210  52.997  1.00  0.00     0.015 A 
HETATM    2  C4  UNL     1      26.907  -0.251  53.927  1.00  0.00     0.143 A 
HETATM    3  C5  UNL     1      28.199  -0.240  54.047  1.00  0.00     0.259 C 
HETATM    4  O1  UNL     1      29.447  -0.161  54.078  1.00  0.00    -0.281 OA
HETATM    5  O2  UNL     1      26.253  -0.829  54.904  1.00  0.00    -0.286 OA
HETATM    6  C6  UNL     1      24.965  -0.809  54.728  1.00  0.00     0.183 A 
HETATM    7  N1  UNL     1      23.979  -1.294  55.497  1.00  0.00    -0.236 NA
HETATM    8  C7  UNL     1      22.685  -1.144  55.087  1.00  0.00     0.122 A 
HETATM    9  C8  UNL     1      22.496  -0.493  53.887  1.00  0.00     0.049 A 
HETATM   10  C9  UNL     1      23.504   0.009  53.089  1.00  0.00     0.045 A 
HETATM   11  C16 UNL     1      24.794  -0.158  53.530  1.00  0.00     0.056 A 
ENDROOT
BRANCH   1  12
HETATM   12  C2  UNL     1      26.357   0.838  51.898  1.00  0.00    -0.016 C 
HETATM   13  C1  UNL     1      26.657   2.258  52.022  1.00  0.00     0.037 C 
ENDBRANCH   1  12
BRANCH  10  14
HETATM   14  N2  UNL     1      23.163   0.631  51.883  1.00  0.00    -0.385 N 
HETATM   15  H7  UNL     1      23.616   0.260  51.053  1.00  0.00     0.160 HD
BRANCH  14  16
HETATM   16  C10 UNL     1      22.310   1.704  51.451  1.00  0.00     0.160 C 
BRANCH  16  17
HETATM   17  C11 UNL     1      23.150   2.776  50.869  1.00  0.00    -0.023 A 
HETATM   18  C12 UNL     1      23.792   2.960  49.664  1.00  0.00     0.012 A 
HETATM   19  C13 UNL     1      24.494   4.115  49.419  1.00  0.00     0.020 A 
HETATM   20  C14 UNL     1      24.628   5.160  50.307  1.00  0.00     0.116 A 
HETATM   21  N3  UNL     1      24.003   4.985  51.488  1.00  0.00    -0.273 NA
HETATM   22  C15 UNL     1      23.311   3.862  51.745  1.00  0.00     0.124 A 
ENDBRANCH  16  17
ENDBRANCH  14  16
ENDBRANCH  10  14
TORSDOF 4
ENDMDL
MODEL 4
REMARK VINA RESULT:      -7.5      3.526      5.907
REMARK  4 active torsions:
REMARK  status: ('A' for Active; 'I' for Inactive)
REMARK    1  A    between atoms: C2_2  and  C3_3 
REMARK    2  A    between atoms: C9_12  and  N2_13 
REMARK    3  A    between atoms: N2_13  and  C10_14 
REMARK    4  A    between atoms: C10_14  and  C11_15 
ROOT
HETATM    1  C3  UNL     1      22.944   1.700  52.506  1.00  0.00     0.015 A 
HETATM    2  C4  UNL     1      21.776   2.345  52.180  1.00  0.00     0.143 A 
HETATM    3  C5  UNL     1      21.470   3.449  51.572  1.00  0.00     0.259 C 
HETATM    4  O1  UNL     1      21.279   4.521  50.958  1.00  0.00    -0.281 OA
HETATM    5  O2  UNL     1      20.762   1.633  52.607  1.00  0.00    -0.286 OA
HETATM    6  C6  UNL     1      21.131   0.540  53.207  1.00  0.00     0.183 A 
HETATM    7  N1  UNL     1      20.395  -0.428  53.770  1.00  0.00    -0.236 NA
HETATM    8  C7  UNL     1      21.029  -1.492  54.345  1.00  0.00     0.122 A 
HETATM    9  C8  UNL     1      22.406  -1.480  54.298  1.00  0.00     0.049 A 
HETATM   10  C9  UNL     1      23.172  -0.488  53.721  1.00  0.00     0.045 A 
HETATM   11  C16 UNL     1      22.504   0.568  53.151  1.00  0.00     0.056 A 
ENDROOT
BRANCH   1  12
HETATM   12  C2  UNL     1      24.137   2.164  52.211  1.00  0.00    -0.016 C 
HETATM   13  C1  UNL     1      24.778   3.005  53.213  1.00  0.00     0.037 C 
ENDBRANCH   1  12
BRANCH  10  14
HETATM   14  N2  UNL     1      24.566  -0.600  53.767  1.00  0.00    -0.385 N 
HETATM   15  H7  UNL     1      25.018  -0.161  54.563  1.00  0.00     0.160 HD
BRANCH  14  16
HETATM   16  C10 UNL     1      25.606  -1.189  52.968  1.00  0.00     0.160 C 
BRANCH  16  17
HETATM   17  C11 UNL     1      26.913  -0.653  53.418  1.00  0.00    -0.023 A 
HETATM   18  C12 UNL     1      28.226  -0.892  53.083  1.00  0.00     0.012 A 
HETATM   19  C13 UNL     1      29.238  -0.187  53.687  1.00  0.00     0.020 A 
HETATM   20  C14 UNL     1      29.059   0.785  54.647  1.00  0.00     0.116 A 
HETATM   21  N3  UNL     1      27.774   1.022  54.980  1.00  0.00    -0.273 NA
HETATM   22  C15 UNL     1      26.771   0.343  54.398  1.00  0.00     0.124 A 
ENDBRANCH  16  17
ENDBRANCH  14  16
ENDBRANCH  10  14
TORSDOF 4
ENDMDL
MODEL 5
REMARK VINA RESULT:      -7.4      3.450      5.474
REMARK  4 active torsions:
REMARK  status: ('A' for Active; 'I' for Inactive)
REMARK    1  A    between atoms: C2_2  and  C3_3 
REMARK    2  A    between atoms: C9_12  and  N2_13 
REMARK    3  A    between atoms: N2_13  and  C10_14 
REMARK    4  A    between atoms: C10_14  and  C11_15 
ROOT
HETATM    1  C3  UNL     1      21.414   0.665  52.408  1.00  0.00     0.015 A 
HETATM    2  C4  UNL     1      20.145   0.181  52.611  1.00  0.00     0.143 A 
HETATM    3  C5  UNL     1      18.982   0.382  52.073  1.00  0.00     0.259 C 
HETATM    4  O1  UNL     1      17.912   0.633  51.476  1.00  0.00    -0.281 OA
HETATM    5  O2  UNL     1      20.172  -0.688  53.592  1.00  0.00    -0.286 OA
HETATM    6  C6  UNL     1      21.362  -0.848  54.091  1.00  0.00     0.183 A 
HETATM    7  N1  UNL     1      21.783  -1.636  55.089  1.00  0.00    -0.236 NA
HETATM    8  C7  UNL     1      23.105  -1.624  55.430  1.00  0.00     0.122 A 
HETATM    9  C8  UNL     1      23.916  -0.781  54.702  1.00  0.00     0.049 A 
HETATM   10  C9  UNL     1      23.492   0.035  53.673  1.00  0.00     0.045 A 
HETATM   11  C16 UNL     1      22.156  -0.001  53.355  1.00  0.00     0.056 A 
ENDROOT
BRANCH   1  12
HETATM   12  C2  UNL     1      21.713   1.555  51.489  1.00  0.00    -0.016 C 
HETATM   13  C1  UNL     1      21.942   1.053  50.141  1.00  0.00     0.037 C 
ENDBRANCH   1  12
BRANCH  10  14
HETATM   14  N2  UNL     1      24.427   0.856  53.034  1.00  0.00    -0.385 N 
HETATM   15  H7  UNL     1      24.471   1.815  53.367  1.00  0.00     0.160 HD
BRANCH  14  16
HETATM   16  C10 UNL     1      25.400   0.733  51.984  1.00  0.00     0.160 C 
BRANCH  16  17
HETATM   17  C11 UNL     1      26.718   0.426  52.590  1.00  0.00    -0.023 A 
HETATM   18  C12 UNL     1      27.753   1.180  53.093  1.00  0.00     0.012 A 
HETATM   19  C13 UNL     1      28.865   0.571  53.623  1.00  0.00     0.020 A 
HETATM   20  C14 UNL     1      29.055  -0.791  53.703  1.00  0.00     0.116 A 
HETATM   21  N3  UNL     1      28.044  -1.534  53.211  1.00  0.00    -0.273 NA
HETATM   22  C15 UNL     1      26.950  -0.956  52.689  1.00  0.00     0.124 A 
ENDBRANCH  16  17
ENDBRANCH  14  16
ENDBRANCH  10  14
TORSDOF 4
ENDMDL
MODEL 6
REMARK VINA RESULT:      -7.3      2.501      5.559
REMARK  4 active torsions:
REMARK  status: ('A' for Active; 'I' for Inactive)
REMARK    1  A    between atoms: C2_2  and  C3_3 
REMARK    2  A    between atoms: C9_12  and  N2_13 
REMARK    3  A    between atoms: N2_13  and  C10_14 
REMARK    4  A    between atoms: C10_14  and  C11_15 
ROOT
HETATM    1  C3  UNL     1      23.244   1.370  52.100  1.00  0.00     0.015 A 
HETATM    2  C4  UNL     1      22.143   1.305  51.283  1.00  0.00     0.143 A 
HETATM    3  C5  UNL     1      20.971   0.753  51.355  1.00  0.00     0.259 C 
HETATM    4  O1  UNL     1      19.863   0.200  51.529  1.00  0.00    -0.281 OA
HETATM    5  O2  UNL     1      22.386   1.975  50.183  1.00  0.00    -0.286 OA
HETATM    6  C6  UNL     1      23.574   2.504  50.169  1.00  0.00     0.183 A 
HETATM    7  N1  UNL     1      24.178   3.248  49.232  1.00  0.00    -0.236 NA
HETATM    8  C7  UNL     1      25.450   3.692  49.458  1.00  0.00     0.122 A 
HETATM    9  C8  UNL     1      26.020   3.327  50.658  1.00  0.00     0.049 A 
HETATM   10  C9  UNL     1      25.406   2.562  51.628  1.00  0.00     0.045 A 
HETATM   11  C16 UNL     1      24.127   2.132  51.371  1.00  0.00     0.056 A 
ENDROOT
BRANCH   1  12
HETATM   12  C2  UNL     1      23.309   0.796  53.280  1.00  0.00    -0.016 C 
HETATM   13  C1  UNL     1      23.291  -0.661  53.300  1.00  0.00     0.037 C 
ENDBRANCH   1  12
BRANCH  10  14
HETATM   14  N2  UNL     1      26.117   2.252  52.793  1.00  0.00    -0.385 N 
HETATM   15  H7  UNL     1      25.614   2.390  53.665  1.00  0.00     0.160 HD
BRANCH  14  16
HETATM   16  C10 UNL     1      27.425   1.767  53.136  1.00  0.00     0.160 C 
BRANCH  16  17
HETATM   17  C11 UNL     1      27.451   0.297  52.955  1.00  0.00    -0.023 A 
HETATM   18  C12 UNL     1      26.648  -0.614  52.306  1.00  0.00     0.012 A 
HETATM   19  C13 UNL     1      26.970  -1.950  52.306  1.00  0.00     0.020 A 
HETATM   20  C14 UNL     1      28.074  -2.495  52.925  1.00  0.00     0.116 A 
HETATM   21  N3  UNL     1      28.862  -1.608  53.562  1.00  0.00    -0.273 NA
HETATM   22  C15 UNL     1      28.563  -0.297  53.573  1.00  0.00     0.124 A 
ENDBRANCH  16  17
ENDBRANCH  14  16
ENDBRANCH  10  14
TORSDOF 4
ENDMDL
MODEL 7
REMARK VINA RESULT:      -7.3      2.941      5.599
REMARK  4 active torsions:
REMARK  status: ('A' for Active; 'I' for Inactive)
REMARK    1  A    between atoms: C2_2  and  C3_3 
REMARK    2  A    between atoms: C9_12  and  N2_13 
REMARK    3  A    between atoms: N2_13  and  C10_14 
REMARK    4  A    between atoms: C10_14  and  C11_15 
ROOT
HETATM    1  C3  UNL     1      22.043   1.047  52.035  1.00  0.00     0.015 A 
HETATM    2  C4  UNL     1      20.820   0.452  51.843  1.00  0.00     0.143 A 
HETATM    3  C5  UNL     1      19.990  -0.211  52.587  1.00  0.00     0.259 C 
HETATM    4  O1  UNL     1      19.250  -0.822  53.389  1.00  0.00    -0.281 OA
HETATM    5  O2  UNL     1      20.450   0.627  50.599  1.00  0.00    -0.286 OA
HETATM    6  C6  UNL     1      21.321   1.298  49.904  1.00  0.00     0.183 A 
HETATM    7  N1  UNL     1      21.299   1.670  48.617  1.00  0.00    -0.236 NA
HETATM    8  C7  UNL     1      22.352   2.380  48.115  1.00  0.00     0.122 A 
HETATM    9  C8  UNL     1      23.375   2.661  48.996  1.00  0.00     0.049 A 
HETATM   10  C9  UNL     1      23.406   2.283  50.322  1.00  0.00     0.045 A 
HETATM   11  C16 UNL     1      22.332   1.570  50.795  1.00  0.00     0.056 A 
ENDROOT
BRANCH   1  12
HETATM   12  C2  UNL     1      22.681   1.044  53.183  1.00  0.00    -0.016 C 
HETATM   13  C1  UNL     1      23.375  -0.185  53.544  1.00  0.00     0.037 C 
ENDBRANCH   1  12
BRANCH  10  14
HETATM   14  N2  UNL     1      24.522   2.622  51.094  1.00  0.00    -0.385 N 
HETATM   15  H7  UNL     1      24.327   3.133  51.950  1.00  0.00     0.160 HD
BRANCH  14  16
HETATM   16  C10 UNL     1      25.947   2.447  51.027  1.00  0.00     0.160 C 
BRANCH  16  17
HETATM   17  C11 UNL     1      26.357   1.475  52.068  1.00  0.00    -0.023 A 
HETATM   18  C12 UNL     1      26.772   0.162  52.060  1.00  0.00     0.012 A 
HETATM   19  C13 UNL     1      27.113  -0.467  53.232  1.00  0.00     0.020 A 
HETATM   20  C14 UNL     1      27.077   0.116  54.480  1.00  0.00     0.116 A 
HETATM   21  N3  UNL     1      26.671   1.401  54.494  1.00  0.00    -0.273 NA
HETATM   22  C15 UNL     1      26.334   2.033  53.357  1.00  0.00     0.124 A 
ENDBRANCH  16  17
ENDBRANCH  14  16
ENDBRANCH  10  14
TORSDOF 4
ENDMDL
MODEL 8
REMARK VINA RESULT:      -7.1      4.401      7.154
REMARK  4 active torsions:
REMARK  status: ('A' for Active; 'I' for Inactive)
REMARK    1  A    between atoms: C2_2  and  C3_3 
REMARK    2  A    between atoms: C9_12  and  N2_13 
REMARK    3  A    between atoms: N2_13  and  C10_14 
REMARK    4  A    between atoms: C10_14  and  C11_15 
ROOT
HETATM    1  C3  UNL     1      23.296   0.367  53.091  1.00  0.00     0.015 A 
HETATM    2  C4  UNL     1      24.628   0.508  53.394  1.00  0.00     0.143 A 
HETATM    3  C5  UNL     1      25.580  -0.291  53.766  1.00  0.00     0.259 C 
HETATM    4  O1  UNL     1      26.430  -1.144  54.103  1.00  0.00    -0.281 OA
HETATM    5  O2  UNL     1      24.966   1.767  53.259  1.00  0.00    -0.286 OA
HETATM    6  C6  UNL     1      23.973   2.518  52.885  1.00  0.00     0.183 A 
HETATM    7  N1  UNL     1      23.926   3.836  52.646  1.00  0.00    -0.236 NA
HETATM    8  C7  UNL     1      22.744   4.397  52.258  1.00  0.00     0.122 A 
HETATM    9  C8  UNL     1      21.670   3.541  52.143  1.00  0.00     0.049 A 
HETATM   10  C9  UNL     1      21.708   2.184  52.386  1.00  0.00     0.045 A 
HETATM   11  C16 UNL     1      22.912   1.650  52.775  1.00  0.00     0.056 A 
ENDROOT
BRANCH   1  12
HETATM   12  C2  UNL     1      22.659  -0.780  53.132  1.00  0.00    -0.016 C 
HETATM   13  C1  UNL     1      21.988  -1.112  54.382  1.00  0.00     0.037 C 
ENDBRANCH   1  12
BRANCH  10  14
HETATM   14  N2  UNL     1      20.531   1.440  52.248  1.00  0.00    -0.385 N 
HETATM   15  H7  UNL     1      19.959   1.359  53.083  1.00  0.00     0.160 HD
BRANCH  14  16
HETATM   16  C10 UNL     1      19.854   0.715  51.207  1.00  0.00     0.160 C 
BRANCH  16  17
HETATM   17  C11 UNL     1      18.787  -0.110  51.818  1.00  0.00    -0.023 A 
HETATM   18  C12 UNL     1      18.657  -0.812  52.996  1.00  0.00     0.012 A 
HETATM   19  C13 UNL     1      17.490  -1.476  53.285  1.00  0.00     0.020 A 
HETATM   20  C14 UNL     1      16.380  -1.513  52.470  1.00  0.00     0.116 A 
HETATM   21  N3  UNL     1      16.502  -0.828  51.316  1.00  0.00    -0.273 NA
HETATM   22  C15 UNL     1      17.636  -0.172  51.016  1.00  0.00     0.124 A 
ENDBRANCH  16  17
ENDBRANCH  14  16
ENDBRANCH  10  14
TORSDOF 4
ENDMDL
MODEL 9
REMARK VINA RESULT:      -7.0      2.913      5.921
REMARK  4 active torsions:
REMARK  status: ('A' for Active; 'I' for Inactive)
REMARK    1  A    between atoms: C2_2  and  C3_3 
REMARK    2  A    between atoms: C9_12  and  N2_13 
REMARK    3  A    between atoms: N2_13  and  C10_14 
REMARK    4  A    between atoms: C10_14  and  C11_15 
ROOT
HETATM    1  C3  UNL     1      21.874   2.277  51.872  1.00  0.00     0.015 A 
HETATM    2  C4  UNL     1      21.055   3.339  51.578  1.00  0.00     0.143 A 
HETATM    3  C5  UNL     1      19.791   3.597  51.716  1.00  0.00     0.259 C 
HETATM    4  O1  UNL     1      18.566   3.754  51.910  1.00  0.00    -0.281 OA
HETATM    5  O2  UNL     1      21.770   4.291  51.032  1.00  0.00    -0.286 OA
HETATM    6  C6  UNL     1      23.027   3.977  50.920  1.00  0.00     0.183 A 
HETATM    7  N1  UNL     1      24.053   4.678  50.419  1.00  0.00    -0.236 NA
HETATM    8  C7  UNL     1      25.299   4.118  50.415  1.00  0.00     0.122 A 
HETATM    9  C8  UNL     1      25.398   2.847  50.938  1.00  0.00     0.049 A 
HETATM   10  C9  UNL     1      24.348   2.117  51.456  1.00  0.00     0.045 A 
HETATM   11  C16 UNL     1      23.108   2.709  51.446  1.00  0.00     0.056 A 
ENDROOT
BRANCH   1  12
HETATM   12  C2  UNL     1      21.451   1.165  52.430  1.00  0.00    -0.016 C 
HETATM   13  C1  UNL     1      21.083   0.080  51.531  1.00  0.00     0.037 C 
ENDBRANCH   1  12
BRANCH  10  14
HETATM   14  N2  UNL     1      24.595   0.826  51.936  1.00  0.00    -0.385 N 
HETATM   15  H7  UNL     1      24.703   0.106  51.228  1.00  0.00     0.160 HD
BRANCH  14  16
HETATM   16  C10 UNL     1      24.749   0.185  53.213  1.00  0.00     0.160 C 
BRANCH  16  17
HETATM   17  C11 UNL     1      26.188  -0.094  53.435  1.00  0.00    -0.023 A 
HETATM   18  C12 UNL     1      27.147  -0.825  52.772  1.00  0.00     0.012 A 
HETATM   19  C13 UNL     1      28.439  -0.863  53.238  1.00  0.00     0.020 A 
HETATM   20  C14 UNL     1      28.891  -0.209  54.363  1.00  0.00     0.116 A 
HETATM   21  N3  UNL     1      27.955   0.508  55.016  1.00  0.00    -0.273 NA
HETATM   22  C15 UNL     1      26.687   0.557  54.575  1.00  0.00     0.124 A 
ENDBRANCH  16  17
ENDBRANCH  14  16
ENDBRANCH  10  14
TORSDOF 4
ENDMDL
