MODEL 1
REMARK VINA RESULT:      -8.7      0.000      0.000
REMARK  2 active torsions:
REMARK  status: ('A' for Active; 'I' for Inactive)
REMARK    1  A    between atoms: N1_1  and  C1_2 
REMARK    2  A    between atoms: C3_4  and  O1_5 
ROOT
HETATM    1  C1  UNL     1      24.081  -0.890  54.628  1.00  0.00     0.036 C 
HETATM    2  C2  UNL     1      22.824  -1.296  54.734  1.00  0.00     0.044 C 
HETATM    3  C3  UNL     1      21.510  -1.383  54.014  1.00  0.00     0.235 C 
HETATM    4  C4  UNL     1      21.416  -0.157  53.120  1.00  0.00     0.250 C 
HETATM    5  O2  UNL     1      21.111   0.938  52.612  1.00  0.00    -0.270 OA
HETATM    6  N2  UNL     1      22.276  -0.172  51.988  1.00  0.00    -0.354 N 
HETATM    7  C5  UNL     1      22.305   0.960  51.079  1.00  0.00     0.162 C 
HETATM    8  C6  UNL     1      22.710   2.190  51.833  1.00  0.00    -0.029 A 
HETATM    9  C7  UNL     1      22.114   3.422  51.831  1.00  0.00     0.010 A 
HETATM   10  C8  UNL     1      22.621   4.471  52.559  1.00  0.00     0.001 A 
HETATM   11  C9  UNL     1      23.752   4.374  53.337  1.00  0.00     0.001 A 
HETATM   12  C10 UNL     1      24.342   3.098  53.320  1.00  0.00     0.013 A 
HETATM   13  C11 UNL     1      23.865   2.017  52.606  1.00  0.00    -0.017 A 
HETATM   14  C12 UNL     1      24.772   0.869  52.850  1.00  0.00    -0.013 A 
HETATM   15  C13 UNL     1      25.776   1.166  51.949  1.00  0.00     0.013 A 
HETATM   16  C14 UNL     1      26.928   0.392  51.725  1.00  0.00     0.001 A 
HETATM   17  C15 UNL     1      27.106  -0.765  52.446  1.00  0.00     0.001 A 
HETATM   18  C16 UNL     1      26.056  -1.014  53.346  1.00  0.00     0.014 A 
HETATM   19  C17 UNL     1      24.899  -0.257  53.586  1.00  0.00     0.001 A 
HETATM   20  H6  UNL     1      22.895  -0.966  51.745  1.00  0.00     0.162 HD
ENDROOT
BRANCH   1  21
HETATM   21  N1  UNL     1      24.905  -1.128  55.817  1.00  0.00    -0.399 N 
HETATM   22  H1  UNL     1      25.738  -1.750  55.897  1.00  0.00     0.156 HD
HETATM   23  H2  UNL     1      24.634  -0.615  56.700  1.00  0.00     0.156 HD
ENDBRANCH   1  21
BRANCH   3  24
HETATM   24  O1  UNL     1      20.454  -1.367  54.884  1.00  0.00    -0.382 OA
HETATM   25  H5  UNL     1      20.723  -1.086  55.773  1.00  0.00     0.211 HD
ENDBRANCH   3  24
TORSDOF 2
ENDMDL
MODEL 2
REMARK VINA RESULT:      -8.2      2.357      4.377
REMARK  2 active torsions:
REMARK  status: ('A' for Active; 'I' for Inactive)
REMARK    1  A    between atoms: N1_1  and  C1_2 
REMARK    2  A    between atoms: C3_4  and  O1_5 
ROOT
HETATM    1  C1  UNL     1      25.366   0.103  52.788  1.00  0.00     0.036 C 
HETATM    2  C2  UNL     1      26.215   1.080  52.506  1.00  0.00     0.044 C 
HETATM    3  C3  UNL     1      26.355   2.570  52.381  1.00  0.00     0.235 C 
HETATM    4  C4  UNL     1      25.021   3.098  51.880  1.00  0.00     0.250 C 
HETATM    5  O2  UNL     1      24.103   3.578  51.188  1.00  0.00    -0.270 OA
HETATM    6  N2  UNL     1      23.965   3.066  52.831  1.00  0.00    -0.354 N 
HETATM    7  C5  UNL     1      22.634   3.508  52.458  1.00  0.00     0.162 C 
HETATM    8  C6  UNL     1      22.132   2.668  51.325  1.00  0.00    -0.029 A 
HETATM    9  C7  UNL     1      21.561   3.079  50.151  1.00  0.00     0.010 A 
HETATM   10  C8  UNL     1      21.120   2.181  49.209  1.00  0.00     0.001 A 
HETATM   11  C9  UNL     1      21.213   0.817  49.363  1.00  0.00     0.001 A 
HETATM   12  C10 UNL     1      21.803   0.425  50.577  1.00  0.00     0.013 A 
HETATM   13  C11 UNL     1      22.261   1.291  51.549  1.00  0.00    -0.017 A 
HETATM   14  C12 UNL     1      22.802   0.482  52.669  1.00  0.00    -0.013 A 
HETATM   15  C13 UNL     1      21.627   0.180  53.331  1.00  0.00     0.013 A 
HETATM   16  C14 UNL     1      21.526  -0.574  54.512  1.00  0.00     0.001 A 
HETATM   17  C15 UNL     1      22.671  -1.073  55.087  1.00  0.00     0.001 A 
HETATM   18  C16 UNL     1      23.832  -0.736  54.370  1.00  0.00     0.014 A 
HETATM   19  C17 UNL     1      23.957   0.015  53.191  1.00  0.00     0.001 A 
HETATM   20  H6  UNL     1      24.084   2.754  53.812  1.00  0.00     0.162 HD
ENDROOT
BRANCH   1  21
HETATM   21  N1  UNL     1      25.936  -1.246  52.709  1.00  0.00    -0.399 N 
HETATM   22  H1  UNL     1      26.694  -1.578  52.076  1.00  0.00     0.156 HD
HETATM   23  H2  UNL     1      25.540  -1.974  53.365  1.00  0.00     0.156 HD
ENDBRANCH   1  21
BRANCH   3  24
HETATM   24  O1  UNL     1      27.325   2.913  51.480  1.00  0.00    -0.382 OA
HETATM   25  H5  UNL     1      28.155   2.439  51.644  1.00  0.00     0.211 HD
ENDBRANCH   3  24
TORSDOF 2
ENDMDL
MODEL 3
REMARK VINA RESULT:      -7.7      2.451      5.628
REMARK  2 active torsions:
REMARK  status: ('A' for Active; 'I' for Inactive)
REMARK    1  A    between atoms: N1_1  and  C1_2 
REMARK    2  A    between atoms: C3_4  and  O1_5 
ROOT
HETATM    1  C1  UNL     1      21.533   4.219  51.343  1.00  0.00     0.036 C 
HETATM    2  C2  UNL     1      22.403   4.893  52.081  1.00  0.00     0.044 C 
HETATM    3  C3  UNL     1      23.792   4.868  52.649  1.00  0.00     0.235 C 
HETATM    4  C4  UNL     1      24.119   3.414  52.949  1.00  0.00     0.250 C 
HETATM    5  O2  UNL     1      24.354   2.327  53.510  1.00  0.00    -0.270 OA
HETATM    6  N2  UNL     1      24.346   2.601  51.805  1.00  0.00    -0.354 N 
HETATM    7  C5  UNL     1      24.629   1.186  51.962  1.00  0.00     0.162 C 
HETATM    8  C6  UNL     1      23.481   0.524  52.660  1.00  0.00    -0.029 A 
HETATM    9  C7  UNL     1      23.515  -0.325  53.733  1.00  0.00     0.010 A 
HETATM   10  C8  UNL     1      22.370  -0.879  54.252  1.00  0.00     0.001 A 
HETATM   11  C9  UNL     1      21.114  -0.632  53.746  1.00  0.00     0.001 A 
HETATM   12  C10 UNL     1      21.111   0.244  52.646  1.00  0.00     0.013 A 
HETATM   13  C11 UNL     1      22.235   0.824  52.095  1.00  0.00    -0.017 A 
HETATM   14  C12 UNL     1      21.803   1.668  50.954  1.00  0.00    -0.013 A 
HETATM   15  C13 UNL     1      21.685   0.700  49.976  1.00  0.00     0.013 A 
HETATM   16  C14 UNL     1      21.310   0.929  48.640  1.00  0.00     0.001 A 
HETATM   17  C15 UNL     1      21.028   2.213  48.237  1.00  0.00     0.001 A 
HETATM   18  C16 UNL     1      21.164   3.153  49.273  1.00  0.00     0.014 A 
HETATM   19  C17 UNL     1      21.537   2.947  50.610  1.00  0.00     0.001 A 
HETATM   20  H6  UNL     1      24.340   2.960  50.834  1.00  0.00     0.162 HD
ENDROOT
BRANCH   1  21
HETATM   21  N1  UNL     1      20.234   4.877  51.172  1.00  0.00    -0.399 N 
HETATM   22  H1  UNL     1      19.901   5.417  50.345  1.00  0.00     0.156 HD
HETATM   23  H2  UNL     1      19.548   4.801  51.972  1.00  0.00     0.156 HD
ENDBRANCH   1  21
BRANCH   3  24
HETATM   24  O1  UNL     1      23.875   5.581  53.814  1.00  0.00    -0.382 OA
HETATM   25  H5  UNL     1      24.706   5.408  54.285  1.00  0.00     0.211 HD
ENDBRANCH   3  24
TORSDOF 2
ENDMDL
MODEL 4
REMARK VINA RESULT:      -7.5      1.913      2.601
REMARK  2 active torsions:
REMARK  status: ('A' for Active; 'I' for Inactive)
REMARK    1  A    between atoms: N1_1  and  C1_2 
REMARK    2  A    between atoms: C3_4  and  O1_5 
ROOT
HETATM    1  C1  UNL     1      21.190   0.172  53.520  1.00  0.00     0.036 C 
HETATM    2  C2  UNL     1      20.030   0.076  52.888  1.00  0.00     0.044 C 
HETATM    3  C3  UNL     1      19.369   0.148  51.542  1.00  0.00     0.235 C 
HETATM    4  C4  UNL     1      20.134   1.180  50.731  1.00  0.00     0.250 C 
HETATM    5  O2  UNL     1      20.484   2.205  50.115  1.00  0.00    -0.270 OA
HETATM    6  N2  UNL     1      21.429   0.773  50.307  1.00  0.00    -0.354 N 
HETATM    7  C5  UNL     1      22.271   1.687  49.557  1.00  0.00     0.162 C 
HETATM    8  C6  UNL     1      22.523   2.915  50.377  1.00  0.00    -0.029 A 
HETATM    9  C7  UNL     1      22.405   4.225  50.001  1.00  0.00     0.010 A 
HETATM   10  C8  UNL     1      22.700   5.254  50.864  1.00  0.00     0.001 A 
HETATM   11  C9  UNL     1      23.132   5.056  52.155  1.00  0.00     0.001 A 
HETATM   12  C10 UNL     1      23.244   3.701  52.513  1.00  0.00     0.013 A 
HETATM   13  C11 UNL     1      22.956   2.638  51.680  1.00  0.00    -0.017 A 
HETATM   14  C12 UNL     1      23.210   1.384  52.431  1.00  0.00    -0.013 A 
HETATM   15  C13 UNL     1      24.578   1.286  52.271  1.00  0.00     0.013 A 
HETATM   16  C14 UNL     1      25.387   0.252  52.774  1.00  0.00     0.001 A 
HETATM   17  C15 UNL     1      24.803  -0.765  53.491  1.00  0.00     0.001 A 
HETATM   18  C16 UNL     1      23.412  -0.611  53.622  1.00  0.00     0.014 A 
HETATM   19  C17 UNL     1      22.585   0.411  53.130  1.00  0.00     0.001 A 
HETATM   20  H6  UNL     1      21.823  -0.168  50.486  1.00  0.00     0.162 HD
ENDROOT
BRANCH   1  21
HETATM   21  N1  UNL     1      21.116  -0.019  54.972  1.00  0.00    -0.399 N 
HETATM   22  H1  UNL     1      21.841  -0.435  55.594  1.00  0.00     0.156 HD
HETATM   23  H2  UNL     1      20.231   0.299  55.454  1.00  0.00     0.156 HD
ENDBRANCH   1  21
BRANCH   3  24
HETATM   24  O1  UNL     1      18.066   0.552  51.640  1.00  0.00    -0.382 OA
HETATM   25  H5  UNL     1      17.690   0.775  50.773  1.00  0.00     0.211 HD
ENDBRANCH   3  24
TORSDOF 2
ENDMDL
MODEL 5
REMARK VINA RESULT:      -7.3      2.756      4.726
REMARK  2 active torsions:
REMARK  status: ('A' for Active; 'I' for Inactive)
REMARK    1  A    between atoms: N1_1  and  C1_2 
REMARK    2  A    between atoms: C3_4  and  O1_5 
ROOT
HETATM    1  C1  UNL     1      24.285   2.423  52.701  1.00  0.00     0.036 C 
HETATM    2  C2  UNL     1      24.294   3.741  52.834  1.00  0.00     0.044 C 
HETATM    3  C3  UNL     1      23.421   4.959  52.935  1.00  0.00     0.235 C 
HETATM    4  C4  UNL     1      22.194   4.693  52.079  1.00  0.00     0.250 C 
HETATM    5  O2  UNL     1      21.332   4.703  51.180  1.00  0.00    -0.270 OA
HETATM    6  N2  UNL     1      21.284   3.739  52.612  1.00  0.00    -0.354 N 
HETATM    7  C5  UNL     1      20.092   3.373  51.868  1.00  0.00     0.162 C 
HETATM    8  C6  UNL     1      20.492   2.799  50.543  1.00  0.00    -0.029 A 
HETATM    9  C7  UNL     1      20.013   3.116  49.301  1.00  0.00     0.010 A 
HETATM   10  C8  UNL     1      20.462   2.479  48.169  1.00  0.00     0.001 A 
HETATM   11  C9  UNL     1      21.413   1.486  48.188  1.00  0.00     0.001 A 
HETATM   12  C10 UNL     1      21.887   1.182  49.477  1.00  0.00     0.013 A 
HETATM   13  C11 UNL     1      21.466   1.797  50.639  1.00  0.00    -0.017 A 
HETATM   14  C12 UNL     1      22.200   1.186  51.774  1.00  0.00    -0.013 A 
HETATM   15  C13 UNL     1      21.437   0.051  51.965  1.00  0.00     0.013 A 
HETATM   16  C14 UNL     1      21.659  -0.927  52.949  1.00  0.00     0.001 A 
HETATM   17  C15 UNL     1      22.718  -0.776  53.813  1.00  0.00     0.001 A 
HETATM   18  C16 UNL     1      23.458   0.393  53.570  1.00  0.00     0.014 A 
HETATM   19  C17 UNL     1      23.255   1.382  52.596  1.00  0.00     0.001 A 
HETATM   20  H6  UNL     1      21.405   3.281  53.533  1.00  0.00     0.162 HD
ENDROOT
BRANCH   1  21
HETATM   21  N1  UNL     1      25.612   1.801  52.664  1.00  0.00    -0.399 N 
HETATM   22  H1  UNL     1      26.531   2.276  52.541  1.00  0.00     0.156 HD
HETATM   23  H2  UNL     1      25.654   0.751  52.772  1.00  0.00     0.156 HD
ENDBRANCH   1  21
BRANCH   3  24
HETATM   24  O1  UNL     1      24.051   6.074  52.456  1.00  0.00    -0.382 OA
HETATM   25  H5  UNL     1      23.820   6.867  52.965  1.00  0.00     0.211 HD
ENDBRANCH   3  24
TORSDOF 2
ENDMDL
MODEL 6
REMARK VINA RESULT:      -7.3      2.652      4.837
REMARK  2 active torsions:
REMARK  status: ('A' for Active; 'I' for Inactive)
REMARK    1  A    between atoms: N1_1  and  C1_2 
REMARK    2  A    between atoms: C3_4  and  O1_5 
ROOT
HETATM    1  C1  UNL     1      23.281   0.439  52.937  1.00  0.00     0.036 C 
HETATM    2  C2  UNL     1      24.235   1.298  53.263  1.00  0.00     0.044 C 
HETATM    3  C3  UNL     1      24.589   2.755  53.327  1.00  0.00     0.235 C 
HETATM    4  C4  UNL     1      23.881   3.431  52.163  1.00  0.00     0.250 C 
HETATM    5  O2  UNL     1      23.612   4.004  51.091  1.00  0.00    -0.270 OA
HETATM    6  N2  UNL     1      22.471   3.551  52.305  1.00  0.00    -0.354 N 
HETATM    7  C5  UNL     1      21.680   4.145  51.243  1.00  0.00     0.162 C 
HETATM    8  C6  UNL     1      21.856   3.347  49.988  1.00  0.00    -0.029 A 
HETATM    9  C7  UNL     1      22.143   3.796  48.728  1.00  0.00     0.010 A 
HETATM   10  C8  UNL     1      22.248   2.938  47.660  1.00  0.00     0.001 A 
HETATM   11  C9  UNL     1      22.077   1.577  47.765  1.00  0.00     0.001 A 
HETATM   12  C10 UNL     1      21.784   1.144  49.071  1.00  0.00     0.013 A 
HETATM   13  C11 UNL     1      21.671   1.970  50.170  1.00  0.00    -0.017 A 
HETATM   14  C12 UNL     1      21.349   1.127  51.347  1.00  0.00    -0.013 A 
HETATM   15  C13 UNL     1      19.986   0.987  51.171  1.00  0.00     0.013 A 
HETATM   16  C14 UNL     1      19.120   0.278  52.022  1.00  0.00     0.001 A 
HETATM   17  C15 UNL     1      19.637  -0.343  53.134  1.00  0.00     0.001 A 
HETATM   18  C16 UNL     1      21.025  -0.169  53.260  1.00  0.00     0.014 A 
HETATM   19  C17 UNL     1      21.909   0.534  52.425  1.00  0.00     0.001 A 
HETATM   20  H6  UNL     1      21.950   3.250  53.148  1.00  0.00     0.162 HD
ENDROOT
BRANCH   1  21
HETATM   21  N1  UNL     1      23.630  -0.972  53.136  1.00  0.00    -0.399 N 
HETATM   22  H1  UNL     1      24.331  -1.532  52.606  1.00  0.00     0.156 HD
HETATM   23  H2  UNL     1      23.119  -1.489  53.903  1.00  0.00     0.156 HD
ENDBRANCH   1  21
BRANCH   3  24
HETATM   24  O1  UNL     1      25.935   2.956  53.191  1.00  0.00    -0.382 OA
HETATM   25  H5  UNL     1      26.358   3.161  54.040  1.00  0.00     0.211 HD
ENDBRANCH   3  24
TORSDOF 2
ENDMDL
MODEL 7
REMARK VINA RESULT:      -7.1      9.286     11.036
REMARK  2 active torsions:
REMARK  status: ('A' for Active; 'I' for Inactive)
REMARK    1  A    between atoms: N1_1  and  C1_2 
REMARK    2  A    between atoms: C3_4  and  O1_5 
ROOT
HETATM    1  C1  UNL     1      30.330   5.905  48.159  1.00  0.00     0.036 C 
HETATM    2  C2  UNL     1      31.410   6.530  48.604  1.00  0.00     0.044 C 
HETATM    3  C3  UNL     1      31.893   7.740  49.349  1.00  0.00     0.235 C 
HETATM    4  C4  UNL     1      30.935   8.873  49.019  1.00  0.00     0.250 C 
HETATM    5  O2  UNL     1      30.411   9.911  48.573  1.00  0.00    -0.270 OA
HETATM    6  N2  UNL     1      29.647   8.763  49.611  1.00  0.00    -0.354 N 
HETATM    7  C5  UNL     1      28.631   9.764  49.339  1.00  0.00     0.162 C 
HETATM    8  C6  UNL     1      28.356   9.804  47.867  1.00  0.00    -0.029 A 
HETATM    9  C7  UNL     1      28.295  10.895  47.044  1.00  0.00     0.010 A 
HETATM   10  C8  UNL     1      28.003  10.776  45.706  1.00  0.00     0.001 A 
HETATM   11  C9  UNL     1      27.751   9.570  45.092  1.00  0.00     0.001 A 
HETATM   12  C10 UNL     1      27.822   8.468  45.962  1.00  0.00     0.013 A 
HETATM   13  C11 UNL     1      28.114   8.542  47.309  1.00  0.00    -0.017 A 
HETATM   14  C12 UNL     1      28.082   7.166  47.862  1.00  0.00    -0.013 A 
HETATM   15  C13 UNL     1      26.721   7.018  48.049  1.00  0.00     0.013 A 
HETATM   16  C14 UNL     1      26.088   5.882  48.581  1.00  0.00     0.001 A 
HETATM   17  C15 UNL     1      26.855   4.805  48.957  1.00  0.00     0.001 A 
HETATM   18  C16 UNL     1      28.228   5.011  48.743  1.00  0.00     0.014 A 
HETATM   19  C17 UNL     1      28.882   6.135  48.215  1.00  0.00     0.001 A 
HETATM   20  H6  UNL     1      29.375   8.002  50.259  1.00  0.00     0.162 HD
ENDROOT
BRANCH   1  21
HETATM   21  N1  UNL     1      30.597   4.656  47.438  1.00  0.00    -0.399 N 
HETATM   22  H1  UNL     1      29.902   3.954  47.106  1.00  0.00     0.156 HD
HETATM   23  H2  UNL     1      31.608   4.431  47.225  1.00  0.00     0.156 HD
ENDBRANCH   1  21
BRANCH   3  24
HETATM   24  O1  UNL     1      33.151   8.107  48.956  1.00  0.00    -0.382 OA
HETATM   25  H5  UNL     1      33.623   7.377  48.525  1.00  0.00     0.211 HD
ENDBRANCH   3  24
TORSDOF 2
ENDMDL
MODEL 8
REMARK VINA RESULT:      -7.0      3.611      5.676
REMARK  2 active torsions:
REMARK  status: ('A' for Active; 'I' for Inactive)
REMARK    1  A    between atoms: N1_1  and  C1_2 
REMARK    2  A    between atoms: C3_4  and  O1_5 
ROOT
HETATM    1  C1  UNL     1      25.905   4.435  49.953  1.00  0.00     0.036 C 
HETATM    2  C2  UNL     1      25.565   5.715  49.963  1.00  0.00     0.044 C 
HETATM    3  C3  UNL     1      24.643   6.724  50.587  1.00  0.00     0.235 C 
HETATM    4  C4  UNL     1      23.337   6.004  50.881  1.00  0.00     0.250 C 
HETATM    5  O2  UNL     1      22.159   5.601  50.868  1.00  0.00    -0.270 OA
HETATM    6  N2  UNL     1      23.391   5.075  51.957  1.00  0.00    -0.354 N 
HETATM    7  C5  UNL     1      22.217   4.298  52.308  1.00  0.00     0.162 C 
HETATM    8  C6  UNL     1      21.798   3.472  51.131  1.00  0.00    -0.029 A 
HETATM    9  C7  UNL     1      20.549   3.339  50.588  1.00  0.00     0.010 A 
HETATM   10  C8  UNL     1      20.312   2.515  49.514  1.00  0.00     0.001 A 
HETATM   11  C9  UNL     1      21.292   1.766  48.905  1.00  0.00     0.001 A 
HETATM   12  C10 UNL     1      22.564   1.923  49.484  1.00  0.00     0.013 A 
HETATM   13  C11 UNL     1      22.847   2.740  50.560  1.00  0.00    -0.017 A 
HETATM   14  C12 UNL     1      24.294   2.616  50.863  1.00  0.00    -0.013 A 
HETATM   15  C13 UNL     1      24.279   1.451  51.607  1.00  0.00     0.013 A 
HETATM   16  C14 UNL     1      25.403   0.841  52.191  1.00  0.00     0.001 A 
HETATM   17  C15 UNL     1      26.638   1.423  52.030  1.00  0.00     0.001 A 
HETATM   18  C16 UNL     1      26.591   2.600  51.266  1.00  0.00     0.014 A 
HETATM   19  C17 UNL     1      25.484   3.228  50.674  1.00  0.00     0.001 A 
HETATM   20  H6  UNL     1      24.233   4.918  52.540  1.00  0.00     0.162 HD
ENDROOT
BRANCH   1  21
HETATM   21  N1  UNL     1      26.979   4.093  49.014  1.00  0.00    -0.399 N 
HETATM   22  H1  UNL     1      27.620   4.748  48.519  1.00  0.00     0.156 HD
HETATM   23  H2  UNL     1      27.129   3.067  48.810  1.00  0.00     0.156 HD
ENDBRANCH   1  21
BRANCH   3  24
HETATM   24  O1  UNL     1      24.384   7.764  49.739  1.00  0.00    -0.382 OA
HETATM   25  H5  UNL     1      24.372   7.480  48.811  1.00  0.00     0.211 HD
ENDBRANCH   3  24
TORSDOF 2
ENDMDL
MODEL 9
REMARK VINA RESULT:      -6.9     11.260     13.079
REMARK  2 active torsions:
REMARK  status: ('A' for Active; 'I' for Inactive)
REMARK    1  A    between atoms: N1_1  and  C1_2 
REMARK    2  A    between atoms: C3_4  and  O1_5 
ROOT
HETATM    1  C1  UNL     1      31.011   7.524  46.629  1.00  0.00     0.036 C 
HETATM    2  C2  UNL     1      31.190   7.950  47.871  1.00  0.00     0.044 C 
HETATM    3  C3  UNL     1      32.184   8.049  48.991  1.00  0.00     0.235 C 
HETATM    4  C4  UNL     1      33.068   6.815  48.905  1.00  0.00     0.250 C 
HETATM    5  O2  UNL     1      33.622   5.718  49.109  1.00  0.00    -0.270 OA
HETATM    6  N2  UNL     1      33.981   6.803  47.814  1.00  0.00    -0.354 N 
HETATM    7  C5  UNL     1      34.851   5.660  47.604  1.00  0.00     0.162 C 
HETATM    8  C6  UNL     1      34.017   4.433  47.398  1.00  0.00    -0.029 A 
HETATM    9  C7  UNL     1      34.142   3.211  48.000  1.00  0.00     0.010 A 
HETATM   10  C8  UNL     1      33.312   2.162  47.685  1.00  0.00     0.001 A 
HETATM   11  C9  UNL     1      32.302   2.251  46.755  1.00  0.00     0.001 A 
HETATM   12  C10 UNL     1      32.197   3.518  46.153  1.00  0.00     0.013 A 
HETATM   13  C11 UNL     1      33.008   4.598  46.441  1.00  0.00    -0.017 A 
HETATM   14  C12 UNL     1      32.577   5.734  45.591  1.00  0.00    -0.013 A 
HETATM   15  C13 UNL     1      33.230   5.412  44.417  1.00  0.00     0.013 A 
HETATM   16  C14 UNL     1      33.198   6.166  43.231  1.00  0.00     0.001 A 
HETATM   17  C15 UNL     1      32.465   7.328  43.198  1.00  0.00     0.001 A 
HETATM   18  C16 UNL     1      31.823   7.603  44.417  1.00  0.00     0.014 A 
HETATM   19  C17 UNL     1      31.840   6.867  45.611  1.00  0.00     0.001 A 
HETATM   20  H6  UNL     1      34.085   7.585  47.144  1.00  0.00     0.162 HD
ENDROOT
BRANCH   1  21
HETATM   21  N1  UNL     1      29.670   7.762  46.085  1.00  0.00    -0.399 N 
HETATM   22  H1  UNL     1      29.421   8.289  45.221  1.00  0.00     0.156 HD
HETATM   23  H2  UNL     1      28.855   7.359  46.623  1.00  0.00     0.156 HD
ENDBRANCH   1  21
BRANCH   3  24
HETATM   24  O1  UNL     1      31.571   8.058  50.213  1.00  0.00    -0.382 OA
HETATM   25  H5  UNL     1      32.145   8.428  50.903  1.00  0.00     0.211 HD
ENDBRANCH   3  24
TORSDOF 2
ENDMDL
