MODEL 1
REMARK VINA RESULT:      -9.0      0.000      0.000
REMARK  5 active torsions:
REMARK  status: ('A' for Active; 'I' for Inactive)
REMARK    1  A    between atoms: O1_1  and  C1_2 
REMARK    2  A    between atoms: C7_8  and  S1_9 
REMARK    3  A    between atoms: N1_17  and  C14_18 
REMARK    4  A    between atoms: C14_18  and  N2_19 
REMARK    5  A    between atoms: N2_19  and  C15_20 
ROOT
HETATM    1  C1  UNL     1      21.077   1.511  49.786  1.00  0.00     0.077 A 
HETATM    2  C2  UNL     1      22.182   2.034  49.141  1.00  0.00     0.038 A 
HETATM    3  C3  UNL     1      23.168   2.429  50.015  1.00  0.00     0.012 A 
HETATM    4  C4  UNL     1      23.031   2.303  51.403  1.00  0.00    -0.029 A 
HETATM    5  C5  UNL     1      21.879   1.768  51.960  1.00  0.00     0.024 A 
HETATM    6  C6  UNL     1      20.876   1.358  51.119  1.00  0.00     0.016 A 
HETATM    7  C7  UNL     1      19.707   0.728  51.696  1.00  0.00     0.032 C 
HETATM    8  C8  UNL     1      19.566  -0.155  52.705  1.00  0.00     0.051 C 
HETATM    9 CL1  UNL     1      17.812  -0.484  52.845  1.00  0.00    -0.083 Cl
HETATM   10  C9  UNL     1      20.459  -0.813  53.651  1.00  0.00     0.025 C 
HETATM   11  C10 UNL     1      21.516  -1.193  54.307  1.00  0.00     0.002 C 
HETATM   12  C11 UNL     1      22.954  -1.023  54.388  1.00  0.00    -0.002 C 
HETATM   13  C12 UNL     1      24.121  -0.514  53.998  1.00  0.00     0.003 C 
HETATM   14  C13 UNL     1      24.202   0.407  52.856  1.00  0.00     0.302 C 
HETATM   15  N1  UNL     1      24.466   1.738  53.260  1.00  0.00     0.113 N 
HETATM   16  C21 UNL     1      24.251   2.687  52.163  1.00  0.00     0.313 C 
ENDROOT
BRANCH  15  17
HETATM   17  C14 UNL     1      25.757   1.904  53.808  1.00  0.00     0.396 C 
BRANCH  17  18
HETATM   18  N2  UNL     1      26.830   1.860  52.834  1.00  0.00    -0.365 N 
HETATM   19  H14 UNL     1      27.094   2.409  51.960  1.00  0.00     0.161 HD
BRANCH  18  20
HETATM   20  C15 UNL     1      27.782   0.802  53.071  1.00  0.00     0.029 A 
HETATM   21  C16 UNL     1      29.062   1.000  53.548  1.00  0.00     0.029 A 
HETATM   22  C17 UNL     1      30.004   0.029  53.787  1.00  0.00     0.002 A 
HETATM   23  C18 UNL     1      29.627  -1.266  53.521  1.00  0.00     0.000 A 
HETATM   24  C19 UNL     1      28.388  -1.573  53.048  1.00  0.00     0.002 A 
HETATM   25  C20 UNL     1      27.523  -0.543  52.843  1.00  0.00     0.029 A 
ENDBRANCH  18  20
ENDBRANCH  17  18
ENDBRANCH  15  17
BRANCH   1  26
HETATM   26  O1  UNL     1      20.022   1.080  48.961  1.00  0.00    -0.360 OA
HETATM   27  H1  UNL     1      19.054   1.116  49.307  1.00  0.00     0.217 HD
ENDBRANCH   1  26
BRANCH   7  28
HETATM   28  S1  UNL     1      18.321   1.360  50.815  1.00  0.00    -0.140 SA
HETATM   29  H5  UNL     1      17.087   0.896  51.300  1.00  0.00     0.107 HD
ENDBRANCH   7  28
TORSDOF 5
ENDMDL
MODEL 2
REMARK VINA RESULT:      -8.8      1.884      3.283
REMARK  5 active torsions:
REMARK  status: ('A' for Active; 'I' for Inactive)
REMARK    1  A    between atoms: O1_1  and  C1_2 
REMARK    2  A    between atoms: C7_8  and  S1_9 
REMARK    3  A    between atoms: N1_17  and  C14_18 
REMARK    4  A    between atoms: C14_18  and  N2_19 
REMARK    5  A    between atoms: N2_19  and  C15_20 
ROOT
HETATM    1  C1  UNL     1      20.546  -0.531  53.696  1.00  0.00     0.077 A 
HETATM    2  C2  UNL     1      21.531  -1.240  54.357  1.00  0.00     0.038 A 
HETATM    3  C3  UNL     1      22.792  -0.961  53.885  1.00  0.00     0.012 A 
HETATM    4  C4  UNL     1      23.017  -0.051  52.844  1.00  0.00    -0.029 A 
HETATM    5  C5  UNL     1      21.960   0.612  52.238  1.00  0.00     0.024 A 
HETATM    6  C6  UNL     1      20.688   0.362  52.685  1.00  0.00     0.016 A 
HETATM    7  C7  UNL     1      19.594   1.113  52.105  1.00  0.00     0.032 C 
HETATM    8  C8  UNL     1      19.482   2.406  51.740  1.00  0.00     0.051 C 
HETATM    9 CL1  UNL     1      17.822   2.608  51.103  1.00  0.00    -0.083 Cl
HETATM   10  C9  UNL     1      20.365   3.566  51.720  1.00  0.00     0.025 C 
HETATM   11  C10 UNL     1      21.398   4.345  51.842  1.00  0.00     0.002 C 
HETATM   12  C11 UNL     1      22.784   4.375  52.267  1.00  0.00    -0.002 C 
HETATM   13  C12 UNL     1      23.893   3.832  52.767  1.00  0.00     0.003 C 
HETATM   14  C13 UNL     1      23.924   2.426  53.190  1.00  0.00     0.302 C 
HETATM   15  N1  UNL     1      24.675   1.617  52.302  1.00  0.00     0.113 N 
HETATM   16  C21 UNL     1      24.456   0.190  52.558  1.00  0.00     0.313 C 
ENDROOT
BRANCH  15  17
HETATM   17  C14 UNL     1      26.056   1.914  52.318  1.00  0.00     0.396 C 
BRANCH  17  18
HETATM   18  N2  UNL     1      26.706   1.664  53.589  1.00  0.00    -0.365 N 
HETATM   19  H14 UNL     1      26.631   2.053  54.578  1.00  0.00     0.161 HD
BRANCH  18  20
HETATM   20  C15 UNL     1      27.734   0.653  53.522  1.00  0.00     0.029 A 
HETATM   21  C16 UNL     1      29.070   0.884  53.781  1.00  0.00     0.029 A 
HETATM   22  C17 UNL     1      30.085  -0.041  53.728  1.00  0.00     0.002 A 
HETATM   23  C18 UNL     1      29.725  -1.321  53.382  1.00  0.00     0.000 A 
HETATM   24  C19 UNL     1      28.436  -1.659  53.107  1.00  0.00     0.002 A 
HETATM   25  C20 UNL     1      27.500  -0.673  53.185  1.00  0.00     0.029 A 
ENDBRANCH  18  20
ENDBRANCH  17  18
ENDBRANCH  15  17
BRANCH   1  26
HETATM   26  O1  UNL     1      19.224  -0.759  54.122  1.00  0.00    -0.360 OA
HETATM   27  H1  UNL     1      18.870  -0.290  54.967  1.00  0.00     0.217 HD
ENDBRANCH   1  26
BRANCH   7  28
HETATM   28  S1  UNL     1      18.271  -0.030  51.893  1.00  0.00    -0.140 SA
HETATM   29  H5  UNL     1      18.583  -1.098  51.035  1.00  0.00     0.107 HD
ENDBRANCH   7  28
TORSDOF 5
ENDMDL
MODEL 3
REMARK VINA RESULT:      -8.6      2.987      5.044
REMARK  5 active torsions:
REMARK  status: ('A' for Active; 'I' for Inactive)
REMARK    1  A    between atoms: O1_1  and  C1_2 
REMARK    2  A    between atoms: C7_8  and  S1_9 
REMARK    3  A    between atoms: N1_17  and  C14_18 
REMARK    4  A    between atoms: C14_18  and  N2_19 
REMARK    5  A    between atoms: N2_19  and  C15_20 
ROOT
HETATM    1  C1  UNL     1      21.225  -0.482  53.794  1.00  0.00     0.077 A 
HETATM    2  C2  UNL     1      22.404  -0.981  54.314  1.00  0.00     0.038 A 
HETATM    3  C3  UNL     1      23.515  -0.512  53.652  1.00  0.00     0.012 A 
HETATM    4  C4  UNL     1      23.423   0.374  52.570  1.00  0.00    -0.029 A 
HETATM    5  C5  UNL     1      22.190   0.818  52.117  1.00  0.00     0.024 A 
HETATM    6  C6  UNL     1      21.060   0.375  52.756  1.00  0.00     0.016 A 
HETATM    7  C7  UNL     1      19.778   0.900  52.332  1.00  0.00     0.032 C 
HETATM    8  C8  UNL     1      19.390   2.136  51.962  1.00  0.00     0.051 C 
HETATM    9 CL1  UNL     1      17.645   2.022  51.578  1.00  0.00    -0.083 Cl
HETATM   10  C9  UNL     1      20.042   3.428  51.785  1.00  0.00     0.025 C 
HETATM   11  C10 UNL     1      20.929   4.378  51.735  1.00  0.00     0.002 C 
HETATM   12  C11 UNL     1      22.335   4.664  51.946  1.00  0.00    -0.002 C 
HETATM   13  C12 UNL     1      23.582   4.342  52.284  1.00  0.00     0.003 C 
HETATM   14  C13 UNL     1      23.921   2.983  52.725  1.00  0.00     0.302 C 
HETATM   15  N1  UNL     1      24.666   2.274  51.751  1.00  0.00     0.113 N 
HETATM   16  C21 UNL     1      24.741   0.844  52.066  1.00  0.00     0.313 C 
ENDROOT
BRANCH  15  17
HETATM   17  C14 UNL     1      25.960   2.803  51.553  1.00  0.00     0.396 C 
BRANCH  17  18
HETATM   18  N2  UNL     1      26.425   2.747  50.181  1.00  0.00    -0.365 N 
HETATM   19  H14 UNL     1      26.752   1.984  49.513  1.00  0.00     0.161 HD
BRANCH  18  20
HETATM   20  C15 UNL     1      26.492   4.040  49.542  1.00  0.00     0.029 A 
HETATM   21  C16 UNL     1      25.428   4.913  49.440  1.00  0.00     0.029 A 
HETATM   22  C17 UNL     1      25.440   6.149  48.841  1.00  0.00     0.002 A 
HETATM   23  C18 UNL     1      26.634   6.548  48.290  1.00  0.00     0.000 A 
HETATM   24  C19 UNL     1      27.747   5.765  48.334  1.00  0.00     0.002 A 
HETATM   25  C20 UNL     1      27.636   4.556  48.950  1.00  0.00     0.029 A 
ENDBRANCH  18  20
ENDBRANCH  17  18
ENDBRANCH  15  17
BRANCH   1  26
HETATM   26  O1  UNL     1      20.039  -0.912  54.419  1.00  0.00    -0.360 OA
HETATM   27  H1  UNL     1      19.973  -0.913  55.445  1.00  0.00     0.217 HD
ENDBRANCH   1  26
BRANCH   7  28
HETATM   28  S1  UNL     1      18.661  -0.460  52.344  1.00  0.00    -0.140 SA
HETATM   29  H5  UNL     1      17.357  -0.114  52.737  1.00  0.00     0.107 HD
ENDBRANCH   7  28
TORSDOF 5
ENDMDL
MODEL 4
REMARK VINA RESULT:      -8.5      3.872      7.556
REMARK  5 active torsions:
REMARK  status: ('A' for Active; 'I' for Inactive)
REMARK    1  A    between atoms: O1_1  and  C1_2 
REMARK    2  A    between atoms: C7_8  and  S1_9 
REMARK    3  A    between atoms: N1_17  and  C14_18 
REMARK    4  A    between atoms: C14_18  and  N2_19 
REMARK    5  A    between atoms: N2_19  and  C15_20 
ROOT
HETATM    1  C1  UNL     1      23.610   3.221  52.084  1.00  0.00     0.077 A 
HETATM    2  C2  UNL     1      22.276   3.577  52.019  1.00  0.00     0.038 A 
HETATM    3  C3  UNL     1      21.434   2.492  52.096  1.00  0.00     0.012 A 
HETATM    4  C4  UNL     1      21.912   1.181  52.223  1.00  0.00    -0.029 A 
HETATM    5  C5  UNL     1      23.273   0.922  52.275  1.00  0.00     0.024 A 
HETATM    6  C6  UNL     1      24.143   1.980  52.206  1.00  0.00     0.016 A 
HETATM    7  C7  UNL     1      25.561   1.716  52.340  1.00  0.00     0.032 C 
HETATM    8  C8  UNL     1      26.249   0.876  53.139  1.00  0.00     0.051 C 
HETATM    9 CL1  UNL     1      27.979   1.106  52.741  1.00  0.00    -0.083 Cl
HETATM   10  C9  UNL     1      25.910  -0.123  54.145  1.00  0.00     0.025 C 
HETATM   11  C10 UNL     1      25.253  -0.906  54.949  1.00  0.00     0.002 C 
HETATM   12  C11 UNL     1      23.916  -1.273  55.375  1.00  0.00    -0.002 C 
HETATM   13  C12 UNL     1      22.588  -1.175  55.360  1.00  0.00     0.003 C 
HETATM   14  C13 UNL     1      21.910  -0.200  54.497  1.00  0.00     0.302 C 
HETATM   15  N1  UNL     1      21.253  -0.817  53.405  1.00  0.00     0.113 N 
HETATM   16  C21 UNL     1      20.839   0.165  52.399  1.00  0.00     0.313 C 
ENDROOT
BRANCH  15  17
HETATM   17  C14 UNL     1      20.153  -1.611  53.799  1.00  0.00     0.396 C 
BRANCH  17  18
HETATM   18  N2  UNL     1      18.875  -0.928  53.748  1.00  0.00    -0.365 N 
HETATM   19  H14 UNL     1      18.526   0.061  53.934  1.00  0.00     0.161 HD
BRANCH  18  20
HETATM   20  C15 UNL     1      17.777  -1.787  53.374  1.00  0.00     0.029 A 
HETATM   21  C16 UNL     1      16.687  -1.378  52.632  1.00  0.00     0.029 A 
HETATM   22  C17 UNL     1      15.618  -2.154  52.254  1.00  0.00     0.002 A 
HETATM   23  C18 UNL     1      15.643  -3.466  52.660  1.00  0.00     0.000 A 
HETATM   24  C19 UNL     1      16.670  -3.975  53.395  1.00  0.00     0.002 A 
HETATM   25  C20 UNL     1      17.685  -3.128  53.721  1.00  0.00     0.029 A 
ENDBRANCH  18  20
ENDBRANCH  17  18
ENDBRANCH  15  17
BRANCH   1  26
HETATM   26  O1  UNL     1      24.538   4.276  52.014  1.00  0.00    -0.360 OA
HETATM   27  H1  UNL     1      25.543   4.069  51.945  1.00  0.00     0.217 HD
ENDBRANCH   1  26
BRANCH   7  28
HETATM   28  S1  UNL     1      26.367   2.747  51.163  1.00  0.00    -0.140 SA
HETATM   29  H5  UNL     1      27.736   2.470  51.016  1.00  0.00     0.107 HD
ENDBRANCH   7  28
TORSDOF 5
ENDMDL
MODEL 5
REMARK VINA RESULT:      -8.4      3.903      7.932
REMARK  5 active torsions:
REMARK  status: ('A' for Active; 'I' for Inactive)
REMARK    1  A    between atoms: O1_1  and  C1_2 
REMARK    2  A    between atoms: C7_8  and  S1_9 
REMARK    3  A    between atoms: N1_17  and  C14_18 
REMARK    4  A    between atoms: C14_18  and  N2_19 
REMARK    5  A    between atoms: N2_19  and  C15_20 
ROOT
HETATM    1  C1  UNL     1      25.508   0.104  52.720  1.00  0.00     0.077 A 
HETATM    2  C2  UNL     1      25.029  -0.921  53.514  1.00  0.00     0.038 A 
HETATM    3  C3  UNL     1      23.693  -0.783  53.809  1.00  0.00     0.012 A 
HETATM    4  C4  UNL     1      22.931   0.294  53.340  1.00  0.00    -0.029 A 
HETATM    5  C5  UNL     1      23.502   1.280  52.550  1.00  0.00     0.024 A 
HETATM    6  C6  UNL     1      24.832   1.174  52.231  1.00  0.00     0.016 A 
HETATM    7  C7  UNL     1      25.408   2.161  51.341  1.00  0.00     0.032 C 
HETATM    8  C8  UNL     1      24.931   2.762  50.233  1.00  0.00     0.051 C 
HETATM    9 CL1  UNL     1      26.220   3.868  49.666  1.00  0.00    -0.083 Cl
HETATM   10  C9  UNL     1      23.680   2.735  49.485  1.00  0.00     0.025 C 
HETATM   11  C10 UNL     1      22.471   2.464  49.093  1.00  0.00     0.002 C 
HETATM   12  C11 UNL     1      21.296   1.676  49.416  1.00  0.00    -0.002 C 
HETATM   13  C12 UNL     1      20.610   0.797  50.144  1.00  0.00     0.003 C 
HETATM   14  C13 UNL     1      21.215   0.144  51.312  1.00  0.00     0.302 C 
HETATM   15  N1  UNL     1      20.681   0.628  52.531  1.00  0.00     0.113 N 
HETATM   16  C21 UNL     1      21.486   0.200  53.680  1.00  0.00     0.313 C 
ENDROOT
BRANCH  15  17
HETATM   17  C14 UNL     1      19.326   0.275  52.720  1.00  0.00     0.396 C 
BRANCH  17  18
HETATM   18  N2  UNL     1      19.117  -0.808  53.660  1.00  0.00    -0.365 N 
HETATM   19  H14 UNL     1      19.602  -1.165  54.539  1.00  0.00     0.161 HD
BRANCH  18  20
HETATM   20  C15 UNL     1      17.986  -1.644  53.335  1.00  0.00     0.029 A 
HETATM   21  C16 UNL     1      16.903  -1.229  52.587  1.00  0.00     0.029 A 
HETATM   22  C17 UNL     1      15.803  -1.982  52.253  1.00  0.00     0.002 A 
HETATM   23  C18 UNL     1      15.788  -3.277  52.714  1.00  0.00     0.000 A 
HETATM   24  C19 UNL     1      16.806  -3.789  53.460  1.00  0.00     0.002 A 
HETATM   25  C20 UNL     1      17.853  -2.965  53.739  1.00  0.00     0.029 A 
ENDBRANCH  18  20
ENDBRANCH  17  18
ENDBRANCH  15  17
BRANCH   1  26
HETATM   26  O1  UNL     1      26.869   0.036  52.370  1.00  0.00    -0.360 OA
HETATM   27  H1  UNL     1      27.410   0.903  52.246  1.00  0.00     0.217 HD
ENDBRANCH   1  26
BRANCH   7  28
HETATM   28  S1  UNL     1      27.002   2.535  51.989  1.00  0.00    -0.140 SA
HETATM   29  H5  UNL     1      27.519   3.761  51.537  1.00  0.00     0.107 HD
ENDBRANCH   7  28
TORSDOF 5
ENDMDL
MODEL 6
REMARK VINA RESULT:      -8.3      3.982      5.644
REMARK  5 active torsions:
REMARK  status: ('A' for Active; 'I' for Inactive)
REMARK    1  A    between atoms: O1_1  and  C1_2 
REMARK    2  A    between atoms: C7_8  and  S1_9 
REMARK    3  A    between atoms: N1_17  and  C14_18 
REMARK    4  A    between atoms: C14_18  and  N2_19 
REMARK    5  A    between atoms: N2_19  and  C15_20 
ROOT
HETATM    1  C1  UNL     1      24.384  -0.220  54.107  1.00  0.00     0.077 A 
HETATM    2  C2  UNL     1      25.729   0.098  54.083  1.00  0.00     0.038 A 
HETATM    3  C3  UNL     1      26.062   0.910  53.024  1.00  0.00     0.012 A 
HETATM    4  C4  UNL     1      25.115   1.348  52.090  1.00  0.00    -0.029 A 
HETATM    5  C5  UNL     1      23.784   0.972  52.196  1.00  0.00     0.024 A 
HETATM    6  C6  UNL     1      23.414   0.166  53.241  1.00  0.00     0.016 A 
HETATM    7  C7  UNL     1      22.012  -0.162  53.396  1.00  0.00     0.032 C 
HETATM    8  C8  UNL     1      20.892   0.572  53.236  1.00  0.00     0.051 C 
HETATM    9 CL1  UNL     1      19.520  -0.514  53.610  1.00  0.00    -0.083 Cl
HETATM   10  C9  UNL     1      20.587   1.936  52.819  1.00  0.00     0.025 C 
HETATM   11  C10 UNL     1      20.695   3.167  52.416  1.00  0.00     0.002 C 
HETATM   12  C11 UNL     1      21.657   4.179  52.026  1.00  0.00    -0.002 C 
HETATM   13  C12 UNL     1      22.889   4.638  51.811  1.00  0.00     0.003 C 
HETATM   14  C13 UNL     1      24.065   3.793  52.055  1.00  0.00     0.302 C 
HETATM   15  N1  UNL     1      24.682   3.374  50.851  1.00  0.00     0.113 N 
HETATM   16  C21 UNL     1      25.657   2.305  51.089  1.00  0.00     0.313 C 
ENDROOT
BRANCH  15  17
HETATM   17  C14 UNL     1      25.281   4.437  50.139  1.00  0.00     0.396 C 
BRANCH  17  18
HETATM   18  N2  UNL     1      26.639   4.174  49.704  1.00  0.00    -0.365 N 
HETATM   19  H14 UNL     1      27.343   3.385  49.825  1.00  0.00     0.161 HD
BRANCH  18  20
HETATM   20  C15 UNL     1      27.213   5.247  48.927  1.00  0.00     0.029 A 
HETATM   21  C16 UNL     1      28.516   5.265  48.471  1.00  0.00     0.029 A 
HETATM   22  C17 UNL     1      29.109   6.261  47.733  1.00  0.00     0.002 A 
HETATM   23  C18 UNL     1      28.321   7.343  47.423  1.00  0.00     0.000 A 
HETATM   24  C19 UNL     1      27.022   7.427  47.823  1.00  0.00     0.002 A 
HETATM   25  C20 UNL     1      26.523   6.391  48.551  1.00  0.00     0.029 A 
ENDBRANCH  18  20
ENDBRANCH  17  18
ENDBRANCH  15  17
BRANCH   1  26
HETATM   26  O1  UNL     1      23.960  -1.048  55.163  1.00  0.00    -0.360 OA
HETATM   27  H1  UNL     1      23.279  -0.696  55.848  1.00  0.00     0.217 HD
ENDBRANCH   1  26
BRANCH   7  28
HETATM   28  S1  UNL     1      21.951  -1.860  53.855  1.00  0.00    -0.140 SA
HETATM   29  H5  UNL     1      22.934  -2.226  54.789  1.00  0.00     0.107 HD
ENDBRANCH   7  28
TORSDOF 5
ENDMDL
MODEL 7
REMARK VINA RESULT:      -8.3      4.498      7.081
REMARK  5 active torsions:
REMARK  status: ('A' for Active; 'I' for Inactive)
REMARK    1  A    between atoms: O1_1  and  C1_2 
REMARK    2  A    between atoms: C7_8  and  S1_9 
REMARK    3  A    between atoms: N1_17  and  C14_18 
REMARK    4  A    between atoms: C14_18  and  N2_19 
REMARK    5  A    between atoms: N2_19  and  C15_20 
ROOT
HETATM    1  C1  UNL     1      22.706   0.153  52.886  1.00  0.00     0.077 A 
HETATM    2  C2  UNL     1      21.353   0.402  52.761  1.00  0.00     0.038 A 
HETATM    3  C3  UNL     1      21.077   1.730  52.534  1.00  0.00     0.012 A 
HETATM    4  C4  UNL     1      22.085   2.699  52.446  1.00  0.00    -0.029 A 
HETATM    5  C5  UNL     1      23.420   2.352  52.590  1.00  0.00     0.024 A 
HETATM    6  C6  UNL     1      23.733   1.036  52.813  1.00  0.00     0.016 A 
HETATM    7  C7  UNL     1      25.131   0.663  52.884  1.00  0.00     0.032 C 
HETATM    8  C8  UNL     1      26.206   1.061  52.175  1.00  0.00     0.051 C 
HETATM    9 CL1  UNL     1      27.605   0.156  52.831  1.00  0.00    -0.083 Cl
HETATM   10  C9  UNL     1      26.457   2.020  51.106  1.00  0.00     0.025 C 
HETATM   11  C10 UNL     1      26.306   2.934  50.194  1.00  0.00     0.002 C 
HETATM   12  C11 UNL     1      25.322   3.794  49.566  1.00  0.00    -0.002 C 
HETATM   13  C12 UNL     1      24.091   4.269  49.386  1.00  0.00     0.003 C 
HETATM   14  C13 UNL     1      22.958   3.750  50.163  1.00  0.00     0.302 C 
HETATM   15  N1  UNL     1      22.502   4.678  51.131  1.00  0.00     0.113 N 
HETATM   16  C21 UNL     1      21.585   4.054  52.089  1.00  0.00     0.313 C 
ENDROOT
BRANCH  15  17
HETATM   17  C14 UNL     1      21.909   5.826  50.558  1.00  0.00     0.396 C 
BRANCH  17  18
HETATM   18  N2  UNL     1      22.341   7.078  51.147  1.00  0.00    -0.365 N 
HETATM   19  H14 UNL     1      22.025   7.693  51.958  1.00  0.00     0.161 HD
BRANCH  18  20
HETATM   20  C15 UNL     1      23.467   7.676  50.469  1.00  0.00     0.029 A 
HETATM   21  C16 UNL     1      23.360   8.528  49.389  1.00  0.00     0.029 A 
HETATM   22  C17 UNL     1      24.398   9.119  48.709  1.00  0.00     0.002 A 
HETATM   23  C18 UNL     1      25.665   8.827  49.156  1.00  0.00     0.000 A 
HETATM   24  C19 UNL     1      25.883   7.999  50.214  1.00  0.00     0.002 A 
HETATM   25  C20 UNL     1      24.791   7.461  50.824  1.00  0.00     0.029 A 
ENDBRANCH  18  20
ENDBRANCH  17  18
ENDBRANCH  15  17
BRANCH   1  26
HETATM   26  O1  UNL     1      23.074  -1.185  53.119  1.00  0.00    -0.360 OA
HETATM   27  H1  UNL     1      24.022  -1.406  53.449  1.00  0.00     0.217 HD
ENDBRANCH   1  26
BRANCH   7  28
HETATM   28  S1  UNL     1      25.262  -0.506  54.194  1.00  0.00    -0.140 SA
HETATM   29  H5  UNL     1      26.398  -1.329  54.102  1.00  0.00     0.107 HD
ENDBRANCH   7  28
TORSDOF 5
ENDMDL
MODEL 8
REMARK VINA RESULT:      -8.3      2.234      3.833
REMARK  5 active torsions:
REMARK  status: ('A' for Active; 'I' for Inactive)
REMARK    1  A    between atoms: O1_1  and  C1_2 
REMARK    2  A    between atoms: C7_8  and  S1_9 
REMARK    3  A    between atoms: N1_17  and  C14_18 
REMARK    4  A    between atoms: C14_18  and  N2_19 
REMARK    5  A    between atoms: N2_19  and  C15_20 
ROOT
HETATM    1  C1  UNL     1      20.110   2.174  51.202  1.00  0.00     0.077 A 
HETATM    2  C2  UNL     1      19.761   1.696  52.451  1.00  0.00     0.038 A 
HETATM    3  C3  UNL     1      20.740   0.906  53.008  1.00  0.00     0.012 A 
HETATM    4  C4  UNL     1      21.946   0.635  52.350  1.00  0.00    -0.029 A 
HETATM    5  C5  UNL     1      22.205   1.158  51.093  1.00  0.00     0.024 A 
HETATM    6  C6  UNL     1      21.254   1.954  50.507  1.00  0.00     0.016 A 
HETATM    7  C7  UNL     1      21.557   2.564  49.229  1.00  0.00     0.032 C 
HETATM    8  C8  UNL     1      22.685   3.118  48.741  1.00  0.00     0.051 C 
HETATM    9 CL1  UNL     1      22.298   3.668  47.082  1.00  0.00    -0.083 Cl
HETATM   10  C9  UNL     1      24.047   3.312  49.221  1.00  0.00     0.025 C 
HETATM   11  C10 UNL     1      25.121   3.306  49.956  1.00  0.00     0.002 C 
HETATM   12  C11 UNL     1      25.642   2.891  51.243  1.00  0.00    -0.002 C 
HETATM   13  C12 UNL     1      25.543   2.340  52.452  1.00  0.00     0.003 C 
HETATM   14  C13 UNL     1      24.266   1.800  52.935  1.00  0.00     0.302 C 
HETATM   15  N1  UNL     1      24.264   0.384  52.975  1.00  0.00     0.113 N 
HETATM   16  C21 UNL     1      22.912  -0.149  53.167  1.00  0.00     0.313 C 
ENDROOT
BRANCH  15  17
HETATM   17  C14 UNL     1      25.143  -0.142  53.948  1.00  0.00     0.396 C 
BRANCH  17  18
HETATM   18  N2  UNL     1      26.040  -1.167  53.451  1.00  0.00    -0.365 N 
HETATM   19  H14 UNL     1      25.934  -2.146  53.044  1.00  0.00     0.161 HD
BRANCH  18  20
HETATM   20  C15 UNL     1      27.434  -0.805  53.538  1.00  0.00     0.029 A 
HETATM   21  C16 UNL     1      28.476  -1.631  53.168  1.00  0.00     0.029 A 
HETATM   22  C17 UNL     1      29.817  -1.336  53.234  1.00  0.00     0.002 A 
HETATM   23  C18 UNL     1      30.144  -0.092  53.719  1.00  0.00     0.000 A 
HETATM   24  C19 UNL     1      29.195   0.801  54.112  1.00  0.00     0.002 A 
HETATM   25  C20 UNL     1      27.893   0.417  54.010  1.00  0.00     0.029 A 
ENDBRANCH  18  20
ENDBRANCH  17  18
ENDBRANCH  15  17
BRANCH   1  26
HETATM   26  O1  UNL     1      19.162   2.995  50.563  1.00  0.00    -0.360 OA
HETATM   27  H1  UNL     1      18.844   3.860  51.019  1.00  0.00     0.217 HD
ENDBRANCH   1  26
BRANCH   7  28
HETATM   28  S1  UNL     1      20.086   2.453  48.270  1.00  0.00    -0.140 SA
HETATM   29  H5  UNL     1      19.310   1.318  48.558  1.00  0.00     0.107 HD
ENDBRANCH   7  28
TORSDOF 5
ENDMDL
MODEL 9
REMARK VINA RESULT:      -7.9      6.768      8.207
REMARK  5 active torsions:
REMARK  status: ('A' for Active; 'I' for Inactive)
REMARK    1  A    between atoms: O1_1  and  C1_2 
REMARK    2  A    between atoms: C7_8  and  S1_9 
REMARK    3  A    between atoms: N1_17  and  C14_18 
REMARK    4  A    between atoms: C14_18  and  N2_19 
REMARK    5  A    between atoms: N2_19  and  C15_20 
ROOT
HETATM    1  C1  UNL     1      22.261   5.991  50.531  1.00  0.00     0.077 A 
HETATM    2  C2  UNL     1      21.927   7.287  50.187  1.00  0.00     0.038 A 
HETATM    3  C3  UNL     1      23.013   8.132  50.187  1.00  0.00     0.012 A 
HETATM    4  C4  UNL     1      24.303   7.691  50.508  1.00  0.00    -0.029 A 
HETATM    5  C5  UNL     1      24.540   6.368  50.845  1.00  0.00     0.024 A 
HETATM    6  C6  UNL     1      23.482   5.495  50.852  1.00  0.00     0.016 A 
HETATM    7  C7  UNL     1      23.743   4.097  51.128  1.00  0.00     0.032 C 
HETATM    8  C8  UNL     1      24.744   3.276  50.750  1.00  0.00     0.051 C 
HETATM    9 CL1  UNL     1      24.386   1.680  51.475  1.00  0.00    -0.083 Cl
HETATM   10  C9  UNL     1      25.971   3.412  49.975  1.00  0.00     0.025 C 
HETATM   11  C10 UNL     1      26.944   3.894  49.260  1.00  0.00     0.002 C 
HETATM   12  C11 UNL     1      27.433   5.108  48.635  1.00  0.00    -0.002 C 
HETATM   13  C12 UNL     1      27.361   6.398  48.310  1.00  0.00     0.003 C 
HETATM   14  C13 UNL     1      26.213   7.218  48.716  1.00  0.00     0.302 C 
HETATM   15  N1  UNL     1      26.548   8.137  49.741  1.00  0.00     0.113 N 
HETATM   16  C21 UNL     1      25.351   8.734  50.343  1.00  0.00     0.313 C 
ENDROOT
BRANCH  15  17
HETATM   17  C14 UNL     1      27.437   9.146  49.308  1.00  0.00     0.396 C 
BRANCH  17  18
HETATM   18  N2  UNL     1      28.649   9.251  50.095  1.00  0.00    -0.365 N 
HETATM   19  H14 UNL     1      28.896   9.224  51.131  1.00  0.00     0.161 HD
BRANCH  18  20
HETATM   20  C15 UNL     1      29.835   9.471  49.301  1.00  0.00     0.029 A 
HETATM   21  C16 UNL     1      30.679   8.467  48.871  1.00  0.00     0.029 A 
HETATM   22  C17 UNL     1      31.818   8.624  48.118  1.00  0.00     0.002 A 
HETATM   23  C18 UNL     1      32.142   9.911  47.763  1.00  0.00     0.000 A 
HETATM   24  C19 UNL     1      31.378  10.976  48.135  1.00  0.00     0.002 A 
HETATM   25  C20 UNL     1      30.268  10.720  48.880  1.00  0.00     0.029 A 
ENDBRANCH  18  20
ENDBRANCH  17  18
ENDBRANCH  15  17
BRANCH   1  26
HETATM   26  O1  UNL     1      21.205   5.062  50.553  1.00  0.00    -0.360 OA
HETATM   27  H1  UNL     1      21.206   4.270  49.896  1.00  0.00     0.217 HD
ENDBRANCH   1  26
BRANCH   7  28
HETATM   28  S1  UNL     1      22.433   3.547  52.167  1.00  0.00    -0.140 SA
HETATM   29  H5  UNL     1      21.972   4.530  53.058  1.00  0.00     0.107 HD
ENDBRANCH   7  28
TORSDOF 5
ENDMDL
