MODEL 1
REMARK VINA RESULT:      -8.5      0.000      0.000
REMARK  7 active torsions:
REMARK  status: ('A' for Active; 'I' for Inactive)
REMARK    1  A    between atoms: O1_1  and  C1_2 
REMARK    2  A    between atoms: C4_5  and  O2_6 
REMARK    3  A    between atoms: O2_6  and  C5_7 
REMARK    4  A    between atoms: C7_12  and  C8_13 
REMARK    5  A    between atoms: C8_13  and  C9_14 
REMARK    6  A    between atoms: C12_19  and  N3_20 
REMARK    7  A    between atoms: N3_20  and  C13_21 
ROOT
HETATM    1  C9  UNL     1      22.314   2.139  50.637  1.00  0.00     0.010 A 
HETATM    2  C10 UNL     1      21.528   1.057  50.321  1.00  0.00     0.129 A 
HETATM    3  N1  UNL     1      21.360   0.783  49.014  1.00  0.00    -0.253 NA
HETATM    4  C11 UNL     1      21.932   1.532  48.072  1.00  0.00     0.234 A 
HETATM    5  N2  UNL     1      22.684   2.568  48.426  1.00  0.00    -0.224 NA
HETATM    6  C12 UNL     1      22.924   2.938  49.690  1.00  0.00     0.137 A 
ENDROOT
BRANCH   1   7
HETATM    7  C8  UNL     1      22.481   2.412  52.081  1.00  0.00     0.085 C 
BRANCH   7   8
HETATM    8  C7  UNL     1      23.734   1.926  52.669  1.00  0.00    -0.018 A 
HETATM    9  C1  UNL     1      24.560   2.886  53.238  1.00  0.00     0.072 A 
HETATM   10  C2  UNL     1      25.781   2.551  53.831  1.00  0.00     0.040 A 
HETATM   11  C3  UNL     1      26.128   1.211  53.823  1.00  0.00     0.040 A 
HETATM   12  C4  UNL     1      25.342   0.221  53.270  1.00  0.00     0.079 A 
HETATM   13  C6  UNL     1      24.142   0.587  52.693  1.00  0.00     0.047 A 
BRANCH   9  14
HETATM   14  O1  UNL     1      24.252   4.249  53.268  1.00  0.00    -0.360 OA
HETATM   15  H1  UNL     1      24.363   4.858  52.485  1.00  0.00     0.217 HD
ENDBRANCH   9  14
BRANCH  12  16
HETATM   16  O2  UNL     1      25.716  -1.115  53.278  1.00  0.00    -0.255 OA
BRANCH  16  17
HETATM   17  C5  UNL     1      26.815  -1.491  52.466  1.00  0.00     0.530 C 
HETATM   18  F1  UNL     1      26.873  -0.608  51.401  1.00  0.00    -0.144 F 
HETATM   19  F2  UNL     1      28.004  -1.454  53.189  1.00  0.00    -0.144 F 
HETATM   20  F3  UNL     1      26.673  -2.758  51.926  1.00  0.00    -0.144 F 
ENDBRANCH  16  17
ENDBRANCH  12  16
ENDBRANCH   7   8
ENDBRANCH   1   7
BRANCH   6  21
HETATM   21  N3  UNL     1      23.719   4.037  50.112  1.00  0.00    -0.340 N 
HETATM   22  H9  UNL     1      23.362   4.581  50.944  1.00  0.00     0.167 HD
BRANCH  21  23
HETATM   23  C13 UNL     1      24.921   4.537  49.605  1.00  0.00     0.035 A 
HETATM   24  C14 UNL     1      26.097   3.834  49.577  1.00  0.00     0.029 A 
HETATM   25  C15 UNL     1      27.269   4.344  49.074  1.00  0.00     0.004 A 
HETATM   26  C16 UNL     1      27.332   5.618  48.554  1.00  0.00     0.019 A 
HETATM   27  C17 UNL     1      26.168   6.356  48.563  1.00  0.00     0.013 A 
HETATM   28 BR1  UNL     1      26.284   8.116  47.837  1.00  0.00    -0.051 Br
HETATM   29  C18 UNL     1      25.017   5.804  49.079  1.00  0.00     0.048 A 
ENDBRANCH  21  23
ENDBRANCH   6  21
TORSDOF 7
ENDMDL
MODEL 2
REMARK VINA RESULT:      -8.4      3.097      4.552
REMARK  7 active torsions:
REMARK  status: ('A' for Active; 'I' for Inactive)
REMARK    1  A    between atoms: O1_1  and  C1_2 
REMARK    2  A    between atoms: C4_5  and  O2_6 
REMARK    3  A    between atoms: O2_6  and  C5_7 
REMARK    4  A    between atoms: C7_12  and  C8_13 
REMARK    5  A    between atoms: C8_13  and  C9_14 
REMARK    6  A    between atoms: C12_19  and  N3_20 
REMARK    7  A    between atoms: N3_20  and  C13_21 
ROOT
HETATM    1  C9  UNL     1      25.143   2.828  52.235  1.00  0.00     0.010 A 
HETATM    2  C10 UNL     1      25.294   2.414  53.536  1.00  0.00     0.129 A 
HETATM    3  N1  UNL     1      26.514   1.978  53.903  1.00  0.00    -0.253 NA
HETATM    4  C11 UNL     1      27.527   1.951  53.038  1.00  0.00     0.234 A 
HETATM    5  N2  UNL     1      27.333   2.362  51.789  1.00  0.00    -0.224 NA
HETATM    6  C12 UNL     1      26.168   2.816  51.310  1.00  0.00     0.137 A 
ENDROOT
BRANCH   1   7
HETATM    7  C8  UNL     1      23.793   3.303  51.865  1.00  0.00     0.085 C 
BRANCH   7   8
HETATM    8  C7  UNL     1      22.799   2.248  51.640  1.00  0.00    -0.018 A 
HETATM    9  C1  UNL     1      22.537   1.920  50.317  1.00  0.00     0.072 A 
HETATM   10  C2  UNL     1      21.612   0.931  49.971  1.00  0.00     0.040 A 
HETATM   11  C3  UNL     1      20.966   0.291  51.016  1.00  0.00     0.040 A 
HETATM   12  C4  UNL     1      21.192   0.582  52.345  1.00  0.00     0.079 A 
HETATM   13  C6  UNL     1      22.112   1.564  52.652  1.00  0.00     0.047 A 
BRANCH   9  14
HETATM   14  O1  UNL     1      23.163   2.538  49.231  1.00  0.00    -0.360 OA
HETATM   15  H1  UNL     1      22.707   3.193  48.631  1.00  0.00     0.217 HD
ENDBRANCH   9  14
BRANCH  12  16
HETATM   16  O2  UNL     1      20.529  -0.077  53.371  1.00  0.00    -0.255 OA
BRANCH  16  17
HETATM   17  C5  UNL     1      21.247  -1.073  54.081  1.00  0.00     0.530 C 
HETATM   18  F1  UNL     1      20.342  -2.048  54.466  1.00  0.00    -0.144 F 
HETATM   19  F2  UNL     1      22.245  -1.628  53.285  1.00  0.00    -0.144 F 
HETATM   20  F3  UNL     1      21.830  -0.590  55.239  1.00  0.00    -0.144 F 
ENDBRANCH  16  17
ENDBRANCH  12  16
ENDBRANCH   7   8
ENDBRANCH   1   7
BRANCH   6  21
HETATM   21  N3  UNL     1      25.917   3.263  49.985  1.00  0.00    -0.340 N 
HETATM   22  H9  UNL     1      25.374   2.605  49.363  1.00  0.00     0.167 HD
BRANCH  21  23
HETATM   23  C13 UNL     1      26.272   4.454  49.345  1.00  0.00     0.035 A 
HETATM   24  C14 UNL     1      25.391   5.460  49.046  1.00  0.00     0.029 A 
HETATM   25  C15 UNL     1      25.761   6.623  48.416  1.00  0.00     0.004 A 
HETATM   26  C16 UNL     1      27.066   6.853  48.042  1.00  0.00     0.019 A 
HETATM   27  C17 UNL     1      27.982   5.864  48.328  1.00  0.00     0.013 A 
HETATM   28 BR1  UNL     1      29.782   6.208  47.799  1.00  0.00    -0.051 Br
HETATM   29  C18 UNL     1      27.566   4.713  48.960  1.00  0.00     0.048 A 
ENDBRANCH  21  23
ENDBRANCH   6  21
TORSDOF 7
ENDMDL
MODEL 3
REMARK VINA RESULT:      -8.3      3.409      5.310
REMARK  7 active torsions:
REMARK  status: ('A' for Active; 'I' for Inactive)
REMARK    1  A    between atoms: O1_1  and  C1_2 
REMARK    2  A    between atoms: C4_5  and  O2_6 
REMARK    3  A    between atoms: O2_6  and  C5_7 
REMARK    4  A    between atoms: C7_12  and  C8_13 
REMARK    5  A    between atoms: C8_13  and  C9_14 
REMARK    6  A    between atoms: C12_19  and  N3_20 
REMARK    7  A    between atoms: N3_20  and  C13_21 
ROOT
HETATM    1  C9  UNL     1      27.152   0.498  53.252  1.00  0.00     0.010 A 
HETATM    2  C10 UNL     1      27.754   0.246  54.462  1.00  0.00     0.129 A 
HETATM    3  N1  UNL     1      28.661   1.141  54.892  1.00  0.00    -0.253 NA
HETATM    4  C11 UNL     1      28.961   2.223  54.173  1.00  0.00     0.234 A 
HETATM    5  N2  UNL     1      28.353   2.424  53.010  1.00  0.00    -0.224 NA
HETATM    6  C12 UNL     1      27.435   1.606  52.479  1.00  0.00     0.137 A 
ENDROOT
BRANCH   1   7
HETATM    7  C8  UNL     1      26.159  -0.504  52.809  1.00  0.00     0.085 C 
BRANCH   7   8
HETATM    8  C7  UNL     1      24.769  -0.210  53.175  1.00  0.00    -0.018 A 
HETATM    9  C1  UNL     1      24.295  -0.816  54.331  1.00  0.00     0.072 A 
HETATM   10  C2  UNL     1      22.989  -0.616  54.787  1.00  0.00     0.040 A 
HETATM   11  C3  UNL     1      22.187   0.219  54.027  1.00  0.00     0.040 A 
HETATM   12  C4  UNL     1      22.611   0.843  52.873  1.00  0.00     0.079 A 
HETATM   13  C6  UNL     1      23.907   0.624  52.451  1.00  0.00     0.047 A 
BRANCH   9  14
HETATM   14  O1  UNL     1      25.066  -1.666  55.129  1.00  0.00    -0.360 OA
HETATM   15  H1  UNL     1      25.669  -2.371  54.761  1.00  0.00     0.217 HD
ENDBRANCH   9  14
BRANCH  12  16
HETATM   16  O2  UNL     1      21.785   1.675  52.132  1.00  0.00    -0.255 OA
BRANCH  16  17
HETATM   17  C5  UNL     1      21.440   1.258  50.821  1.00  0.00     0.530 C 
HETATM   18  F1  UNL     1      20.201   1.798  50.521  1.00  0.00    -0.144 F 
HETATM   19  F2  UNL     1      22.390   1.686  49.898  1.00  0.00    -0.144 F 
HETATM   20  F3  UNL     1      21.314  -0.116  50.712  1.00  0.00    -0.144 F 
ENDBRANCH  16  17
ENDBRANCH  12  16
ENDBRANCH   7   8
ENDBRANCH   1   7
BRANCH   6  21
HETATM   21  N3  UNL     1      26.762   1.781  51.240  1.00  0.00    -0.340 N 
HETATM   22  H9  UNL     1      26.675   0.925  50.628  1.00  0.00     0.167 HD
BRANCH  21  23
HETATM   23  C13 UNL     1      26.182   2.920  50.675  1.00  0.00     0.035 A 
HETATM   24  C14 UNL     1      26.741   3.644  49.654  1.00  0.00     0.029 A 
HETATM   25  C15 UNL     1      26.153   4.760  49.112  1.00  0.00     0.004 A 
HETATM   26  C16 UNL     1      24.941   5.227  49.569  1.00  0.00     0.019 A 
HETATM   27  C17 UNL     1      24.347   4.525  50.595  1.00  0.00     0.013 A 
HETATM   28 BR1  UNL     1      22.670   5.193  51.209  1.00  0.00    -0.051 Br
HETATM   29  C18 UNL     1      24.973   3.411  51.109  1.00  0.00     0.048 A 
ENDBRANCH  21  23
ENDBRANCH   6  21
TORSDOF 7
ENDMDL
MODEL 4
REMARK VINA RESULT:      -8.2      2.595      3.080
REMARK  7 active torsions:
REMARK  status: ('A' for Active; 'I' for Inactive)
REMARK    1  A    between atoms: O1_1  and  C1_2 
REMARK    2  A    between atoms: C4_5  and  O2_6 
REMARK    3  A    between atoms: O2_6  and  C5_7 
REMARK    4  A    between atoms: C7_12  and  C8_13 
REMARK    5  A    between atoms: C8_13  and  C9_14 
REMARK    6  A    between atoms: C12_19  and  N3_20 
REMARK    7  A    between atoms: N3_20  and  C13_21 
ROOT
HETATM    1  C9  UNL     1      23.106   3.890  51.760  1.00  0.00     0.010 A 
HETATM    2  C10 UNL     1      21.865   4.151  52.289  1.00  0.00     0.129 A 
HETATM    3  N1  UNL     1      20.867   4.394  51.420  1.00  0.00    -0.253 NA
HETATM    4  C11 UNL     1      21.078   4.383  50.104  1.00  0.00     0.234 A 
HETATM    5  N2  UNL     1      22.296   4.125  49.639  1.00  0.00    -0.224 NA
HETATM    6  C12 UNL     1      23.364   3.868  50.404  1.00  0.00     0.137 A 
ENDROOT
BRANCH   1   7
HETATM    7  C8  UNL     1      24.180   3.624  52.741  1.00  0.00     0.085 C 
BRANCH   7   8
HETATM    8  C7  UNL     1      24.334   2.219  53.135  1.00  0.00    -0.018 A 
HETATM    9  C1  UNL     1      25.576   1.852  53.635  1.00  0.00     0.072 A 
HETATM   10  C2  UNL     1      25.849   0.544  54.044  1.00  0.00     0.040 A 
HETATM   11  C3  UNL     1      24.817  -0.372  53.928  1.00  0.00     0.040 A 
HETATM   12  C4  UNL     1      23.567  -0.056  53.437  1.00  0.00     0.079 A 
HETATM   13  C6  UNL     1      23.331   1.246  53.041  1.00  0.00     0.047 A 
BRANCH   9  14
HETATM   14  O1  UNL     1      26.646   2.740  53.770  1.00  0.00    -0.360 OA
HETATM   15  H1  UNL     1      26.991   3.307  53.025  1.00  0.00     0.217 HD
ENDBRANCH   9  14
BRANCH  12  16
HETATM   16  O2  UNL     1      22.552  -0.995  53.332  1.00  0.00    -0.255 OA
BRANCH  16  17
HETATM   17  C5  UNL     1      21.790  -1.270  54.496  1.00  0.00     0.530 C 
HETATM   18  F1  UNL     1      22.553  -2.087  55.313  1.00  0.00    -0.144 F 
HETATM   19  F2  UNL     1      21.459  -0.094  55.162  1.00  0.00    -0.144 F 
HETATM   20  F3  UNL     1      20.622  -1.960  54.221  1.00  0.00    -0.144 F 
ENDBRANCH  16  17
ENDBRANCH  12  16
ENDBRANCH   7   8
ENDBRANCH   1   7
BRANCH   6  21
HETATM   21  N3  UNL     1      24.681   3.590  49.949  1.00  0.00    -0.340 N 
HETATM   22  H9  UNL     1      25.004   2.587  50.033  1.00  0.00     0.167 HD
BRANCH  21  23
HETATM   23  C13 UNL     1      25.650   4.433  49.398  1.00  0.00     0.035 A 
HETATM   24  C14 UNL     1      26.955   4.072  49.186  1.00  0.00     0.029 A 
HETATM   25  C15 UNL     1      27.892   4.915  48.642  1.00  0.00     0.004 A 
HETATM   26  C16 UNL     1      27.569   6.201  48.267  1.00  0.00     0.019 A 
HETATM   27  C17 UNL     1      26.265   6.600  48.464  1.00  0.00     0.013 A 
HETATM   28 BR1  UNL     1      25.845   8.384  47.936  1.00  0.00    -0.051 Br
HETATM   29  C18 UNL     1      25.359   5.720  49.013  1.00  0.00     0.048 A 
ENDBRANCH  21  23
ENDBRANCH   6  21
TORSDOF 7
ENDMDL
MODEL 5
REMARK VINA RESULT:      -8.1      1.813      2.111
REMARK  7 active torsions:
REMARK  status: ('A' for Active; 'I' for Inactive)
REMARK    1  A    between atoms: O1_1  and  C1_2 
REMARK    2  A    between atoms: C4_5  and  O2_6 
REMARK    3  A    between atoms: O2_6  and  C5_7 
REMARK    4  A    between atoms: C7_12  and  C8_13 
REMARK    5  A    between atoms: C8_13  and  C9_14 
REMARK    6  A    between atoms: C12_19  and  N3_20 
REMARK    7  A    between atoms: N3_20  and  C13_21 
ROOT
HETATM    1  C9  UNL     1      22.876   2.237  50.577  1.00  0.00     0.010 A 
HETATM    2  C10 UNL     1      21.983   1.260  50.208  1.00  0.00     0.129 A 
HETATM    3  N1  UNL     1      21.698   1.154  48.897  1.00  0.00    -0.253 NA
HETATM    4  C11 UNL     1      22.259   1.964  48.000  1.00  0.00     0.234 A 
HETATM    5  N2  UNL     1      23.118   2.893  48.404  1.00  0.00    -0.224 NA
HETATM    6  C12 UNL     1      23.479   3.094  49.678  1.00  0.00     0.137 A 
ENDROOT
BRANCH   1   7
HETATM    7  C8  UNL     1      23.169   2.325  52.023  1.00  0.00     0.085 C 
BRANCH   7   8
HETATM    8  C7  UNL     1      24.098   1.312  52.536  1.00  0.00    -0.018 A 
HETATM    9  C1  UNL     1      23.544   0.310  53.322  1.00  0.00     0.072 A 
HETATM   10  C2  UNL     1      24.323  -0.713  53.870  1.00  0.00     0.040 A 
HETATM   11  C3  UNL     1      25.678  -0.680  53.590  1.00  0.00     0.040 A 
HETATM   12  C4  UNL     1      26.275   0.294  52.816  1.00  0.00     0.079 A 
HETATM   13  C6  UNL     1      25.476   1.290  52.291  1.00  0.00     0.047 A 
BRANCH   9  14
HETATM   14  O1  UNL     1      22.183   0.235  53.631  1.00  0.00    -0.360 OA
HETATM   15  H1  UNL     1      21.476   0.018  52.961  1.00  0.00     0.217 HD
ENDBRANCH   9  14
BRANCH  12  16
HETATM   16  O2  UNL     1      27.637   0.301  52.553  1.00  0.00    -0.255 OA
BRANCH  16  17
HETATM   17  C5  UNL     1      28.474   1.012  53.451  1.00  0.00     0.530 C 
HETATM   18  F1  UNL     1      29.782   0.653  53.178  1.00  0.00    -0.144 F 
HETATM   19  F2  UNL     1      28.309   2.386  53.302  1.00  0.00    -0.144 F 
HETATM   20  F3  UNL     1      28.238   0.685  54.774  1.00  0.00    -0.144 F 
ENDBRANCH  16  17
ENDBRANCH  12  16
ENDBRANCH   7   8
ENDBRANCH   1   7
BRANCH   6  21
HETATM   21  N3  UNL     1      24.390   4.074  50.153  1.00  0.00    -0.340 N 
HETATM   22  H9  UNL     1      24.238   4.416  51.141  1.00  0.00     0.167 HD
BRANCH  21  23
HETATM   23  C13 UNL     1      25.480   4.682  49.525  1.00  0.00     0.035 A 
HETATM   24  C14 UNL     1      26.706   4.089  49.365  1.00  0.00     0.029 A 
HETATM   25  C15 UNL     1      27.766   4.704  48.745  1.00  0.00     0.004 A 
HETATM   26  C16 UNL     1      27.657   5.978  48.233  1.00  0.00     0.019 A 
HETATM   27  C17 UNL     1      26.439   6.607  48.374  1.00  0.00     0.013 A 
HETATM   28 BR1  UNL     1      26.317   8.370  47.657  1.00  0.00    -0.051 Br
HETATM   29  C18 UNL     1      25.404   5.952  49.005  1.00  0.00     0.048 A 
ENDBRANCH  21  23
ENDBRANCH   6  21
TORSDOF 7
ENDMDL
MODEL 6
REMARK VINA RESULT:      -8.1      1.318      1.648
REMARK  7 active torsions:
REMARK  status: ('A' for Active; 'I' for Inactive)
REMARK    1  A    between atoms: O1_1  and  C1_2 
REMARK    2  A    between atoms: C4_5  and  O2_6 
REMARK    3  A    between atoms: O2_6  and  C5_7 
REMARK    4  A    between atoms: C7_12  and  C8_13 
REMARK    5  A    between atoms: C8_13  and  C9_14 
REMARK    6  A    between atoms: C12_19  and  N3_20 
REMARK    7  A    between atoms: N3_20  and  C13_21 
ROOT
HETATM    1  C9  UNL     1      22.318   2.075  50.655  1.00  0.00     0.010 A 
HETATM    2  C10 UNL     1      21.328   1.228  50.219  1.00  0.00     0.129 A 
HETATM    3  N1  UNL     1      21.237   1.024  48.892  1.00  0.00    -0.253 NA
HETATM    4  C11 UNL     1      22.073   1.619  48.042  1.00  0.00     0.234 A 
HETATM    5  N2  UNL     1      23.015   2.430  48.511  1.00  0.00    -0.224 NA
HETATM    6  C12 UNL     1      23.203   2.710  49.807  1.00  0.00     0.137 A 
ENDROOT
BRANCH   1   7
HETATM    7  C8  UNL     1      22.392   2.277  52.118  1.00  0.00     0.085 C 
BRANCH   7   8
HETATM    8  C7  UNL     1      23.096   1.225  52.860  1.00  0.00    -0.018 A 
HETATM    9  C1  UNL     1      22.301   0.325  53.558  1.00  0.00     0.072 A 
HETATM   10  C2  UNL     1      22.851  -0.722  54.302  1.00  0.00     0.040 A 
HETATM   11  C3  UNL     1      24.232  -0.820  54.310  1.00  0.00     0.040 A 
HETATM   12  C4  UNL     1      25.063   0.049  53.634  1.00  0.00     0.079 A 
HETATM   13  C6  UNL     1      24.487   1.072  52.909  1.00  0.00     0.047 A 
BRANCH   9  14
HETATM   14  O1  UNL     1      20.905   0.385  53.579  1.00  0.00    -0.360 OA
HETATM   15  H1  UNL     1      20.391   1.202  53.833  1.00  0.00     0.217 HD
ENDBRANCH   9  14
BRANCH  12  16
HETATM   16  O2  UNL     1      26.445  -0.075  53.661  1.00  0.00    -0.255 OA
BRANCH  16  17
HETATM   17  C5  UNL     1      27.063  -0.757  52.582  1.00  0.00     0.530 C 
HETATM   18  F1  UNL     1      26.947   0.042  51.458  1.00  0.00    -0.144 F 
HETATM   19  F2  UNL     1      28.403  -1.013  52.857  1.00  0.00    -0.144 F 
HETATM   20  F3  UNL     1      26.442  -1.958  52.283  1.00  0.00    -0.144 F 
ENDBRANCH  16  17
ENDBRANCH  12  16
ENDBRANCH   7   8
ENDBRANCH   1   7
BRANCH   6  21
HETATM   21  N3  UNL     1      24.195   3.570  50.350  1.00  0.00    -0.340 N 
HETATM   22  H9  UNL     1      24.194   3.682  51.400  1.00  0.00     0.167 HD
BRANCH  21  23
HETATM   23  C13 UNL     1      25.197   4.313  49.721  1.00  0.00     0.035 A 
HETATM   24  C14 UNL     1      26.473   3.861  49.507  1.00  0.00     0.029 A 
HETATM   25  C15 UNL     1      27.443   4.607  48.886  1.00  0.00     0.004 A 
HETATM   26  C16 UNL     1      27.187   5.881  48.430  1.00  0.00     0.019 A 
HETATM   27  C17 UNL     1      25.914   6.371  48.626  1.00  0.00     0.013 A 
HETATM   28 BR1  UNL     1      25.586   8.137  47.985  1.00  0.00    -0.051 Br
HETATM   29  C18 UNL     1      24.972   5.587  49.255  1.00  0.00     0.048 A 
ENDBRANCH  21  23
ENDBRANCH   6  21
TORSDOF 7
ENDMDL
MODEL 7
REMARK VINA RESULT:      -8.0      4.819      7.218
REMARK  7 active torsions:
REMARK  status: ('A' for Active; 'I' for Inactive)
REMARK    1  A    between atoms: O1_1  and  C1_2 
REMARK    2  A    between atoms: C4_5  and  O2_6 
REMARK    3  A    between atoms: O2_6  and  C5_7 
REMARK    4  A    between atoms: C7_12  and  C8_13 
REMARK    5  A    between atoms: C8_13  and  C9_14 
REMARK    6  A    between atoms: C12_19  and  N3_20 
REMARK    7  A    between atoms: N3_20  and  C13_21 
ROOT
HETATM    1  C9  UNL     1      21.565   0.870  52.322  1.00  0.00     0.010 A 
HETATM    2  C10 UNL     1      22.403   1.763  51.699  1.00  0.00     0.129 A 
HETATM    3  N1  UNL     1      21.984   3.039  51.615  1.00  0.00    -0.253 NA
HETATM    4  C11 UNL     1      20.807   3.415  52.114  1.00  0.00     0.234 A 
HETATM    5  N2  UNL     1      20.031   2.515  52.708  1.00  0.00    -0.224 NA
HETATM    6  C12 UNL     1      20.340   1.220  52.852  1.00  0.00     0.137 A 
ENDROOT
BRANCH   1   7
HETATM    7  C8  UNL     1      22.056  -0.523  52.400  1.00  0.00     0.085 C 
BRANCH   7   8
HETATM    8  C7  UNL     1      23.095  -0.765  53.407  1.00  0.00    -0.018 A 
HETATM    9  C1  UNL     1      22.656  -1.159  54.663  1.00  0.00     0.072 A 
HETATM   10  C2  UNL     1      23.548  -1.421  55.708  1.00  0.00     0.040 A 
HETATM   11  C3  UNL     1      24.895  -1.266  55.428  1.00  0.00     0.040 A 
HETATM   12  C4  UNL     1      25.379  -0.876  54.197  1.00  0.00     0.079 A 
HETATM   13  C6  UNL     1      24.472  -0.626  53.187  1.00  0.00     0.047 A 
BRANCH   9  14
HETATM   14  O1  UNL     1      21.308  -1.328  54.992  1.00  0.00    -0.360 OA
HETATM   15  H1  UNL     1      20.932  -2.175  55.360  1.00  0.00     0.217 HD
ENDBRANCH   9  14
BRANCH  12  16
HETATM   16  O2  UNL     1      26.736  -0.730  53.946  1.00  0.00    -0.255 OA
BRANCH  16  17
HETATM   17  C5  UNL     1      27.319   0.535  54.214  1.00  0.00     0.530 C 
HETATM   18  F1  UNL     1      28.181   0.381  55.287  1.00  0.00    -0.144 F 
HETATM   19  F2  UNL     1      28.011   1.009  53.103  1.00  0.00    -0.144 F 
HETATM   20  F3  UNL     1      26.386   1.487  54.585  1.00  0.00    -0.144 F 
ENDBRANCH  16  17
ENDBRANCH  12  16
ENDBRANCH   7   8
ENDBRANCH   1   7
BRANCH   6  21
HETATM   21  N3  UNL     1      19.540   0.226  53.477  1.00  0.00    -0.340 N 
HETATM   22  H9  UNL     1      19.798  -0.027  54.469  1.00  0.00     0.167 HD
BRANCH  21  23
HETATM   23  C13 UNL     1      18.445  -0.495  52.995  1.00  0.00     0.035 A 
HETATM   24  C14 UNL     1      17.583  -0.036  52.033  1.00  0.00     0.029 A 
HETATM   25  C15 UNL     1      16.512  -0.761  51.572  1.00  0.00     0.004 A 
HETATM   26  C16 UNL     1      16.234  -2.019  52.058  1.00  0.00     0.019 A 
HETATM   27  C17 UNL     1      17.080  -2.516  53.026  1.00  0.00     0.013 A 
HETATM   28 BR1  UNL     1      16.673  -4.260  53.681  1.00  0.00    -0.051 Br
HETATM   29  C18 UNL     1      18.142  -1.753  53.459  1.00  0.00     0.048 A 
ENDBRANCH  21  23
ENDBRANCH   6  21
TORSDOF 7
ENDMDL
MODEL 8
REMARK VINA RESULT:      -8.0      3.675      5.458
REMARK  7 active torsions:
REMARK  status: ('A' for Active; 'I' for Inactive)
REMARK    1  A    between atoms: O1_1  and  C1_2 
REMARK    2  A    between atoms: C4_5  and  O2_6 
REMARK    3  A    between atoms: O2_6  and  C5_7 
REMARK    4  A    between atoms: C7_12  and  C8_13 
REMARK    5  A    between atoms: C8_13  and  C9_14 
REMARK    6  A    between atoms: C12_19  and  N3_20 
REMARK    7  A    between atoms: N3_20  and  C13_21 
ROOT
HETATM    1  C9  UNL     1      24.751   3.623  51.402  1.00  0.00     0.010 A 
HETATM    2  C10 UNL     1      24.297   4.150  50.217  1.00  0.00     0.129 A 
HETATM    3  N1  UNL     1      25.144   4.127  49.172  1.00  0.00    -0.253 NA
HETATM    4  C11 UNL     1      26.370   3.616  49.286  1.00  0.00     0.234 A 
HETATM    5  N2  UNL     1      26.765   3.118  50.453  1.00  0.00    -0.224 NA
HETATM    6  C12 UNL     1      26.013   3.085  51.560  1.00  0.00     0.137 A 
ENDROOT
BRANCH   1   7
HETATM    7  C8  UNL     1      23.796   3.661  52.530  1.00  0.00     0.085 C 
BRANCH   7   8
HETATM    8  C7  UNL     1      22.775   2.607  52.521  1.00  0.00    -0.018 A 
HETATM    9  C1  UNL     1      21.501   2.987  52.123  1.00  0.00     0.072 A 
HETATM   10  C2  UNL     1      20.442   2.076  52.071  1.00  0.00     0.040 A 
HETATM   11  C3  UNL     1      20.726   0.771  52.437  1.00  0.00     0.040 A 
HETATM   12  C4  UNL     1      21.975   0.346  52.840  1.00  0.00     0.079 A 
HETATM   13  C6  UNL     1      22.999   1.272  52.880  1.00  0.00     0.047 A 
BRANCH   9  14
HETATM   14  O1  UNL     1      21.167   4.290  51.745  1.00  0.00    -0.360 OA
HETATM   15  H1  UNL     1      20.693   4.934  52.343  1.00  0.00     0.217 HD
ENDBRANCH   9  14
BRANCH  12  16
HETATM   16  O2  UNL     1      22.231  -0.969  53.202  1.00  0.00    -0.255 OA
BRANCH  16  17
HETATM   17  C5  UNL     1      22.337  -1.259  54.586  1.00  0.00     0.530 C 
HETATM   18  F1  UNL     1      21.562  -0.337  55.269  1.00  0.00    -0.144 F 
HETATM   19  F2  UNL     1      21.902  -2.552  54.858  1.00  0.00    -0.144 F 
HETATM   20  F3  UNL     1      23.629  -1.124  55.063  1.00  0.00    -0.144 F 
ENDBRANCH  16  17
ENDBRANCH  12  16
ENDBRANCH   7   8
ENDBRANCH   1   7
BRANCH   6  21
HETATM   21  N3  UNL     1      26.395   2.564  52.825  1.00  0.00    -0.340 N 
HETATM   22  H9  UNL     1      25.874   2.938  53.664  1.00  0.00     0.167 HD
BRANCH  21  23
HETATM   23  C13 UNL     1      27.367   1.618  53.163  1.00  0.00     0.035 A 
HETATM   24  C14 UNL     1      28.550   1.919  53.787  1.00  0.00     0.029 A 
HETATM   25  C15 UNL     1      29.493   0.974  54.111  1.00  0.00     0.004 A 
HETATM   26  C16 UNL     1      29.301  -0.359  53.823  1.00  0.00     0.019 A 
HETATM   27  C17 UNL     1      28.123  -0.700  53.196  1.00  0.00     0.013 A 
HETATM   28 BR1  UNL     1      27.883  -2.552  52.810  1.00  0.00    -0.051 Br
HETATM   29  C18 UNL     1      27.206   0.281  52.890  1.00  0.00     0.048 A 
ENDBRANCH  21  23
ENDBRANCH   6  21
TORSDOF 7
ENDMDL
MODEL 9
REMARK VINA RESULT:      -8.0      2.579      3.121
REMARK  7 active torsions:
REMARK  status: ('A' for Active; 'I' for Inactive)
REMARK    1  A    between atoms: O1_1  and  C1_2 
REMARK    2  A    between atoms: C4_5  and  O2_6 
REMARK    3  A    between atoms: O2_6  and  C5_7 
REMARK    4  A    between atoms: C7_12  and  C8_13 
REMARK    5  A    between atoms: C8_13  and  C9_14 
REMARK    6  A    between atoms: C12_19  and  N3_20 
REMARK    7  A    between atoms: N3_20  and  C13_21 
ROOT
HETATM    1  C9  UNL     1      23.731   3.222  50.842  1.00  0.00     0.010 A 
HETATM    2  C10 UNL     1      22.395   3.029  51.102  1.00  0.00     0.129 A 
HETATM    3  N1  UNL     1      21.551   3.101  50.056  1.00  0.00    -0.253 NA
HETATM    4  C11 UNL     1      21.996   3.349  48.824  1.00  0.00     0.234 A 
HETATM    5  N2  UNL     1      23.296   3.529  48.622  1.00  0.00    -0.224 NA
HETATM    6  C12 UNL     1      24.229   3.481  49.581  1.00  0.00     0.137 A 
ENDROOT
BRANCH   1   7
HETATM    7  C8  UNL     1      24.632   3.134  52.011  1.00  0.00     0.085 C 
BRANCH   7   8
HETATM    8  C7  UNL     1      24.926   1.773  52.473  1.00  0.00    -0.018 A 
HETATM    9  C1  UNL     1      26.080   1.188  51.969  1.00  0.00     0.072 A 
HETATM   10  C2  UNL     1      26.471  -0.104  52.332  1.00  0.00     0.040 A 
HETATM   11  C3  UNL     1      25.650  -0.775  53.222  1.00  0.00     0.040 A 
HETATM   12  C4  UNL     1      24.494  -0.236  53.749  1.00  0.00     0.079 A 
HETATM   13  C6  UNL     1      24.137   1.042  53.369  1.00  0.00     0.047 A 
BRANCH   9  14
HETATM   14  O1  UNL     1      26.939   1.825  51.069  1.00  0.00    -0.360 OA
HETATM   15  H1  UNL     1      26.630   2.470  50.373  1.00  0.00     0.217 HD
ENDBRANCH   9  14
BRANCH  12  16
HETATM   16  O2  UNL     1      23.690  -0.933  54.640  1.00  0.00    -0.255 OA
BRANCH  16  17
HETATM   17  C5  UNL     1      22.353  -1.195  54.248  1.00  0.00     0.530 C 
HETATM   18  F1  UNL     1      21.566  -0.160  54.721  1.00  0.00    -0.144 F 
HETATM   19  F2  UNL     1      22.249  -1.286  52.862  1.00  0.00    -0.144 F 
HETATM   20  F3  UNL     1      21.852  -2.362  54.799  1.00  0.00    -0.144 F 
ENDBRANCH  16  17
ENDBRANCH  12  16
ENDBRANCH   7   8
ENDBRANCH   1   7
BRANCH   6  21
HETATM   21  N3  UNL     1      25.628   3.668  49.409  1.00  0.00    -0.340 N 
HETATM   22  H9  UNL     1      26.243   2.839  49.632  1.00  0.00     0.167 HD
BRANCH  21  23
HETATM   23  C13 UNL     1      26.350   4.787  48.986  1.00  0.00     0.035 A 
HETATM   24  C14 UNL     1      25.804   6.031  48.803  1.00  0.00     0.029 A 
HETATM   25  C15 UNL     1      26.532   7.119  48.388  1.00  0.00     0.004 A 
HETATM   26  C16 UNL     1      27.881   7.024  48.126  1.00  0.00     0.019 A 
HETATM   27  C17 UNL     1      28.465   5.788  48.300  1.00  0.00     0.013 A 
HETATM   28 BR1  UNL     1      30.333   5.684  47.931  1.00  0.00    -0.051 Br
HETATM   29  C18 UNL     1      27.696   4.724  48.718  1.00  0.00     0.048 A 
ENDBRANCH  21  23
ENDBRANCH   6  21
TORSDOF 7
ENDMDL
