MODEL 1
REMARK VINA RESULT:      -7.5      0.000      0.000
REMARK  0 active torsions:
REMARK  status: ('A' for Active; 'I' for Inactive)
ROOT
HETATM    1  C1  UNL     1      32.622   2.433  46.674  1.00  0.00     0.045 C 
HETATM    2  C2  UNL     1      32.767   3.618  46.170  1.00  0.00     0.051 C 
HETATM    3  C3  UNL     1      32.753   4.749  45.306  1.00  0.00     0.050 C 
HETATM    4  C4  UNL     1      33.046   6.026  45.071  1.00  0.00     0.014 C 
HETATM    5 BR1  UNL     1      32.509   6.635  43.347  1.00  0.00    -0.051 Br
HETATM    6  C5  UNL     1      33.723   7.163  45.620  1.00  0.00     0.034 C 
HETATM    7  C6  UNL     1      33.260   8.367  45.737  1.00  0.00     0.012 C 
HETATM    8  C7  UNL     1      32.077   8.517  46.254  1.00  0.00     0.080 C 
HETATM    9  C8  UNL     1      31.142   7.418  46.034  1.00  0.00     0.036 C 
HETATM   10  C9  UNL     1      30.008   7.375  46.781  1.00  0.00     0.007 C 
HETATM   11  C10 UNL     1      29.787   7.073  48.252  1.00  0.00     0.161 C 
HETATM   12  N1  UNL     1      29.912   5.626  48.208  1.00  0.00    -0.383 N 
HETATM   13  C11 UNL     1      31.056   5.031  47.571  1.00  0.00     0.120 C 
HETATM   14  C12 UNL     1      32.342   5.186  47.949  1.00  0.00     0.127 A 
HETATM   15  C13 UNL     1      32.835   6.059  49.051  1.00  0.00     0.201 A 
HETATM   16  N2  UNL     1      34.075   6.066  49.380  1.00  0.00    -0.214 NA
HETATM   17  C14 UNL     1      34.965   5.223  48.662  1.00  0.00     0.258 A 
HETATM   18  N3  UNL     1      34.617   4.423  47.669  1.00  0.00    -0.160 NA
HETATM   19  N4  UNL     1      33.283   4.351  47.243  1.00  0.00    -0.228 N 
HETATM   20  O1  UNL     1      31.893   6.925  49.747  1.00  0.00    -0.292 OA
HETATM   21  C15 UNL     1      30.938   7.728  48.998  1.00  0.00     0.080 C 
HETATM   22  C16 UNL     1      31.337   9.020  49.152  1.00  0.00     0.035 C 
HETATM   23  C17 UNL     1      31.226  10.108  48.119  1.00  0.00     0.205 C 
HETATM   24  O2  UNL     1      31.993   9.762  46.927  1.00  0.00    -0.347 OA
HETATM   25  H8  UNL     1      29.166   5.052  48.643  1.00  0.00     0.160 HD
ENDROOT
TORSDOF 0
ENDMDL
MODEL 2
REMARK VINA RESULT:      -7.4      8.193     10.132
REMARK  0 active torsions:
REMARK  status: ('A' for Active; 'I' for Inactive)
ROOT
HETATM    1  C1  UNL     1      24.843   2.482  53.257  1.00  0.00     0.045 C 
HETATM    2  C2  UNL     1      24.174   2.378  52.153  1.00  0.00     0.051 C 
HETATM    3  C3  UNL     1      23.213   2.030  51.162  1.00  0.00     0.050 C 
HETATM    4  C4  UNL     1      22.761   2.111  49.913  1.00  0.00     0.014 C 
HETATM    5 BR1  UNL     1      21.165   1.118  49.605  1.00  0.00    -0.051 Br
HETATM    6  C5  UNL     1      23.079   2.625  48.613  1.00  0.00     0.034 C 
HETATM    7  C6  UNL     1      22.308   3.319  47.838  1.00  0.00     0.012 C 
HETATM    8  C7  UNL     1      21.680   4.334  48.353  1.00  0.00     0.080 C 
HETATM    9  C8  UNL     1      21.344   4.224  49.768  1.00  0.00     0.036 C 
HETATM   10  C9  UNL     1      20.959   5.345  50.430  1.00  0.00     0.007 C 
HETATM   11  C10 UNL     1      21.742   6.572  50.865  1.00  0.00     0.161 C 
HETATM   12  N1  UNL     1      22.411   6.013  52.028  1.00  0.00    -0.383 N 
HETATM   13  C11 UNL     1      23.129   4.774  51.907  1.00  0.00     0.120 C 
HETATM   14  C12 UNL     1      24.201   4.553  51.117  1.00  0.00     0.127 A 
HETATM   15  C13 UNL     1      24.803   5.525  50.161  1.00  0.00     0.201 A 
HETATM   16  N2  UNL     1      25.876   5.238  49.519  1.00  0.00    -0.214 NA
HETATM   17  C14 UNL     1      26.470   3.967  49.739  1.00  0.00     0.258 A 
HETATM   18  N3  UNL     1      26.002   3.042  50.561  1.00  0.00    -0.160 NA
HETATM   19  N4  UNL     1      24.835   3.272  51.303  1.00  0.00    -0.228 N 
HETATM   20  O1  UNL     1      24.150   6.810  49.948  1.00  0.00    -0.292 OA
HETATM   21  C15 UNL     1      22.712   6.879  49.735  1.00  0.00     0.080 C 
HETATM   22  C16 UNL     1      22.546   7.241  48.433  1.00  0.00     0.035 C 
HETATM   23  C17 UNL     1      21.439   6.781  47.524  1.00  0.00     0.205 C 
HETATM   24  O2  UNL     1      21.474   5.331  47.366  1.00  0.00    -0.347 OA
HETATM   25  H8  UNL     1      22.354   6.529  52.926  1.00  0.00     0.160 HD
ENDROOT
TORSDOF 0
ENDMDL
MODEL 3
REMARK VINA RESULT:      -7.1      2.403      5.096
REMARK  0 active torsions:
REMARK  status: ('A' for Active; 'I' for Inactive)
ROOT
HETATM    1  C1  UNL     1      30.455  11.692  49.009  1.00  0.00     0.045 C 
HETATM    2  C2  UNL     1      31.117  11.014  48.124  1.00  0.00     0.051 C 
HETATM    3  C3  UNL     1      32.134  10.507  47.268  1.00  0.00     0.050 C 
HETATM    4  C4  UNL     1      32.528   9.668  46.313  1.00  0.00     0.014 C 
HETATM    5 BR1  UNL     1      34.363   9.850  45.836  1.00  0.00    -0.051 Br
HETATM    6  C5  UNL     1      32.051   8.675  45.396  1.00  0.00     0.034 C 
HETATM    7  C6  UNL     1      32.542   7.493  45.200  1.00  0.00     0.012 C 
HETATM    8  C7  UNL     1      32.796   6.758  46.241  1.00  0.00     0.080 C 
HETATM    9  C8  UNL     1      33.157   7.479  47.457  1.00  0.00     0.036 C 
HETATM   10  C9  UNL     1      33.147   6.804  48.635  1.00  0.00     0.007 C 
HETATM   11  C10 UNL     1      32.000   6.264  49.472  1.00  0.00     0.161 C 
HETATM   12  N1  UNL     1      31.561   7.507  50.085  1.00  0.00    -0.383 N 
HETATM   13  C11 UNL     1      31.299   8.653  49.257  1.00  0.00     0.120 C 
HETATM   14  C12 UNL     1      30.360   8.733  48.291  1.00  0.00     0.127 A 
HETATM   15  C13 UNL     1      29.463   7.630  47.843  1.00  0.00     0.201 A 
HETATM   16  N2  UNL     1      28.545   7.840  46.971  1.00  0.00    -0.214 NA
HETATM   17  C14 UNL     1      28.412   9.151  46.441  1.00  0.00     0.258 A 
HETATM   18  N3  UNL     1      29.165  10.185  46.774  1.00  0.00    -0.160 NA
HETATM   19  N4  UNL     1      30.191  10.046  47.720  1.00  0.00    -0.228 N 
HETATM   20  O1  UNL     1      29.648   6.294  48.395  1.00  0.00    -0.292 OA
HETATM   21  C15 UNL     1      30.979   5.714  48.490  1.00  0.00     0.080 C 
HETATM   22  C16 UNL     1      31.010   4.704  47.578  1.00  0.00     0.035 C 
HETATM   23  C17 UNL     1      32.203   4.287  46.762  1.00  0.00     0.205 C 
HETATM   24  O2  UNL     1      32.654   5.385  45.915  1.00  0.00    -0.347 OA
HETATM   25  H8  UNL     1      31.446   7.537  51.115  1.00  0.00     0.160 HD
ENDROOT
TORSDOF 0
ENDMDL
MODEL 4
REMARK VINA RESULT:      -7.0      9.358     11.408
REMARK  0 active torsions:
REMARK  status: ('A' for Active; 'I' for Inactive)
ROOT
HETATM    1  C1  UNL     1      26.427   3.239  49.490  1.00  0.00     0.045 C 
HETATM    2  C2  UNL     1      25.450   3.873  50.060  1.00  0.00     0.051 C 
HETATM    3  C3  UNL     1      24.478   4.846  50.425  1.00  0.00     0.050 C 
HETATM    4  C4  UNL     1      23.465   5.233  51.198  1.00  0.00     0.014 C 
HETATM    5 BR1  UNL     1      22.796   6.967  50.777  1.00  0.00    -0.051 Br
HETATM    6  C5  UNL     1      22.693   4.856  52.345  1.00  0.00     0.034 C 
HETATM    7  C6  UNL     1      21.402   4.831  52.443  1.00  0.00     0.012 C 
HETATM    8  C7  UNL     1      20.730   4.247  51.497  1.00  0.00     0.080 C 
HETATM    9  C8  UNL     1      21.336   4.282  50.170  1.00  0.00     0.036 C 
HETATM   10  C9  UNL     1      20.845   3.454  49.213  1.00  0.00     0.007 C 
HETATM   11  C10 UNL     1      20.931   1.946  49.050  1.00  0.00     0.161 C 
HETATM   12  N1  UNL     1      22.293   1.849  48.552  1.00  0.00    -0.383 N 
HETATM   13  C11 UNL     1      23.357   2.503  49.264  1.00  0.00     0.120 C 
HETATM   14  C12 UNL     1      23.743   2.239  50.530  1.00  0.00     0.127 A 
HETATM   15  C13 UNL     1      23.096   1.273  51.462  1.00  0.00     0.201 A 
HETATM   16  N2  UNL     1      23.598   1.039  52.620  1.00  0.00    -0.214 NA
HETATM   17  C14 UNL     1      24.783   1.729  52.990  1.00  0.00     0.258 A 
HETATM   18  N3  UNL     1      25.419   2.606  52.231  1.00  0.00    -0.160 NA
HETATM   19  N4  UNL     1      24.941   2.922  50.951  1.00  0.00    -0.228 N 
HETATM   20  O1  UNL     1      21.869   0.603  51.053  1.00  0.00    -0.292 OA
HETATM   21  C15 UNL     1      20.784   1.359  50.444  1.00  0.00     0.080 C 
HETATM   22  C16 UNL     1      19.778   1.370  51.362  1.00  0.00     0.035 C 
HETATM   23  C17 UNL     1      18.815   2.500  51.602  1.00  0.00     0.205 C 
HETATM   24  O2  UNL     1      19.528   3.703  52.017  1.00  0.00    -0.347 OA
HETATM   25  H8  UNL     1      22.466   1.303  47.688  1.00  0.00     0.160 HD
ENDROOT
TORSDOF 0
ENDMDL
MODEL 5
REMARK VINA RESULT:      -6.8     10.157     12.420
REMARK  0 active torsions:
REMARK  status: ('A' for Active; 'I' for Inactive)
ROOT
HETATM    1  C1  UNL     1      19.770   0.087  52.149  1.00  0.00     0.045 C 
HETATM    2  C2  UNL     1      20.593   1.088  52.184  1.00  0.00     0.051 C 
HETATM    3  C3  UNL     1      21.731   1.917  52.385  1.00  0.00     0.050 C 
HETATM    4  C4  UNL     1      22.324   3.106  52.299  1.00  0.00     0.014 C 
HETATM    5 BR1  UNL     1      24.119   3.120  52.939  1.00  0.00    -0.051 Br
HETATM    6  C5  UNL     1      22.089   4.479  51.962  1.00  0.00     0.034 C 
HETATM    7  C6  UNL     1      22.799   5.223  51.175  1.00  0.00     0.012 C 
HETATM    8  C7  UNL     1      23.126   4.742  50.013  1.00  0.00     0.080 C 
HETATM    9  C8  UNL     1      23.280   3.292  49.944  1.00  0.00     0.036 C 
HETATM   10  C9  UNL     1      23.330   2.705  48.721  1.00  0.00     0.007 C 
HETATM   11  C10 UNL     1      22.258   2.492  47.666  1.00  0.00     0.161 C 
HETATM   12  N1  UNL     1      21.565   1.366  48.271  1.00  0.00    -0.383 N 
HETATM   13  C11 UNL     1      21.143   1.447  49.643  1.00  0.00     0.120 C 
HETATM   14  C12 UNL     1      20.259   2.333  50.149  1.00  0.00     0.127 A 
HETATM   15  C13 UNL     1      19.606   3.446  49.403  1.00  0.00     0.201 A 
HETATM   16  N2  UNL     1      18.715   4.179  49.964  1.00  0.00    -0.214 NA
HETATM   17  C14 UNL     1      18.372   3.905  51.314  1.00  0.00     0.258 A 
HETATM   18  N3  UNL     1      18.904   2.945  52.053  1.00  0.00    -0.160 NA
HETATM   19  N4  UNL     1      19.884   2.095  51.520  1.00  0.00    -0.228 N 
HETATM   20  O1  UNL     1      20.003   3.708  48.026  1.00  0.00    -0.292 OA
HETATM   21  C15 UNL     1      21.411   3.754  47.661  1.00  0.00     0.080 C 
HETATM   22  C16 UNL     1      21.676   5.057  47.367  1.00  0.00     0.035 C 
HETATM   23  C17 UNL     1      22.968   5.777  47.639  1.00  0.00     0.205 C 
HETATM   24  O2  UNL     1      23.256   5.792  49.069  1.00  0.00    -0.347 OA
HETATM   25  H8  UNL     1      21.390   0.524  47.691  1.00  0.00     0.160 HD
ENDROOT
TORSDOF 0
ENDMDL
MODEL 6
REMARK VINA RESULT:      -6.6      9.001     11.049
REMARK  0 active torsions:
REMARK  status: ('A' for Active; 'I' for Inactive)
ROOT
HETATM    1  C1  UNL     1      21.172   0.791  48.961  1.00  0.00     0.045 C 
HETATM    2  C2  UNL     1      21.917   1.472  49.775  1.00  0.00     0.051 C 
HETATM    3  C3  UNL     1      22.997   1.940  50.575  1.00  0.00     0.050 C 
HETATM    4  C4  UNL     1      23.494   2.816  51.445  1.00  0.00     0.014 C 
HETATM    5 BR1  UNL     1      25.306   2.477  51.928  1.00  0.00    -0.051 Br
HETATM    6  C5  UNL     1      23.143   3.936  52.267  1.00  0.00     0.034 C 
HETATM    7  C6  UNL     1      23.764   5.070  52.349  1.00  0.00     0.012 C 
HETATM    8  C7  UNL     1      24.082   5.672  51.242  1.00  0.00     0.080 C 
HETATM    9  C8  UNL     1      24.342   4.806  50.097  1.00  0.00     0.036 C 
HETATM   10  C9  UNL     1      24.389   5.365  48.861  1.00  0.00     0.007 C 
HETATM   11  C10 UNL     1      23.296   5.948  47.982  1.00  0.00     0.161 C 
HETATM   12  N1  UNL     1      22.714   4.710  47.491  1.00  0.00    -0.383 N 
HETATM   13  C11 UNL     1      22.340   3.683  48.425  1.00  0.00     0.120 C 
HETATM   14  C12 UNL     1      21.412   3.797  49.399  1.00  0.00     0.127 A 
HETATM   15  C13 UNL     1      20.649   5.029  49.745  1.00  0.00     0.201 A 
HETATM   16  N2  UNL     1      19.727   5.004  50.637  1.00  0.00    -0.214 NA
HETATM   17  C14 UNL     1      19.458   3.771  51.289  1.00  0.00     0.258 A 
HETATM   18  N3  UNL     1      20.089   2.633  51.051  1.00  0.00    -0.160 NA
HETATM   19  N4  UNL     1      21.109   2.569  50.091  1.00  0.00    -0.228 N 
HETATM   20  O1  UNL     1      20.971   6.279  49.069  1.00  0.00    -0.292 OA
HETATM   21  C15 UNL     1      22.356   6.697  48.914  1.00  0.00     0.080 C 
HETATM   22  C16 UNL     1      22.511   7.778  49.726  1.00  0.00     0.035 C 
HETATM   23  C17 UNL     1      23.755   8.134  50.494  1.00  0.00     0.205 C 
HETATM   24  O2  UNL     1      24.096   7.076  51.438  1.00  0.00    -0.347 OA
HETATM   25  H8  UNL     1      22.581   4.598  46.469  1.00  0.00     0.160 HD
ENDROOT
TORSDOF 0
ENDMDL
MODEL 7
REMARK VINA RESULT:      -6.5      3.411      5.227
REMARK  0 active torsions:
REMARK  status: ('A' for Active; 'I' for Inactive)
ROOT
HETATM    1  C1  UNL     1      26.123   7.843  50.075  1.00  0.00     0.045 C 
HETATM    2  C2  UNL     1      26.506   8.169  48.881  1.00  0.00     0.051 C 
HETATM    3  C3  UNL     1      26.613   8.764  47.592  1.00  0.00     0.050 C 
HETATM    4  C4  UNL     1      27.231   8.874  46.419  1.00  0.00     0.014 C 
HETATM    5 BR1  UNL     1      26.440  10.153  45.249  1.00  0.00    -0.051 Br
HETATM    6  C5  UNL     1      28.279   8.308  45.621  1.00  0.00     0.034 C 
HETATM    7  C6  UNL     1      29.226   8.945  45.010  1.00  0.00     0.012 C 
HETATM    8  C7  UNL     1      29.889   9.840  45.680  1.00  0.00     0.080 C 
HETATM    9  C8  UNL     1      29.151  10.519  46.740  1.00  0.00     0.036 C 
HETATM   10  C9  UNL     1      29.850  11.239  47.655  1.00  0.00     0.007 C 
HETATM   11  C10 UNL     1      30.773  10.804  48.780  1.00  0.00     0.161 C 
HETATM   12  N1  UNL     1      29.771  10.389  49.748  1.00  0.00    -0.383 N 
HETATM   13  C11 UNL     1      28.733   9.477  49.349  1.00  0.00     0.120 C 
HETATM   14  C12 UNL     1      28.915   8.213  48.912  1.00  0.00     0.127 A 
HETATM   15  C13 UNL     1      30.226   7.541  48.687  1.00  0.00     0.201 A 
HETATM   16  N2  UNL     1      30.281   6.305  48.348  1.00  0.00    -0.214 NA
HETATM   17  C14 UNL     1      29.061   5.596  48.189  1.00  0.00     0.258 A 
HETATM   18  N3  UNL     1      27.855   6.113  48.361  1.00  0.00    -0.160 NA
HETATM   19  N4  UNL     1      27.701   7.457  48.732  1.00  0.00    -0.228 N 
HETATM   20  O1  UNL     1      31.454   8.309  48.839  1.00  0.00    -0.292 OA
HETATM   21  C15 UNL     1      31.575   9.631  48.242  1.00  0.00     0.080 C 
HETATM   22  C16 UNL     1      32.475   9.500  47.229  1.00  0.00     0.035 C 
HETATM   23  C17 UNL     1      32.442  10.238  45.918  1.00  0.00     0.205 C 
HETATM   24  O2  UNL     1      31.217   9.933  45.189  1.00  0.00    -0.347 OA
HETATM   25  H8  UNL     1      29.831  10.764  50.713  1.00  0.00     0.160 HD
ENDROOT
TORSDOF 0
ENDMDL
MODEL 8
REMARK VINA RESULT:      -6.5      9.068     11.103
REMARK  0 active torsions:
REMARK  status: ('A' for Active; 'I' for Inactive)
ROOT
HETATM    1  C1  UNL     1      20.729   6.137  47.326  1.00  0.00     0.045 C 
HETATM    2  C2  UNL     1      21.857   5.867  47.905  1.00  0.00     0.051 C 
HETATM    3  C3  UNL     1      23.111   5.962  48.571  1.00  0.00     0.050 C 
HETATM    4  C4  UNL     1      24.188   5.380  49.093  1.00  0.00     0.014 C 
HETATM    5 BR1  UNL     1      25.438   6.606  49.845  1.00  0.00    -0.051 Br
HETATM    6  C5  UNL     1      24.845   4.115  49.242  1.00  0.00     0.034 C 
HETATM    7  C6  UNL     1      25.314   3.603  50.336  1.00  0.00     0.012 C 
HETATM    8  C7  UNL     1      24.549   3.604  51.386  1.00  0.00     0.080 C 
HETATM    9  C8  UNL     1      23.589   4.700  51.474  1.00  0.00     0.036 C 
HETATM   10  C9  UNL     1      22.579   4.603  52.376  1.00  0.00     0.007 C 
HETATM   11  C10 UNL     1      21.345   3.718  52.408  1.00  0.00     0.161 C 
HETATM   12  N1  UNL     1      20.527   4.432  51.443  1.00  0.00    -0.383 N 
HETATM   13  C11 UNL     1      21.075   4.764  50.155  1.00  0.00     0.120 C 
HETATM   14  C12 UNL     1      21.500   3.883  49.225  1.00  0.00     0.127 A 
HETATM   15  C13 UNL     1      21.555   2.402  49.378  1.00  0.00     0.201 A 
HETATM   16  N2  UNL     1      21.899   1.651  48.396  1.00  0.00    -0.214 NA
HETATM   17  C14 UNL     1      22.231   2.271  47.162  1.00  0.00     0.258 A 
HETATM   18  N3  UNL     1      22.216   3.575  46.939  1.00  0.00    -0.160 NA
HETATM   19  N4  UNL     1      21.852   4.469  47.956  1.00  0.00    -0.228 N 
HETATM   20  O1  UNL     1      21.228   1.807  50.667  1.00  0.00    -0.292 OA
HETATM   21  C15 UNL     1      21.785   2.357  51.894  1.00  0.00     0.080 C 
HETATM   22  C16 UNL     1      22.669   1.427  52.350  1.00  0.00     0.035 C 
HETATM   23  C17 UNL     1      23.962   1.713  53.063  1.00  0.00     0.205 C 
HETATM   24  O2  UNL     1      24.855   2.494  52.213  1.00  0.00    -0.347 OA
HETATM   25  H8  UNL     1      19.558   4.688  51.709  1.00  0.00     0.160 HD
ENDROOT
TORSDOF 0
ENDMDL
MODEL 9
REMARK VINA RESULT:      -6.4      2.874      4.464
REMARK  0 active torsions:
REMARK  status: ('A' for Active; 'I' for Inactive)
ROOT
HETATM    1  C1  UNL     1      32.078   7.475  44.574  1.00  0.00     0.045 C 
HETATM    2  C2  UNL     1      31.846   8.195  45.626  1.00  0.00     0.051 C 
HETATM    3  C3  UNL     1      31.695   9.278  46.537  1.00  0.00     0.050 C 
HETATM    4  C4  UNL     1      31.401   9.731  47.754  1.00  0.00     0.014 C 
HETATM    5 BR1  UNL     1      31.526  11.625  47.921  1.00  0.00    -0.051 Br
HETATM    6  C5  UNL     1      31.085   9.308  49.086  1.00  0.00     0.034 C 
HETATM    7  C6  UNL     1      30.104   9.719  49.825  1.00  0.00     0.012 C 
HETATM    8  C7  UNL     1      28.918   9.758  49.296  1.00  0.00     0.080 C 
HETATM    9  C8  UNL     1      28.869  10.000  47.858  1.00  0.00     0.036 C 
HETATM   10  C9  UNL     1      27.704   9.764  47.202  1.00  0.00     0.007 C 
HETATM   11  C10 UNL     1      26.992   8.467  46.857  1.00  0.00     0.161 C 
HETATM   12  N1  UNL     1      27.808   8.053  45.728  1.00  0.00    -0.383 N 
HETATM   13  C11 UNL     1      29.239   8.011  45.865  1.00  0.00     0.120 C 
HETATM   14  C12 UNL     1      29.930   7.230  46.722  1.00  0.00     0.127 A 
HETATM   15  C13 UNL     1      29.346   6.316  47.743  1.00  0.00     0.201 A 
HETATM   16  N2  UNL     1      30.098   5.554  48.451  1.00  0.00    -0.214 NA
HETATM   17  C14 UNL     1      31.501   5.611  48.238  1.00  0.00     0.258 A 
HETATM   18  N3  UNL     1      32.105   6.394  47.360  1.00  0.00    -0.160 NA
HETATM   19  N4  UNL     1      31.361   7.258  46.544  1.00  0.00    -0.228 N 
HETATM   20  O1  UNL     1      27.904   6.305  47.947  1.00  0.00    -0.292 OA
HETATM   21  C15 UNL     1      27.166   7.554  48.060  1.00  0.00     0.080 C 
HETATM   22  C16 UNL     1      26.758   7.629  49.357  1.00  0.00     0.035 C 
HETATM   23  C17 UNL     1      26.637   8.886  50.173  1.00  0.00     0.205 C 
HETATM   24  O2  UNL     1      27.932   9.547  50.293  1.00  0.00    -0.347 OA
HETATM   25  H8  UNL     1      27.333   7.794  44.844  1.00  0.00     0.160 HD
ENDROOT
TORSDOF 0
ENDMDL
