MODEL 1
REMARK VINA RESULT:      -9.2      0.000      0.000
REMARK  5 active torsions:
REMARK  status: ('A' for Active; 'I' for Inactive)
REMARK    1  A    between atoms: O1_2  and  C2_3 
REMARK    2  A    between atoms: C7_8  and  O2_9 
REMARK    3  A    between atoms: C12_15  and  C13_16 
REMARK    4  A    between atoms: C13_16  and  C14_17 
REMARK    5  A    between atoms: C19_22  and  N2_23 
ROOT
HETATM    1  C2  UNL     1      18.707   0.584  50.976  1.00  0.00     0.103 A 
HETATM    2  C3  UNL     1      19.853   0.888  50.206  1.00  0.00     0.073 A 
HETATM    3  C4  UNL     1      21.168   0.727  50.693  1.00  0.00     0.087 A 
HETATM    4  C5  UNL     1      21.354   0.252  51.966  1.00  0.00     0.068 A 
HETATM    5  C6  UNL     1      20.166  -0.023  52.657  1.00  0.00     0.071 A 
HETATM    6  C7  UNL     1      18.854   0.110  52.249  1.00  0.00     0.103 A 
HETATM    7  N1  UNL     1      22.584   0.005  52.623  1.00  0.00    -0.324 N 
HETATM    8  C9  UNL     1      22.520  -1.025  53.645  1.00  0.00     0.094 C 
HETATM    9  C10 UNL     1      23.491  -1.218  54.519  1.00  0.00     0.018 C 
HETATM   10  C11 UNL     1      24.659  -0.384  54.430  1.00  0.00     0.009 C 
HETATM   11  C12 UNL     1      24.806   0.564  53.475  1.00  0.00    -0.027 C 
HETATM   12  C20 UNL     1      23.823   0.710  52.390  1.00  0.00     0.258 C 
HETATM   13  O3  UNL     1      23.645   2.029  52.066  1.00  0.00    -0.357 OA
HETATM   14  C21 UNL     1      24.278   2.382  50.873  1.00  0.00     0.217 C 
HETATM   15  C22 UNL     1      23.916   3.785  50.572  1.00  0.00     0.117 C 
HETATM   16  N3  UNL     1      22.873   3.659  49.818  1.00  0.00    -0.256 NA
HETATM   17  C23 UNL     1      22.373   2.366  49.491  1.00  0.00     0.232 C 
HETATM   18  N4  UNL     1      21.825   1.222  49.503  1.00  0.00    -0.240 NA
ENDROOT
BRANCH  11  19
HETATM   19  C13 UNL     1      26.101   1.253  53.673  1.00  0.00     0.079 C 
BRANCH  19  20
HETATM   20  C14 UNL     1      27.278   0.353  53.520  1.00  0.00    -0.028 A 
HETATM   21  C15 UNL     1      27.222  -0.926  53.078  1.00  0.00     0.010 A 
HETATM   22  C16 UNL     1      28.395  -1.676  52.956  1.00  0.00     0.001 A 
HETATM   23  C17 UNL     1      29.620  -1.102  53.290  1.00  0.00     0.002 A 
HETATM   24  C18 UNL     1      29.655   0.202  53.737  1.00  0.00     0.029 A 
HETATM   25  C19 UNL     1      28.487   0.930  53.853  1.00  0.00     0.032 A 
BRANCH  25  26
HETATM   26  N2  UNL     1      28.615   2.277  54.332  1.00  0.00    -0.399 N 
HETATM   27  H18 UNL     1      29.398   2.952  54.489  1.00  0.00     0.156 HD
HETATM   28  H19 UNL     1      27.704   2.708  54.597  1.00  0.00     0.156 HD
ENDBRANCH  25  26
ENDBRANCH  19  20
ENDBRANCH  11  19
BRANCH   6  29
HETATM   29  O2  UNL     1      17.814  -0.222  53.106  1.00  0.00    -0.353 OA
HETATM   30  C8  UNL     1      17.582  -1.576  53.426  1.00  0.00     0.210 C 
ENDBRANCH   6  29
BRANCH   1  31
HETATM   31  O1  UNL     1      17.351   0.704  50.594  1.00  0.00    -0.353 OA
HETATM   32  C1  UNL     1      16.882  -0.286  49.693  1.00  0.00     0.210 C 
ENDBRANCH   1  31
TORSDOF 5
ENDMDL
MODEL 2
REMARK VINA RESULT:      -9.1      2.138      3.989
REMARK  5 active torsions:
REMARK  status: ('A' for Active; 'I' for Inactive)
REMARK    1  A    between atoms: O1_2  and  C2_3 
REMARK    2  A    between atoms: C7_8  and  O2_9 
REMARK    3  A    between atoms: C12_15  and  C13_16 
REMARK    4  A    between atoms: C13_16  and  C14_17 
REMARK    5  A    between atoms: C19_22  and  N2_23 
ROOT
HETATM    1  C2  UNL     1      19.636   2.165  49.964  1.00  0.00     0.103 A 
HETATM    2  C3  UNL     1      19.715   1.867  51.344  1.00  0.00     0.073 A 
HETATM    3  C4  UNL     1      20.939   1.632  52.007  1.00  0.00     0.087 A 
HETATM    4  C5  UNL     1      22.108   1.697  51.292  1.00  0.00     0.068 A 
HETATM    5  C6  UNL     1      21.937   1.997  49.934  1.00  0.00     0.071 A 
HETATM    6  C7  UNL     1      20.780   2.236  49.220  1.00  0.00     0.103 A 
HETATM    7  N1  UNL     1      23.426   1.513  51.777  1.00  0.00    -0.324 N 
HETATM    8  C9  UNL     1      24.445   2.218  51.019  1.00  0.00     0.094 C 
HETATM    9  C10 UNL     1      25.735   1.973  51.168  1.00  0.00     0.018 C 
HETATM   10  C11 UNL     1      26.131   0.986  52.135  1.00  0.00     0.009 C 
HETATM   11  C12 UNL     1      25.238   0.325  52.909  1.00  0.00    -0.027 C 
HETATM   12  C20 UNL     1      23.809   0.673  52.888  1.00  0.00     0.258 C 
HETATM   13  O3  UNL     1      23.031  -0.448  53.015  1.00  0.00    -0.357 OA
HETATM   14  C21 UNL     1      22.475  -0.577  54.289  1.00  0.00     0.217 C 
HETATM   15  C22 UNL     1      21.569  -1.747  54.265  1.00  0.00     0.117 C 
HETATM   16  N3  UNL     1      20.424  -1.222  53.972  1.00  0.00    -0.256 NA
HETATM   17  C23 UNL     1      20.310   0.183  53.764  1.00  0.00     0.232 C 
HETATM   18  N4  UNL     1      20.353   1.364  53.302  1.00  0.00    -0.240 NA
ENDROOT
BRANCH  11  19
HETATM   19  C13 UNL     1      25.963  -0.628  53.778  1.00  0.00     0.079 C 
BRANCH  19  20
HETATM   20  C14 UNL     1      27.440  -0.429  53.770  1.00  0.00    -0.028 A 
HETATM   21  C15 UNL     1      28.073   0.685  54.211  1.00  0.00     0.010 A 
HETATM   22  C16 UNL     1      29.468   0.757  54.173  1.00  0.00     0.001 A 
HETATM   23  C17 UNL     1      30.203  -0.320  53.683  1.00  0.00     0.002 A 
HETATM   24  C18 UNL     1      29.539  -1.444  53.239  1.00  0.00     0.029 A 
HETATM   25  C19 UNL     1      28.160  -1.501  53.282  1.00  0.00     0.032 A 
BRANCH  25  26
HETATM   26  N2  UNL     1      27.551  -2.706  52.795  1.00  0.00    -0.399 N 
HETATM   27  H18 UNL     1      27.489  -3.701  53.109  1.00  0.00     0.156 HD
HETATM   28  H19 UNL     1      27.034  -2.574  51.900  1.00  0.00     0.156 HD
ENDBRANCH  25  26
ENDBRANCH  19  20
ENDBRANCH  11  19
BRANCH   6  29
HETATM   29  O2  UNL     1      20.837   2.516  47.862  1.00  0.00    -0.353 OA
HETATM   30  C8  UNL     1      22.086   2.764  47.255  1.00  0.00     0.210 C 
ENDBRANCH   6  29
BRANCH   1  31
HETATM   31  O1  UNL     1      18.474   2.417  49.199  1.00  0.00    -0.353 OA
HETATM   32  C1  UNL     1      17.797   3.627  49.502  1.00  0.00     0.210 C 
ENDBRANCH   1  31
TORSDOF 5
ENDMDL
MODEL 3
REMARK VINA RESULT:      -8.8      3.073      7.846
REMARK  5 active torsions:
REMARK  status: ('A' for Active; 'I' for Inactive)
REMARK    1  A    between atoms: O1_2  and  C2_3 
REMARK    2  A    between atoms: C7_8  and  O2_9 
REMARK    3  A    between atoms: C12_15  and  C13_16 
REMARK    4  A    between atoms: C13_16  and  C14_17 
REMARK    5  A    between atoms: C19_22  and  N2_23 
ROOT
HETATM    1  C2  UNL     1      25.494   0.272  54.036  1.00  0.00     0.103 A 
HETATM    2  C3  UNL     1      24.286   0.289  53.300  1.00  0.00     0.073 A 
HETATM    3  C4  UNL     1      24.066   1.158  52.209  1.00  0.00     0.087 A 
HETATM    4  C5  UNL     1      25.063   2.023  51.835  1.00  0.00     0.068 A 
HETATM    5  C6  UNL     1      26.223   1.939  52.616  1.00  0.00     0.071 A 
HETATM    6  C7  UNL     1      26.508   1.121  53.692  1.00  0.00     0.103 A 
HETATM    7  N1  UNL     1      25.042   2.951  50.765  1.00  0.00    -0.324 N 
HETATM    8  C9  UNL     1      26.351   3.263  50.219  1.00  0.00     0.094 C 
HETATM    9  C10 UNL     1      26.551   4.275  49.395  1.00  0.00     0.018 C 
HETATM   10  C11 UNL     1      25.420   5.076  49.015  1.00  0.00     0.009 C 
HETATM   11  C12 UNL     1      24.164   4.814  49.448  1.00  0.00    -0.027 C 
HETATM   12  C20 UNL     1      23.868   3.610  50.240  1.00  0.00     0.258 C 
HETATM   13  O3  UNL     1      22.921   3.874  51.195  1.00  0.00    -0.357 OA
HETATM   14  C21 UNL     1      21.665   3.363  50.863  1.00  0.00     0.217 C 
HETATM   15  C22 UNL     1      20.766   3.604  52.015  1.00  0.00     0.117 C 
HETATM   16  N3  UNL     1      20.873   2.512  52.699  1.00  0.00    -0.256 NA
HETATM   17  C23 UNL     1      21.724   1.461  52.249  1.00  0.00     0.232 C 
HETATM   18  N4  UNL     1      22.711   0.724  51.950  1.00  0.00    -0.240 NA
ENDROOT
BRANCH  11  19
HETATM   19  C13 UNL     1      23.240   5.829  48.895  1.00  0.00     0.079 C 
BRANCH  19  20
HETATM   20  C14 UNL     1      22.749   5.497  47.528  1.00  0.00    -0.028 A 
HETATM   21  C15 UNL     1      22.244   4.297  47.156  1.00  0.00     0.010 A 
HETATM   22  C16 UNL     1      21.795   4.101  45.848  1.00  0.00     0.001 A 
HETATM   23  C17 UNL     1      21.870   5.145  44.928  1.00  0.00     0.002 A 
HETATM   24  C18 UNL     1      22.388   6.360  45.326  1.00  0.00     0.029 A 
HETATM   25  C19 UNL     1      22.827   6.537  46.623  1.00  0.00     0.032 A 
BRANCH  25  26
HETATM   26  N2  UNL     1      23.358   7.830  46.950  1.00  0.00    -0.399 N 
HETATM   27  H18 UNL     1      23.981   8.531  46.486  1.00  0.00     0.156 HD
HETATM   28  H19 UNL     1      23.056   8.176  47.885  1.00  0.00     0.156 HD
ENDBRANCH  25  26
ENDBRANCH  19  20
ENDBRANCH  11  19
BRANCH   6  29
HETATM   29  O2  UNL     1      27.736   1.205  54.333  1.00  0.00    -0.353 OA
HETATM   30  C8  UNL     1      28.722   2.081  53.834  1.00  0.00     0.210 C 
ENDBRANCH   6  29
BRANCH   1  31
HETATM   31  O1  UNL     1      25.823  -0.549  55.138  1.00  0.00    -0.353 OA
HETATM   32  C1  UNL     1      24.732  -1.227  55.740  1.00  0.00     0.210 C 
ENDBRANCH   1  31
TORSDOF 5
ENDMDL
MODEL 4
REMARK VINA RESULT:      -8.6      3.359      6.873
REMARK  5 active torsions:
REMARK  status: ('A' for Active; 'I' for Inactive)
REMARK    1  A    between atoms: O1_2  and  C2_3 
REMARK    2  A    between atoms: C7_8  and  O2_9 
REMARK    3  A    between atoms: C12_15  and  C13_16 
REMARK    4  A    between atoms: C13_16  and  C14_17 
REMARK    5  A    between atoms: C19_22  and  N2_23 
ROOT
HETATM    1  C2  UNL     1      23.931   0.087  53.443  1.00  0.00     0.103 A 
HETATM    2  C3  UNL     1      22.933   0.607  52.587  1.00  0.00     0.073 A 
HETATM    3  C4  UNL     1      23.209   1.548  51.572  1.00  0.00     0.087 A 
HETATM    4  C5  UNL     1      24.499   1.980  51.397  1.00  0.00     0.068 A 
HETATM    5  C6  UNL     1      25.423   1.414  52.287  1.00  0.00     0.071 A 
HETATM    6  C7  UNL     1      25.227   0.496  53.299  1.00  0.00     0.103 A 
HETATM    7  N1  UNL     1      24.977   2.898  50.430  1.00  0.00    -0.324 N 
HETATM    8  C9  UNL     1      26.370   2.709  50.063  1.00  0.00     0.094 C 
HETATM    9  C10 UNL     1      27.049   3.606  49.371  1.00  0.00     0.018 C 
HETATM   10  C11 UNL     1      26.365   4.800  48.954  1.00  0.00     0.009 C 
HETATM   11  C12 UNL     1      25.057   5.021  49.220  1.00  0.00    -0.027 C 
HETATM   12  C20 UNL     1      24.223   3.985  49.850  1.00  0.00     0.258 C 
HETATM   13  O3  UNL     1      23.322   4.544  50.719  1.00  0.00    -0.357 OA
HETATM   14  C21 UNL     1      22.025   4.575  50.203  1.00  0.00     0.217 C 
HETATM   15  C22 UNL     1      21.132   5.084  51.269  1.00  0.00     0.117 C 
HETATM   16  N3  UNL     1      20.725   4.002  51.847  1.00  0.00    -0.256 NA
HETATM   17  C23 UNL     1      21.172   2.729  51.388  1.00  0.00     0.232 C 
HETATM   18  N4  UNL     1      21.841   1.684  51.125  1.00  0.00    -0.240 NA
ENDROOT
BRANCH  11  19
HETATM   19  C13 UNL     1      24.668   6.341  48.675  1.00  0.00     0.079 C 
BRANCH  19  20
HETATM   20  C14 UNL     1      25.719   7.383  48.845  1.00  0.00    -0.028 A 
HETATM   21  C15 UNL     1      26.496   7.869  47.848  1.00  0.00     0.010 A 
HETATM   22  C16 UNL     1      27.441   8.861  48.118  1.00  0.00     0.001 A 
HETATM   23  C17 UNL     1      27.580   9.349  49.416  1.00  0.00     0.002 A 
HETATM   24  C18 UNL     1      26.779   8.841  50.417  1.00  0.00     0.029 A 
HETATM   25  C19 UNL     1      25.850   7.860  50.134  1.00  0.00     0.032 A 
BRANCH  25  26
HETATM   26  N2  UNL     1      25.063   7.384  51.237  1.00  0.00    -0.399 N 
HETATM   27  H18 UNL     1      24.382   7.798  51.913  1.00  0.00     0.156 HD
HETATM   28  H19 UNL     1      25.190   6.367  51.426  1.00  0.00     0.156 HD
ENDBRANCH  25  26
ENDBRANCH  19  20
ENDBRANCH  11  19
BRANCH   6  29
HETATM   29  O2  UNL     1      26.295   0.066  54.074  1.00  0.00    -0.353 OA
HETATM   30  C8  UNL     1      27.396  -0.561  53.454  1.00  0.00     0.210 C 
ENDBRANCH   6  29
BRANCH   1  31
HETATM   31  O1  UNL     1      23.772  -0.854  54.487  1.00  0.00    -0.353 OA
HETATM   32  C1  UNL     1      22.437  -1.061  54.920  1.00  0.00     0.210 C 
ENDBRANCH   1  31
TORSDOF 5
ENDMDL
MODEL 5
REMARK VINA RESULT:      -8.4      1.669      2.362
REMARK  5 active torsions:
REMARK  status: ('A' for Active; 'I' for Inactive)
REMARK    1  A    between atoms: O1_2  and  C2_3 
REMARK    2  A    between atoms: C7_8  and  O2_9 
REMARK    3  A    between atoms: C12_15  and  C13_16 
REMARK    4  A    between atoms: C13_16  and  C14_17 
REMARK    5  A    between atoms: C19_22  and  N2_23 
ROOT
HETATM    1  C2  UNL     1      19.253   2.734  48.498  1.00  0.00     0.103 A 
HETATM    2  C3  UNL     1      20.622   2.957  48.222  1.00  0.00     0.073 A 
HETATM    3  C4  UNL     1      21.658   2.492  49.060  1.00  0.00     0.087 A 
HETATM    4  C5  UNL     1      21.335   1.788  50.192  1.00  0.00     0.068 A 
HETATM    5  C6  UNL     1      19.958   1.613  50.387  1.00  0.00     0.071 A 
HETATM    6  C7  UNL     1      18.894   2.037  49.617  1.00  0.00     0.103 A 
HETATM    7  N1  UNL     1      22.223   1.227  51.141  1.00  0.00    -0.324 N 
HETATM    8  C9  UNL     1      21.696   0.069  51.841  1.00  0.00     0.094 C 
HETATM    9  C10 UNL     1      22.274  -0.431  52.919  1.00  0.00     0.018 C 
HETATM   10  C11 UNL     1      23.480   0.190  53.392  1.00  0.00     0.009 C 
HETATM   11  C12 UNL     1      24.053   1.243  52.762  1.00  0.00    -0.027 C 
HETATM   12  C20 UNL     1      23.534   1.734  51.476  1.00  0.00     0.258 C 
HETATM   13  O3  UNL     1      23.622   3.100  51.403  1.00  0.00    -0.357 OA
HETATM   14  C21 UNL     1      24.666   3.529  50.583  1.00  0.00     0.217 C 
HETATM   15  C22 UNL     1      24.584   5.004  50.489  1.00  0.00     0.117 C 
HETATM   16  N3  UNL     1      23.864   5.188  49.431  1.00  0.00    -0.256 NA
HETATM   17  C23 UNL     1      23.375   4.072  48.691  1.00  0.00     0.232 C 
HETATM   18  N4  UNL     1      22.739   3.055  48.280  1.00  0.00    -0.240 NA
ENDROOT
BRANCH  11  19
HETATM   19  C13 UNL     1      25.262   1.654  53.509  1.00  0.00     0.079 C 
BRANCH  19  20
HETATM   20  C14 UNL     1      26.390   0.689  53.386  1.00  0.00    -0.028 A 
HETATM   21  C15 UNL     1      26.261  -0.608  53.017  1.00  0.00     0.010 A 
HETATM   22  C16 UNL     1      27.393  -1.422  52.916  1.00  0.00     0.001 A 
HETATM   23  C17 UNL     1      28.651  -0.894  53.196  1.00  0.00     0.002 A 
HETATM   24  C18 UNL     1      28.760   0.429  53.570  1.00  0.00     0.029 A 
HETATM   25  C19 UNL     1      27.633   1.220  53.665  1.00  0.00     0.032 A 
BRANCH  25  26
HETATM   26  N2  UNL     1      27.837   2.583  54.067  1.00  0.00    -0.399 N 
HETATM   27  H18 UNL     1      27.255   3.340  54.494  1.00  0.00     0.156 HD
HETATM   28  H19 UNL     1      28.808   2.922  53.899  1.00  0.00     0.156 HD
ENDBRANCH  25  26
ENDBRANCH  19  20
ENDBRANCH  11  19
BRANCH   6  29
HETATM   29  O2  UNL     1      17.591   1.754  50.002  1.00  0.00    -0.353 OA
HETATM   30  C8  UNL     1      17.097   0.440  49.868  1.00  0.00     0.210 C 
ENDBRANCH   6  29
BRANCH   1  31
HETATM   31  O1  UNL     1      18.138   3.149  47.735  1.00  0.00    -0.353 OA
HETATM   32  C1  UNL     1      18.362   3.257  46.338  1.00  0.00     0.210 C 
ENDBRANCH   1  31
TORSDOF 5
ENDMDL
MODEL 6
REMARK VINA RESULT:      -8.3      2.319      7.933
REMARK  5 active torsions:
REMARK  status: ('A' for Active; 'I' for Inactive)
REMARK    1  A    between atoms: O1_2  and  C2_3 
REMARK    2  A    between atoms: C7_8  and  O2_9 
REMARK    3  A    between atoms: C12_15  and  C13_16 
REMARK    4  A    between atoms: C13_16  and  C14_17 
REMARK    5  A    between atoms: C19_22  and  N2_23 
ROOT
HETATM    1  C2  UNL     1      26.599   1.268  52.608  1.00  0.00     0.103 A 
HETATM    2  C3  UNL     1      25.773   2.271  52.052  1.00  0.00     0.073 A 
HETATM    3  C4  UNL     1      24.366   2.167  52.008  1.00  0.00     0.087 A 
HETATM    4  C5  UNL     1      23.764   1.049  52.527  1.00  0.00     0.068 A 
HETATM    5  C6  UNL     1      24.656   0.107  53.057  1.00  0.00     0.071 A 
HETATM    6  C7  UNL     1      26.034   0.140  53.134  1.00  0.00     0.103 A 
HETATM    7  N1  UNL     1      22.377   0.769  52.594  1.00  0.00    -0.324 N 
HETATM    8  C9  UNL     1      21.996  -0.109  53.686  1.00  0.00     0.094 C 
HETATM    9  C10 UNL     1      20.803  -0.671  53.760  1.00  0.00     0.018 C 
HETATM   10  C11 UNL     1      19.848  -0.376  52.727  1.00  0.00     0.009 C 
HETATM   11  C12 UNL     1      20.119   0.470  51.706  1.00  0.00    -0.027 C 
HETATM   12  C20 UNL     1      21.374   1.237  51.664  1.00  0.00     0.258 C 
HETATM   13  O3  UNL     1      21.836   1.349  50.379  1.00  0.00    -0.357 OA
HETATM   14  C21 UNL     1      21.621   2.619  49.839  1.00  0.00     0.217 C 
HETATM   15  C22 UNL     1      22.264   2.652  48.506  1.00  0.00     0.117 C 
HETATM   16  N3  UNL     1      23.443   3.117  48.765  1.00  0.00    -0.256 NA
HETATM   17  C23 UNL     1      23.808   3.446  50.102  1.00  0.00     0.232 C 
HETATM   18  N4  UNL     1      24.149   3.422  51.323  1.00  0.00    -0.240 NA
ENDROOT
BRANCH  11  19
HETATM   19  C13 UNL     1      18.942   0.541  50.811  1.00  0.00     0.079 C 
BRANCH  19  20
HETATM   20  C14 UNL     1      17.951   1.575  51.219  1.00  0.00    -0.028 A 
HETATM   21  C15 UNL     1      18.210   2.902  51.312  1.00  0.00     0.010 A 
HETATM   22  C16 UNL     1      17.197   3.787  51.690  1.00  0.00     0.001 A 
HETATM   23  C17 UNL     1      15.922   3.300  51.968  1.00  0.00     0.002 A 
HETATM   24  C18 UNL     1      15.679   1.946  51.868  1.00  0.00     0.029 A 
HETATM   25  C19 UNL     1      16.690   1.084  51.494  1.00  0.00     0.032 A 
BRANCH  25  26
HETATM   26  N2  UNL     1      16.352  -0.309  51.421  1.00  0.00    -0.399 N 
HETATM   27  H18 UNL     1      16.812  -1.213  51.677  1.00  0.00     0.156 HD
HETATM   28  H19 UNL     1      15.411  -0.484  51.010  1.00  0.00     0.156 HD
ENDBRANCH  25  26
ENDBRANCH  19  20
ENDBRANCH  11  19
BRANCH   6  29
HETATM   29  O2  UNL     1      26.732  -0.916  53.704  1.00  0.00    -0.353 OA
HETATM   30  C8  UNL     1      27.148  -1.993  52.894  1.00  0.00     0.210 C 
ENDBRANCH   6  29
BRANCH   1  31
HETATM   31  O1  UNL     1      28.009   1.265  52.707  1.00  0.00    -0.353 OA
HETATM   32  C1  UNL     1      28.560   2.241  53.577  1.00  0.00     0.210 C 
ENDBRANCH   1  31
TORSDOF 5
ENDMDL
MODEL 7
REMARK VINA RESULT:      -8.1      3.796      7.692
REMARK  5 active torsions:
REMARK  status: ('A' for Active; 'I' for Inactive)
REMARK    1  A    between atoms: O1_2  and  C2_3 
REMARK    2  A    between atoms: C7_8  and  O2_9 
REMARK    3  A    between atoms: C12_15  and  C13_16 
REMARK    4  A    between atoms: C13_16  and  C14_17 
REMARK    5  A    between atoms: C19_22  and  N2_23 
ROOT
HETATM    1  C2  UNL     1      23.709   0.604  52.450  1.00  0.00     0.103 A 
HETATM    2  C3  UNL     1      22.792   1.268  51.602  1.00  0.00     0.073 A 
HETATM    3  C4  UNL     1      23.172   2.312  50.731  1.00  0.00     0.087 A 
HETATM    4  C5  UNL     1      24.486   2.704  50.695  1.00  0.00     0.068 A 
HETATM    5  C6  UNL     1      25.324   1.994  51.565  1.00  0.00     0.071 A 
HETATM    6  C7  UNL     1      25.025   0.970  52.441  1.00  0.00     0.103 A 
HETATM    7  N1  UNL     1      25.063   3.710  49.881  1.00  0.00    -0.324 N 
HETATM    8  C9  UNL     1      26.469   3.505  49.584  1.00  0.00     0.094 C 
HETATM    9  C10 UNL     1      27.227   4.449  49.054  1.00  0.00     0.018 C 
HETATM   10  C11 UNL     1      26.617   5.714  48.745  1.00  0.00     0.009 C 
HETATM   11  C12 UNL     1      25.302   5.959  48.952  1.00  0.00    -0.027 C 
HETATM   12  C20 UNL     1      24.390   4.893  49.394  1.00  0.00     0.258 C 
HETATM   13  O3  UNL     1      23.452   5.381  50.265  1.00  0.00    -0.357 OA
HETATM   14  C21 UNL     1      22.196   5.533  49.675  1.00  0.00     0.217 C 
HETATM   15  C22 UNL     1      21.251   5.948  50.736  1.00  0.00     0.117 C 
HETATM   16  N3  UNL     1      20.766   4.823  51.148  1.00  0.00    -0.256 NA
HETATM   17  C23 UNL     1      21.197   3.597  50.565  1.00  0.00     0.232 C 
HETATM   18  N4  UNL     1      21.843   2.563  50.217  1.00  0.00    -0.240 NA
ENDROOT
BRANCH  11  19
HETATM   19  C13 UNL     1      25.000   7.351  48.551  1.00  0.00     0.079 C 
BRANCH  19  20
HETATM   20  C14 UNL     1      24.581   7.477  47.127  1.00  0.00    -0.028 A 
HETATM   21  C15 UNL     1      23.424   6.992  46.615  1.00  0.00     0.010 A 
HETATM   22  C16 UNL     1      23.123   7.184  45.264  1.00  0.00     0.001 A 
HETATM   23  C17 UNL     1      24.015   7.876  44.448  1.00  0.00     0.002 A 
HETATM   24  C18 UNL     1      25.187   8.362  44.989  1.00  0.00     0.029 A 
HETATM   25  C19 UNL     1      25.471   8.164  46.326  1.00  0.00     0.032 A 
BRANCH  25  26
HETATM   26  N2  UNL     1      26.715   8.697  46.804  1.00  0.00    -0.399 N 
HETATM   27  H18 UNL     1      27.309   9.532  46.595  1.00  0.00     0.156 HD
HETATM   28  H19 UNL     1      27.153   8.117  47.551  1.00  0.00     0.156 HD
ENDBRANCH  25  26
ENDBRANCH  19  20
ENDBRANCH  11  19
BRANCH   6  29
HETATM   29  O2  UNL     1      26.021   0.401  53.223  1.00  0.00    -0.353 OA
HETATM   30  C8  UNL     1      27.313   0.224  52.685  1.00  0.00     0.210 C 
ENDBRANCH   6  29
BRANCH   1  31
HETATM   31  O1  UNL     1      23.443  -0.448  53.356  1.00  0.00    -0.353 OA
HETATM   32  C1  UNL     1      22.209  -0.357  54.050  1.00  0.00     0.210 C 
ENDBRANCH   1  31
TORSDOF 5
ENDMDL
MODEL 8
REMARK VINA RESULT:      -7.9      2.570      8.115
REMARK  5 active torsions:
REMARK  status: ('A' for Active; 'I' for Inactive)
REMARK    1  A    between atoms: O1_2  and  C2_3 
REMARK    2  A    between atoms: C7_8  and  O2_9 
REMARK    3  A    between atoms: C12_15  and  C13_16 
REMARK    4  A    between atoms: C13_16  and  C14_17 
REMARK    5  A    between atoms: C19_22  and  N2_23 
ROOT
HETATM    1  C2  UNL     1      25.122   2.719  51.202  1.00  0.00     0.103 A 
HETATM    2  C3  UNL     1      23.949   3.386  50.779  1.00  0.00     0.073 A 
HETATM    3  C4  UNL     1      22.651   2.912  51.070  1.00  0.00     0.087 A 
HETATM    4  C5  UNL     1      22.512   1.757  51.798  1.00  0.00     0.068 A 
HETATM    5  C6  UNL     1      23.724   1.163  52.175  1.00  0.00     0.071 A 
HETATM    6  C7  UNL     1      25.021   1.566  51.927  1.00  0.00     0.103 A 
HETATM    7  N1  UNL     1      21.306   1.136  52.205  1.00  0.00    -0.324 N 
HETATM    8  C9  UNL     1      21.421   0.346  53.418  1.00  0.00     0.094 C 
HETATM    9  C10 UNL     1      20.478  -0.494  53.809  1.00  0.00     0.018 C 
HETATM   10  C11 UNL     1      19.291  -0.602  53.006  1.00  0.00     0.009 C 
HETATM   11  C12 UNL     1      19.096   0.138  51.890  1.00  0.00    -0.027 C 
HETATM   12  C20 UNL     1      20.045   1.193  51.501  1.00  0.00     0.258 C 
HETATM   13  O3  UNL     1      20.186   1.247  50.139  1.00  0.00    -0.357 OA
HETATM   14  C21 UNL     1      19.513   2.329  49.570  1.00  0.00     0.217 C 
HETATM   15  C22 UNL     1      19.836   2.348  48.126  1.00  0.00     0.117 C 
HETATM   16  N3  UNL     1      20.860   3.136  48.069  1.00  0.00    -0.256 NA
HETATM   17  C23 UNL     1      21.378   3.729  49.256  1.00  0.00     0.232 C 
HETATM   18  N4  UNL     1      21.952   3.961  50.363  1.00  0.00    -0.240 NA
ENDROOT
BRANCH  11  19
HETATM   19  C13 UNL     1      17.793  -0.225  51.289  1.00  0.00     0.079 C 
BRANCH  19  20
HETATM   20  C14 UNL     1      16.660   0.601  51.795  1.00  0.00    -0.028 A 
HETATM   21  C15 UNL     1      16.501   1.924  51.556  1.00  0.00     0.010 A 
HETATM   22  C16 UNL     1      15.387   2.597  52.067  1.00  0.00     0.001 A 
HETATM   23  C17 UNL     1      14.444   1.901  52.819  1.00  0.00     0.002 A 
HETATM   24  C18 UNL     1      14.626   0.554  53.051  1.00  0.00     0.029 A 
HETATM   25  C19 UNL     1      15.731  -0.097  52.540  1.00  0.00     0.032 A 
BRANCH  25  26
HETATM   26  N2  UNL     1      15.844  -1.497  52.834  1.00  0.00    -0.399 N 
HETATM   27  H18 UNL     1      16.595  -2.138  53.180  1.00  0.00     0.156 HD
HETATM   28  H19 UNL     1      14.963  -2.027  52.666  1.00  0.00     0.156 HD
ENDBRANCH  25  26
ENDBRANCH  19  20
ENDBRANCH  11  19
BRANCH   6  29
HETATM   29  O2  UNL     1      26.091   0.817  52.397  1.00  0.00    -0.353 OA
HETATM   30  C8  UNL     1      25.877  -0.509  52.825  1.00  0.00     0.210 C 
ENDBRANCH   6  29
BRANCH   1  31
HETATM   31  O1  UNL     1      26.464   3.100  50.970  1.00  0.00    -0.353 OA
HETATM   32  C1  UNL     1      26.727   3.658  49.693  1.00  0.00     0.210 C 
ENDBRANCH   1  31
TORSDOF 5
ENDMDL
MODEL 9
REMARK VINA RESULT:      -7.7      3.562      8.547
REMARK  5 active torsions:
REMARK  status: ('A' for Active; 'I' for Inactive)
REMARK    1  A    between atoms: O1_2  and  C2_3 
REMARK    2  A    between atoms: C7_8  and  O2_9 
REMARK    3  A    between atoms: C12_15  and  C13_16 
REMARK    4  A    between atoms: C13_16  and  C14_17 
REMARK    5  A    between atoms: C19_22  and  N2_23 
ROOT
HETATM    1  C2  UNL     1      27.447   6.037  48.539  1.00  0.00     0.103 A 
HETATM    2  C3  UNL     1      27.192   4.705  48.939  1.00  0.00     0.073 A 
HETATM    3  C4  UNL     1      25.930   4.271  49.398  1.00  0.00     0.087 A 
HETATM    4  C5  UNL     1      24.898   5.173  49.459  1.00  0.00     0.068 A 
HETATM    5  C6  UNL     1      25.238   6.468  49.045  1.00  0.00     0.071 A 
HETATM    6  C7  UNL     1      26.443   6.962  48.588  1.00  0.00     0.103 A 
HETATM    7  N1  UNL     1      23.564   4.930  49.870  1.00  0.00    -0.324 N 
HETATM    8  C9  UNL     1      22.583   5.820  49.275  1.00  0.00     0.094 C 
HETATM    9  C10 UNL     1      21.342   5.905  49.718  1.00  0.00     0.018 C 
HETATM   10  C11 UNL     1      20.955   5.063  50.817  1.00  0.00     0.009 C 
HETATM   11  C12 UNL     1      21.803   4.177  51.389  1.00  0.00    -0.027 C 
HETATM   12  C20 UNL     1      23.143   3.937  50.832  1.00  0.00     0.258 C 
HETATM   13  O3  UNL     1      24.058   3.726  51.830  1.00  0.00    -0.357 OA
HETATM   14  C21 UNL     1      24.412   2.383  51.962  1.00  0.00     0.217 C 
HETATM   15  C22 UNL     1      25.484   2.300  52.980  1.00  0.00     0.117 C 
HETATM   16  N3  UNL     1      26.563   2.370  52.271  1.00  0.00    -0.256 NA
HETATM   17  C23 UNL     1      26.486   2.496  50.854  1.00  0.00     0.232 C 
HETATM   18  N4  UNL     1      26.332   2.908  49.664  1.00  0.00    -0.240 NA
ENDROOT
BRANCH  11  19
HETATM   19  C13 UNL     1      21.106   3.486  52.497  1.00  0.00     0.079 C 
BRANCH  19  20
HETATM   20  C14 UNL     1      20.239   2.363  52.040  1.00  0.00    -0.028 A 
HETATM   21  C15 UNL     1      19.187   2.492  51.196  1.00  0.00     0.010 A 
HETATM   22  C16 UNL     1      18.451   1.366  50.820  1.00  0.00     0.001 A 
HETATM   23  C17 UNL     1      18.804   0.112  51.315  1.00  0.00     0.002 A 
HETATM   24  C18 UNL     1      19.878   0.003  52.173  1.00  0.00     0.029 A 
HETATM   25  C19 UNL     1      20.595   1.125  52.536  1.00  0.00     0.032 A 
BRANCH  25  26
HETATM   26  N2  UNL     1      21.693   0.922  53.438  1.00  0.00    -0.399 N 
HETATM   27  H18 UNL     1      21.807   0.637  54.438  1.00  0.00     0.156 HD
HETATM   28  H19 UNL     1      22.623   1.098  53.002  1.00  0.00     0.156 HD
ENDBRANCH  25  26
ENDBRANCH  19  20
ENDBRANCH  11  19
BRANCH   6  29
HETATM   29  O2  UNL     1      26.564   8.297  48.228  1.00  0.00    -0.353 OA
HETATM   30  C8  UNL     1      26.604   9.287  49.231  1.00  0.00     0.210 C 
ENDBRANCH   6  29
BRANCH   1  31
HETATM   31  O1  UNL     1      28.664   6.580  48.065  1.00  0.00    -0.353 OA
HETATM   32  C1  UNL     1      29.805   5.754  48.232  1.00  0.00     0.210 C 
ENDBRANCH   1  31
TORSDOF 5
ENDMDL
