MODEL 1
REMARK VINA RESULT:      -8.7      0.000      0.000
REMARK  5 active torsions:
REMARK  status: ('A' for Active; 'I' for Inactive)
REMARK    1  A    between atoms: N1_1  and  C1_2 
REMARK    2  A    between atoms: N3_7  and  C5_8 
REMARK    3  A    between atoms: C5_8  and  C6_9 
REMARK    4  A    between atoms: C10_16  and  N7_17 
REMARK    5  A    between atoms: N7_17  and  C11_18 
ROOT
HETATM    1  C6  UNL     1      22.513   0.355  52.610  1.00  0.00    -0.007 A 
HETATM    2  C7  UNL     1      21.197   0.110  52.970  1.00  0.00     0.030 A 
HETATM    3  C8  UNL     1      21.149  -0.599  54.155  1.00  0.00     0.119 A 
HETATM    4  N4  UNL     1      22.437  -0.791  54.521  1.00  0.00    -0.240 N 
HETATM    5  N5  UNL     1      22.820  -1.444  55.621  1.00  0.00    -0.161 NA
HETATM    6  C9  UNL     1      24.119  -1.575  55.877  1.00  0.00     0.258 A 
HETATM    7  N6  UNL     1      24.947  -1.036  55.000  1.00  0.00    -0.220 NA
HETATM    8  C10 UNL     1      24.608  -0.373  53.886  1.00  0.00     0.159 A 
HETATM    9  C17 UNL     1      23.271  -0.225  53.603  1.00  0.00     0.112 A 
ENDROOT
BRANCH   1  10
HETATM   10  C5  UNL     1      23.028   1.082  51.423  1.00  0.00     0.160 C 
BRANCH  10  11
HETATM   11  N3  UNL     1      23.075   2.470  51.682  1.00  0.00    -0.383 N 
HETATM   12  C1  UNL     1      24.316   3.088  51.947  1.00  0.00     0.193 C 
HETATM   13  C2  UNL     1      24.340   4.362  51.129  1.00  0.00     0.194 C 
HETATM   14  N2  UNL     1      23.096   5.032  51.313  1.00  0.00    -0.300 NA
HETATM   15  C3  UNL     1      22.026   4.541  51.797  1.00  0.00     0.102 C 
HETATM   16  C4  UNL     1      21.954   3.106  52.260  1.00  0.00     0.165 C 
BRANCH  12  17
HETATM   17  N1  UNL     1      24.453   3.514  53.328  1.00  0.00    -0.409 N 
HETATM   18  H1  UNL     1      25.415   3.676  53.644  1.00  0.00     0.152 HD
HETATM   19  H2  UNL     1      23.753   4.211  53.611  1.00  0.00     0.152 HD
ENDBRANCH  12  17
ENDBRANCH  10  11
ENDBRANCH   1  10
BRANCH   8  20
HETATM   20  N7  UNL     1      25.583   0.149  53.012  1.00  0.00    -0.339 N 
HETATM   21  H14 UNL     1      25.502   0.566  52.079  1.00  0.00     0.167 HD
BRANCH  20  22
HETATM   22  C11 UNL     1      26.974   0.184  53.270  1.00  0.00     0.036 A 
HETATM   23  C12 UNL     1      27.761  -0.918  53.022  1.00  0.00     0.029 A 
HETATM   24  C13 UNL     1      29.112  -0.952  53.273  1.00  0.00     0.005 A 
HETATM   25  C14 UNL     1      29.761   0.137  53.795  1.00  0.00     0.042 A 
HETATM   26  C15 UNL     1      29.042   1.276  54.070  1.00  0.00     0.118 A 
HETATM   27  F1  UNL     1      29.599   2.401  54.587  1.00  0.00    -0.206 F 
HETATM   28  C16 UNL     1      27.697   1.251  53.799  1.00  0.00     0.071 A 
ENDBRANCH  20  22
ENDBRANCH   8  20
TORSDOF 5
ENDMDL
MODEL 2
REMARK VINA RESULT:      -8.5      1.331      1.914
REMARK  5 active torsions:
REMARK  status: ('A' for Active; 'I' for Inactive)
REMARK    1  A    between atoms: N1_1  and  C1_2 
REMARK    2  A    between atoms: N3_7  and  C5_8 
REMARK    3  A    between atoms: C5_8  and  C6_9 
REMARK    4  A    between atoms: C10_16  and  N7_17 
REMARK    5  A    between atoms: N7_17  and  C11_18 
ROOT
HETATM    1  C6  UNL     1      22.536   0.636  52.357  1.00  0.00    -0.007 A 
HETATM    2  C7  UNL     1      21.185   0.457  52.609  1.00  0.00     0.030 A 
HETATM    3  C8  UNL     1      21.007  -0.274  53.769  1.00  0.00     0.119 A 
HETATM    4  N4  UNL     1      22.251  -0.544  54.227  1.00  0.00    -0.240 N 
HETATM    5  N5  UNL     1      22.511  -1.240  55.337  1.00  0.00    -0.161 NA
HETATM    6  C9  UNL     1      23.777  -1.447  55.688  1.00  0.00     0.258 A 
HETATM    7  N6  UNL     1      24.699  -0.936  54.892  1.00  0.00    -0.220 NA
HETATM    8  C10 UNL     1      24.483  -0.232  53.772  1.00  0.00     0.159 A 
HETATM    9  C17 UNL     1      23.183  -0.006  53.391  1.00  0.00     0.112 A 
ENDROOT
BRANCH   1  10
HETATM   10  C5  UNL     1      23.180   1.359  51.232  1.00  0.00     0.160 C 
BRANCH  10  11
HETATM   11  N3  UNL     1      23.044   2.754  51.406  1.00  0.00    -0.383 N 
HETATM   12  C1  UNL     1      22.329   3.509  50.452  1.00  0.00     0.193 C 
HETATM   13  C2  UNL     1      21.427   4.440  51.234  1.00  0.00     0.194 C 
HETATM   14  N2  UNL     1      22.200   5.046  52.266  1.00  0.00    -0.300 NA
HETATM   15  C3  UNL     1      23.341   4.669  52.689  1.00  0.00     0.102 C 
HETATM   16  C4  UNL     1      24.042   3.466  52.106  1.00  0.00     0.165 C 
BRANCH  12  17
HETATM   17  N1  UNL     1      23.183   4.376  49.660  1.00  0.00    -0.409 N 
HETATM   18  H1  UNL     1      23.293   5.330  50.018  1.00  0.00     0.152 HD
HETATM   19  H2  UNL     1      24.034   3.910  49.321  1.00  0.00     0.152 HD
ENDBRANCH  12  17
ENDBRANCH  10  11
ENDBRANCH   1  10
BRANCH   8  20
HETATM   20  N7  UNL     1      25.550   0.253  52.989  1.00  0.00    -0.339 N 
HETATM   21  H14 UNL     1      25.560   0.822  52.136  1.00  0.00     0.167 HD
BRANCH  20  22
HETATM   22  C11 UNL     1      26.922   0.015  53.242  1.00  0.00     0.036 A 
HETATM   23  C12 UNL     1      27.733   1.022  53.715  1.00  0.00     0.029 A 
HETATM   24  C13 UNL     1      29.076   0.858  53.959  1.00  0.00     0.005 A 
HETATM   25  C14 UNL     1      29.691  -0.348  53.737  1.00  0.00     0.042 A 
HETATM   26  C15 UNL     1      28.947  -1.402  53.263  1.00  0.00     0.118 A 
HETATM   27  F1  UNL     1      29.470  -2.630  53.016  1.00  0.00    -0.206 F 
HETATM   28  C16 UNL     1      27.612  -1.178  53.040  1.00  0.00     0.071 A 
ENDBRANCH  20  22
ENDBRANCH   8  20
TORSDOF 5
ENDMDL
MODEL 3
REMARK VINA RESULT:      -8.2      1.490      2.076
REMARK  5 active torsions:
REMARK  status: ('A' for Active; 'I' for Inactive)
REMARK    1  A    between atoms: N1_1  and  C1_2 
REMARK    2  A    between atoms: N3_7  and  C5_8 
REMARK    3  A    between atoms: C5_8  and  C6_9 
REMARK    4  A    between atoms: C10_16  and  N7_17 
REMARK    5  A    between atoms: N7_17  and  C11_18 
ROOT
HETATM    1  C6  UNL     1      22.652   0.730  52.591  1.00  0.00    -0.007 A 
HETATM    2  C7  UNL     1      21.320   0.632  52.958  1.00  0.00     0.030 A 
HETATM    3  C8  UNL     1      21.194  -0.129  54.105  1.00  0.00     0.119 A 
HETATM    4  N4  UNL     1      22.451  -0.500  54.439  1.00  0.00    -0.240 N 
HETATM    5  N5  UNL     1      22.759  -1.255  55.497  1.00  0.00    -0.161 NA
HETATM    6  C9  UNL     1      24.034  -1.560  55.725  1.00  0.00     0.258 A 
HETATM    7  N6  UNL     1      24.915  -1.082  54.865  1.00  0.00    -0.220 NA
HETATM    8  C10 UNL     1      24.651  -0.322  53.793  1.00  0.00     0.159 A 
HETATM    9  C17 UNL     1      23.341   0.006  53.539  1.00  0.00     0.112 A 
ENDROOT
BRANCH   1  10
HETATM   10  C5  UNL     1      23.244   1.451  51.436  1.00  0.00     0.160 C 
BRANCH  10  11
HETATM   11  N3  UNL     1      22.223   1.979  50.614  1.00  0.00    -0.383 N 
HETATM   12  C1  UNL     1      21.869   1.308  49.425  1.00  0.00     0.193 C 
HETATM   13  C2  UNL     1      20.356   1.275  49.388  1.00  0.00     0.194 C 
HETATM   14  N2  UNL     1      19.875   2.578  49.704  1.00  0.00    -0.300 NA
HETATM   15  C3  UNL     1      20.534   3.530  50.235  1.00  0.00     0.102 C 
HETATM   16  C4  UNL     1      21.988   3.371  50.609  1.00  0.00     0.165 C 
BRANCH  12  17
HETATM   17  N1  UNL     1      22.268   2.027  48.228  1.00  0.00    -0.409 N 
HETATM   18  H1  UNL     1      21.644   2.791  47.946  1.00  0.00     0.152 HD
HETATM   19  H2  UNL     1      23.277   2.217  48.184  1.00  0.00     0.152 HD
ENDBRANCH  12  17
ENDBRANCH  10  11
ENDBRANCH   1  10
BRANCH   8  20
HETATM   20  N7  UNL     1      25.676   0.121  52.933  1.00  0.00    -0.339 N 
HETATM   21  H14 UNL     1      25.645   0.489  51.976  1.00  0.00     0.167 HD
BRANCH  20  22
HETATM   22  C11 UNL     1      27.057   0.125  53.243  1.00  0.00     0.036 A 
HETATM   23  C12 UNL     1      27.824  -1.000  53.043  1.00  0.00     0.029 A 
HETATM   24  C13 UNL     1      29.163  -1.065  53.346  1.00  0.00     0.005 A 
HETATM   25  C14 UNL     1      29.819   0.017  53.876  1.00  0.00     0.042 A 
HETATM   26  C15 UNL     1      29.120   1.177  54.105  1.00  0.00     0.118 A 
HETATM   27  F1  UNL     1      29.686   2.297  54.626  1.00  0.00    -0.206 F 
HETATM   28  C16 UNL     1      27.786   1.182  53.783  1.00  0.00     0.071 A 
ENDBRANCH  20  22
ENDBRANCH   8  20
TORSDOF 5
ENDMDL
MODEL 4
REMARK VINA RESULT:      -8.2      2.489      6.616
REMARK  5 active torsions:
REMARK  status: ('A' for Active; 'I' for Inactive)
REMARK    1  A    between atoms: N1_1  and  C1_2 
REMARK    2  A    between atoms: N3_7  and  C5_8 
REMARK    3  A    between atoms: C5_8  and  C6_9 
REMARK    4  A    between atoms: C10_16  and  N7_17 
REMARK    5  A    between atoms: N7_17  and  C11_18 
ROOT
HETATM    1  C6  UNL     1      25.798   2.378  52.203  1.00  0.00    -0.007 A 
HETATM    2  C7  UNL     1      26.819   2.664  51.311  1.00  0.00     0.030 A 
HETATM    3  C8  UNL     1      26.297   2.976  50.069  1.00  0.00     0.119 A 
HETATM    4  N4  UNL     1      24.954   2.879  50.200  1.00  0.00    -0.240 N 
HETATM    5  N5  UNL     1      24.082   3.103  49.214  1.00  0.00    -0.161 NA
HETATM    6  C9  UNL     1      22.781   2.973  49.460  1.00  0.00     0.258 A 
HETATM    7  N6  UNL     1      22.447   2.624  50.689  1.00  0.00    -0.220 NA
HETATM    8  C10 UNL     1      23.287   2.391  51.707  1.00  0.00     0.159 A 
HETATM    9  C17 UNL     1      24.635   2.520  51.476  1.00  0.00     0.112 A 
ENDROOT
BRANCH   1  10
HETATM   10  C5  UNL     1      25.898   2.002  53.635  1.00  0.00     0.160 C 
BRANCH  10  11
HETATM   11  N3  UNL     1      26.558   0.761  53.770  1.00  0.00    -0.383 N 
HETATM   12  C1  UNL     1      25.826  -0.437  53.623  1.00  0.00     0.193 C 
HETATM   13  C2  UNL     1      26.662  -1.342  52.743  1.00  0.00     0.194 C 
HETATM   14  N2  UNL     1      28.002  -1.318  53.226  1.00  0.00    -0.300 NA
HETATM   15  C3  UNL     1      28.511  -0.472  54.030  1.00  0.00     0.102 C 
HETATM   16  C4  UNL     1      27.698   0.668  54.596  1.00  0.00     0.165 C 
BRANCH  12  17
HETATM   17  N1  UNL     1      25.663  -1.158  54.872  1.00  0.00    -0.409 N 
HETATM   18  H1  UNL     1      26.316  -1.935  55.019  1.00  0.00     0.152 HD
HETATM   19  H2  UNL     1      25.491  -0.543  55.678  1.00  0.00     0.152 HD
ENDBRANCH  12  17
ENDBRANCH  10  11
ENDBRANCH   1  10
BRANCH   8  20
HETATM   20  N7  UNL     1      22.816   2.007  52.979  1.00  0.00    -0.339 N 
HETATM   21  H14 UNL     1      22.982   2.403  53.910  1.00  0.00     0.167 HD
BRANCH  20  22
HETATM   22  C11 UNL     1      21.969   0.903  53.236  1.00  0.00     0.036 A 
HETATM   23  C12 UNL     1      20.660   0.909  52.811  1.00  0.00     0.029 A 
HETATM   24  C13 UNL     1      19.784  -0.123  53.050  1.00  0.00     0.005 A 
HETATM   25  C14 UNL     1      20.180  -1.239  53.740  1.00  0.00     0.042 A 
HETATM   26  C15 UNL     1      21.473  -1.319  54.198  1.00  0.00     0.118 A 
HETATM   27  F1  UNL     1      21.954  -2.384  54.890  1.00  0.00    -0.206 F 
HETATM   28  C16 UNL     1      22.302  -0.259  53.930  1.00  0.00     0.071 A 
ENDBRANCH  20  22
ENDBRANCH   8  20
TORSDOF 5
ENDMDL
MODEL 5
REMARK VINA RESULT:      -8.1      1.848      2.513
REMARK  5 active torsions:
REMARK  status: ('A' for Active; 'I' for Inactive)
REMARK    1  A    between atoms: N1_1  and  C1_2 
REMARK    2  A    between atoms: N3_7  and  C5_8 
REMARK    3  A    between atoms: C5_8  and  C6_9 
REMARK    4  A    between atoms: C10_16  and  N7_17 
REMARK    5  A    between atoms: N7_17  and  C11_18 
ROOT
HETATM    1  C6  UNL     1      23.604   1.675  51.361  1.00  0.00    -0.007 A 
HETATM    2  C7  UNL     1      22.408   1.551  50.672  1.00  0.00     0.030 A 
HETATM    3  C8  UNL     1      21.595   0.618  51.288  1.00  0.00     0.119 A 
HETATM    4  N4  UNL     1      22.296   0.167  52.354  1.00  0.00    -0.240 N 
HETATM    5  N5  UNL     1      21.853  -0.756  53.212  1.00  0.00    -0.161 NA
HETATM    6  C9  UNL     1      22.633  -1.124  54.224  1.00  0.00     0.258 A 
HETATM    7  N6  UNL     1      23.812  -0.535  54.302  1.00  0.00    -0.220 NA
HETATM    8  C10 UNL     1      24.296   0.394  53.466  1.00  0.00     0.159 A 
HETATM    9  C17 UNL     1      23.506   0.791  52.413  1.00  0.00     0.112 A 
ENDROOT
BRANCH   1  10
HETATM   10  C5  UNL     1      24.759   2.558  51.061  1.00  0.00     0.160 C 
BRANCH  10  11
HETATM   11  N3  UNL     1      24.314   3.875  50.810  1.00  0.00    -0.383 N 
HETATM   12  C1  UNL     1      24.916   4.630  49.780  1.00  0.00     0.193 C 
HETATM   13  C2  UNL     1      23.786   5.284  49.015  1.00  0.00     0.194 C 
HETATM   14  N2  UNL     1      22.884   5.858  49.957  1.00  0.00    -0.300 NA
HETATM   15  C3  UNL     1      22.825   5.616  51.206  1.00  0.00     0.102 C 
HETATM   16  C4  UNL     1      23.765   4.635  51.865  1.00  0.00     0.165 C 
BRANCH  12  17
HETATM   17  N1  UNL     1      25.728   5.725  50.280  1.00  0.00    -0.409 N 
HETATM   18  H1  UNL     1      25.210   6.568  50.550  1.00  0.00     0.152 HD
HETATM   19  H2  UNL     1      26.474   5.420  50.918  1.00  0.00     0.152 HD
ENDBRANCH  12  17
ENDBRANCH  10  11
ENDBRANCH   1  10
BRANCH   8  20
HETATM   20  N7  UNL     1      25.582   0.945  53.639  1.00  0.00    -0.339 N 
HETATM   21  H14 UNL     1      25.887   1.907  53.821  1.00  0.00     0.167 HD
BRANCH  20  22
HETATM   22  C11 UNL     1      26.795   0.221  53.571  1.00  0.00     0.036 A 
HETATM   23  C12 UNL     1      27.986   0.810  53.933  1.00  0.00     0.029 A 
HETATM   24  C13 UNL     1      29.198   0.166  53.868  1.00  0.00     0.005 A 
HETATM   25  C14 UNL     1      29.285  -1.130  53.428  1.00  0.00     0.042 A 
HETATM   26  C15 UNL     1      28.140  -1.786  53.047  1.00  0.00     0.118 A 
HETATM   27  F1  UNL     1      28.130  -3.068  52.600  1.00  0.00    -0.206 F 
HETATM   28  C16 UNL     1      26.959  -1.092  53.135  1.00  0.00     0.071 A 
ENDBRANCH  20  22
ENDBRANCH   8  20
TORSDOF 5
ENDMDL
MODEL 6
REMARK VINA RESULT:      -8.0      3.116      6.046
REMARK  5 active torsions:
REMARK  status: ('A' for Active; 'I' for Inactive)
REMARK    1  A    between atoms: N1_1  and  C1_2 
REMARK    2  A    between atoms: N3_7  and  C5_8 
REMARK    3  A    between atoms: C5_8  and  C6_9 
REMARK    4  A    between atoms: C10_16  and  N7_17 
REMARK    5  A    between atoms: N7_17  and  C11_18 
ROOT
HETATM    1  C6  UNL     1      23.385   1.737  51.988  1.00  0.00    -0.007 A 
HETATM    2  C7  UNL     1      22.428   0.742  52.101  1.00  0.00     0.030 A 
HETATM    3  C8  UNL     1      21.757   0.584  50.902  1.00  0.00     0.119 A 
HETATM    4  N4  UNL     1      22.303   1.486  50.055  1.00  0.00    -0.240 N 
HETATM    5  N5  UNL     1      21.924   1.652  48.785  1.00  0.00    -0.161 NA
HETATM    6  C9  UNL     1      22.533   2.575  48.044  1.00  0.00     0.258 A 
HETATM    7  N6  UNL     1      23.485   3.271  48.639  1.00  0.00    -0.220 NA
HETATM    8  C10 UNL     1      23.897   3.136  49.907  1.00  0.00     0.159 A 
HETATM    9  C17 UNL     1      23.283   2.189  50.690  1.00  0.00     0.112 A 
ENDROOT
BRANCH   1  10
HETATM   10  C5  UNL     1      24.333   2.232  53.017  1.00  0.00     0.160 C 
BRANCH  10  11
HETATM   11  N3  UNL     1      25.393   1.314  53.187  1.00  0.00    -0.383 N 
HETATM   12  C1  UNL     1      26.177   1.364  54.359  1.00  0.00     0.193 C 
HETATM   13  C2  UNL     1      26.333  -0.066  54.829  1.00  0.00     0.194 C 
HETATM   14  N2  UNL     1      26.686  -0.867  53.705  1.00  0.00    -0.300 NA
HETATM   15  C3  UNL     1      26.586  -0.550  52.476  1.00  0.00     0.102 C 
HETATM   16  C4  UNL     1      26.050   0.796  52.050  1.00  0.00     0.165 C 
BRANCH  12  17
HETATM   17  N1  UNL     1      27.528   1.839  54.118  1.00  0.00    -0.409 N 
HETATM   18  H1  UNL     1      27.891   1.671  53.174  1.00  0.00     0.152 HD
HETATM   19  H2  UNL     1      27.712   2.766  54.523  1.00  0.00     0.152 HD
ENDBRANCH  12  17
ENDBRANCH  10  11
ENDBRANCH   1  10
BRANCH   8  20
HETATM   20  N7  UNL     1      24.918   3.949  50.441  1.00  0.00    -0.339 N 
HETATM   21  H14 UNL     1      25.199   4.133  51.410  1.00  0.00     0.167 HD
BRANCH  20  22
HETATM   22  C11 UNL     1      25.808   4.744  49.682  1.00  0.00     0.036 A 
HETATM   23  C12 UNL     1      26.996   4.222  49.221  1.00  0.00     0.029 A 
HETATM   24  C13 UNL     1      27.911   4.950  48.499  1.00  0.00     0.005 A 
HETATM   25  C14 UNL     1      27.681   6.267  48.192  1.00  0.00     0.042 A 
HETATM   26  C15 UNL     1      26.517   6.860  48.619  1.00  0.00     0.118 A 
HETATM   27  F1  UNL     1      26.204   8.156  48.362  1.00  0.00    -0.206 F 
HETATM   28  C16 UNL     1      25.642   6.083  49.335  1.00  0.00     0.071 A 
ENDBRANCH  20  22
ENDBRANCH   8  20
TORSDOF 5
ENDMDL
MODEL 7
REMARK VINA RESULT:      -8.0      2.508      4.082
REMARK  5 active torsions:
REMARK  status: ('A' for Active; 'I' for Inactive)
REMARK    1  A    between atoms: N1_1  and  C1_2 
REMARK    2  A    between atoms: N3_7  and  C5_8 
REMARK    3  A    between atoms: C5_8  and  C6_9 
REMARK    4  A    between atoms: C10_16  and  N7_17 
REMARK    5  A    between atoms: N7_17  and  C11_18 
ROOT
HETATM    1  C6  UNL     1      24.648   3.351  49.842  1.00  0.00    -0.007 A 
HETATM    2  C7  UNL     1      23.586   3.282  48.954  1.00  0.00     0.030 A 
HETATM    3  C8  UNL     1      22.608   2.436  49.441  1.00  0.00     0.119 A 
HETATM    4  N4  UNL     1      23.072   1.984  50.628  1.00  0.00    -0.240 N 
HETATM    5  N5  UNL     1      22.415   1.132  51.420  1.00  0.00    -0.161 NA
HETATM    6  C9  UNL     1      22.973   0.753  52.566  1.00  0.00     0.258 A 
HETATM    7  N6  UNL     1      24.161   1.261  52.837  1.00  0.00    -0.220 NA
HETATM    8  C10 UNL     1      24.855   2.117  52.074  1.00  0.00     0.159 A 
HETATM    9  C17 UNL     1      24.297   2.522  50.886  1.00  0.00     0.112 A 
ENDROOT
BRANCH   1  10
HETATM   10  C5  UNL     1      25.901   4.138  49.728  1.00  0.00     0.160 C 
BRANCH  10  11
HETATM   11  N3  UNL     1      25.605   5.510  49.575  1.00  0.00    -0.383 N 
HETATM   12  C1  UNL     1      26.452   6.323  48.791  1.00  0.00     0.193 C 
HETATM   13  C2  UNL     1      25.546   7.164  47.917  1.00  0.00     0.194 C 
HETATM   14  N2  UNL     1      24.512   7.702  48.737  1.00  0.00    -0.300 NA
HETATM   15  C3  UNL     1      24.186   7.321  49.907  1.00  0.00     0.102 C 
HETATM   16  C4  UNL     1      24.905   6.187  50.597  1.00  0.00     0.165 C 
BRANCH  12  17
HETATM   17  N1  UNL     1      27.216   7.272  49.580  1.00  0.00    -0.409 N 
HETATM   18  H1  UNL     1      28.181   7.425  49.271  1.00  0.00     0.152 HD
HETATM   19  H2  UNL     1      26.679   8.109  49.843  1.00  0.00     0.152 HD
ENDBRANCH  12  17
ENDBRANCH  10  11
ENDBRANCH   1  10
BRANCH   8  20
HETATM   20  N7  UNL     1      26.128   2.584  52.459  1.00  0.00    -0.339 N 
HETATM   21  H14 UNL     1      26.534   3.525  52.455  1.00  0.00     0.167 HD
BRANCH  20  22
HETATM   22  C11 UNL     1      27.180   1.773  52.948  1.00  0.00     0.036 A 
HETATM   23  C12 UNL     1      28.230   2.330  53.644  1.00  0.00     0.029 A 
HETATM   24  C13 UNL     1      29.290   1.599  54.123  1.00  0.00     0.005 A 
HETATM   25  C14 UNL     1      29.358   0.243  53.927  1.00  0.00     0.042 A 
HETATM   26  C15 UNL     1      28.348  -0.386  53.240  1.00  0.00     0.118 A 
HETATM   27  F1  UNL     1      28.330  -1.722  52.999  1.00  0.00    -0.206 F 
HETATM   28  C16 UNL     1      27.315   0.396  52.786  1.00  0.00     0.071 A 
ENDBRANCH  20  22
ENDBRANCH   8  20
TORSDOF 5
ENDMDL
MODEL 8
REMARK VINA RESULT:      -7.9      2.455      6.111
REMARK  5 active torsions:
REMARK  status: ('A' for Active; 'I' for Inactive)
REMARK    1  A    between atoms: N1_1  and  C1_2 
REMARK    2  A    between atoms: N3_7  and  C5_8 
REMARK    3  A    between atoms: C5_8  and  C6_9 
REMARK    4  A    between atoms: C10_16  and  N7_17 
REMARK    5  A    between atoms: N7_17  and  C11_18 
ROOT
HETATM    1  C6  UNL     1      23.805   2.131  52.661  1.00  0.00    -0.007 A 
HETATM    2  C7  UNL     1      23.117   0.949  52.880  1.00  0.00     0.030 A 
HETATM    3  C8  UNL     1      21.774   1.117  52.596  1.00  0.00     0.119 A 
HETATM    4  N4  UNL     1      21.640   2.405  52.206  1.00  0.00    -0.240 N 
HETATM    5  N5  UNL     1      20.484   2.967  51.845  1.00  0.00    -0.161 NA
HETATM    6  C9  UNL     1      20.472   4.246  51.482  1.00  0.00     0.258 A 
HETATM    7  N6  UNL     1      21.633   4.875  51.508  1.00  0.00    -0.220 NA
HETATM    8  C10 UNL     1      22.815   4.351  51.861  1.00  0.00     0.159 A 
HETATM    9  C17 UNL     1      22.851   3.031  52.239  1.00  0.00     0.112 A 
ENDROOT
BRANCH   1  10
HETATM   10  C5  UNL     1      25.255   2.404  52.831  1.00  0.00     0.160 C 
BRANCH  10  11
HETATM   11  N3  UNL     1      25.942   1.212  53.151  1.00  0.00    -0.383 N 
HETATM   12  C1  UNL     1      26.424   1.017  54.463  1.00  0.00     0.193 C 
HETATM   13  C2  UNL     1      26.054  -0.400  54.846  1.00  0.00     0.194 C 
HETATM   14  N2  UNL     1      26.406  -1.259  53.766  1.00  0.00    -0.300 NA
HETATM   15  C3  UNL     1      26.679  -0.914  52.571  1.00  0.00     0.102 C 
HETATM   16  C4  UNL     1      26.660   0.533  52.143  1.00  0.00     0.165 C 
BRANCH  12  17
HETATM   17  N1  UNL     1      27.872   1.074  54.550  1.00  0.00    -0.409 N 
HETATM   18  H1  UNL     1      28.375   0.763  53.712  1.00  0.00     0.152 HD
HETATM   19  H2  UNL     1      28.220   1.927  55.005  1.00  0.00     0.152 HD
ENDBRANCH  12  17
ENDBRANCH  10  11
ENDBRANCH   1  10
BRANCH   8  20
HETATM   20  N7  UNL     1      23.994   5.125  51.865  1.00  0.00    -0.339 N 
HETATM   21  H14 UNL     1      24.547   5.511  52.637  1.00  0.00     0.167 HD
BRANCH  20  22
HETATM   22  C11 UNL     1      24.683   5.568  50.712  1.00  0.00     0.036 A 
HETATM   23  C12 UNL     1      24.340   6.753  50.101  1.00  0.00     0.029 A 
HETATM   24  C13 UNL     1      24.956   7.224  48.966  1.00  0.00     0.005 A 
HETATM   25  C14 UNL     1      25.971   6.519  48.371  1.00  0.00     0.042 A 
HETATM   26  C15 UNL     1      26.371   5.325  48.922  1.00  0.00     0.118 A 
HETATM   27  F1  UNL     1      27.366   4.561  48.403  1.00  0.00    -0.206 F 
HETATM   28  C16 UNL     1      25.718   4.907  50.055  1.00  0.00     0.071 A 
ENDBRANCH  20  22
ENDBRANCH   8  20
TORSDOF 5
ENDMDL
MODEL 9
REMARK VINA RESULT:      -7.7      2.762      6.475
REMARK  5 active torsions:
REMARK  status: ('A' for Active; 'I' for Inactive)
REMARK    1  A    between atoms: N1_1  and  C1_2 
REMARK    2  A    between atoms: N3_7  and  C5_8 
REMARK    3  A    between atoms: C5_8  and  C6_9 
REMARK    4  A    between atoms: C10_16  and  N7_17 
REMARK    5  A    between atoms: N7_17  and  C11_18 
ROOT
HETATM    1  C6  UNL     1      26.076   2.289  51.016  1.00  0.00    -0.007 A 
HETATM    2  C7  UNL     1      26.696   2.905  49.941  1.00  0.00     0.030 A 
HETATM    3  C8  UNL     1      26.124   4.140  49.702  1.00  0.00     0.119 A 
HETATM    4  N4  UNL     1      25.150   4.280  50.630  1.00  0.00    -0.240 N 
HETATM    5  N5  UNL     1      24.355   5.348  50.734  1.00  0.00    -0.161 NA
HETATM    6  C9  UNL     1      23.427   5.372  51.688  1.00  0.00     0.258 A 
HETATM    7  N6  UNL     1      23.364   4.313  52.474  1.00  0.00    -0.220 NA
HETATM    8  C10 UNL     1      24.141   3.223  52.405  1.00  0.00     0.159 A 
HETATM    9  C17 UNL     1      25.106   3.176  51.429  1.00  0.00     0.112 A 
ENDROOT
BRANCH   1  10
HETATM   10  C5  UNL     1      26.370   0.965  51.620  1.00  0.00     0.160 C 
BRANCH  10  11
HETATM   11  N3  UNL     1      27.237   1.113  52.725  1.00  0.00    -0.383 N 
HETATM   12  C1  UNL     1      27.175   0.187  53.788  1.00  0.00     0.193 C 
HETATM   13  C2  UNL     1      28.607  -0.174  54.122  1.00  0.00     0.194 C 
HETATM   14  N2  UNL     1      29.363   1.031  54.200  1.00  0.00    -0.300 NA
HETATM   15  C3  UNL     1      29.022   2.178  53.765  1.00  0.00     0.102 C 
HETATM   16  C4  UNL     1      27.696   2.400  53.079  1.00  0.00     0.165 C 
BRANCH  12  17
HETATM   17  N1  UNL     1      26.628   0.757  55.006  1.00  0.00    -0.409 N 
HETATM   18  H1  UNL     1      25.604   0.761  55.069  1.00  0.00     0.152 HD
HETATM   19  H2  UNL     1      27.139   0.478  55.853  1.00  0.00     0.152 HD
ENDBRANCH  12  17
ENDBRANCH  10  11
ENDBRANCH   1  10
BRANCH   8  20
HETATM   20  N7  UNL     1      23.972   2.140  53.293  1.00  0.00    -0.339 N 
HETATM   21  H14 UNL     1      24.478   1.879  54.145  1.00  0.00     0.167 HD
BRANCH  20  22
HETATM   22  C11 UNL     1      23.006   1.115  53.154  1.00  0.00     0.036 A 
HETATM   23  C12 UNL     1      23.156  -0.084  53.813  1.00  0.00     0.029 A 
HETATM   24  C13 UNL     1      22.265  -1.124  53.702  1.00  0.00     0.005 A 
HETATM   25  C14 UNL     1      21.152  -1.017  52.907  1.00  0.00     0.042 A 
HETATM   26  C15 UNL     1      20.933   0.151  52.216  1.00  0.00     0.118 A 
HETATM   27  F1  UNL     1      19.860   0.347  51.408  1.00  0.00    -0.206 F 
HETATM   28  C16 UNL     1      21.857   1.154  52.368  1.00  0.00     0.071 A 
ENDBRANCH  20  22
ENDBRANCH   8  20
TORSDOF 5
ENDMDL
