MODEL 1
REMARK VINA RESULT:      -8.2      0.000      0.000
REMARK  3 active torsions:
REMARK  status: ('A' for Active; 'I' for Inactive)
REMARK    1  A    between atoms: C3_3  and  C4_4 
REMARK       I    between atoms: C4_4  and  N1_6 
REMARK    2  A    between atoms: N1_6  and  C5_7 
REMARK    3  A    between atoms: C8_10  and  C9_11 
ROOT
HETATM    1  C1  UNL     1      27.104   7.168  47.976  1.00  0.00     0.112 C 
HETATM    2  C2  UNL     1      26.680   5.928  48.647  1.00  0.00    -0.101 C 
HETATM    3  C3  UNL     1      26.338   4.905  49.220  1.00  0.00    -0.006 C 
ENDROOT
BRANCH   3   4
HETATM    4  C4  UNL     1      25.952   3.707  49.912  1.00  0.00     0.302 C 
HETATM    5  O1  UNL     1      26.792   2.787  50.143  1.00  0.00    -0.258 OA
HETATM    6  N1  UNL     1      24.582   3.624  50.317  1.00  0.00    -0.301 N 
HETATM    7  H4  UNL     1      23.897   4.389  50.122  1.00  0.00     0.171 HD
BRANCH   6   8
HETATM    8  C5  UNL     1      23.805   2.648  51.003  1.00  0.00     0.131 A 
HETATM    9  C6  UNL     1      24.276   1.730  51.910  1.00  0.00     0.067 A 
HETATM   10  C7  UNL     1      23.504   0.796  52.558  1.00  0.00     0.027 A 
HETATM   11  C8  UNL     1      24.145  -0.007  53.455  1.00  0.00     0.081 A 
HETATM   12  C15 UNL     1      22.174   0.832  52.242  1.00  0.00     0.088 A 
HETATM   13  N2  UNL     1      23.273  -0.845  54.079  1.00  0.00    -0.240 NA
HETATM   14  C14 UNL     1      21.964  -0.861  53.822  1.00  0.00     0.234 A 
HETATM   15  N3  UNL     1      21.381  -0.049  52.921  1.00  0.00    -0.240 NA
HETATM   16  C16 UNL     1      21.659   1.734  51.340  1.00  0.00     0.151 A 
HETATM   17  N4  UNL     1      22.468   2.644  50.718  1.00  0.00    -0.241 NA
BRANCH  11  18
HETATM   18  C9  UNL     1      25.560  -0.200  53.690  1.00  0.00    -0.005 A 
HETATM   19  C10 UNL     1      26.128  -1.061  52.817  1.00  0.00     0.021 A 
HETATM   20  C11 UNL     1      27.500  -1.525  52.693  1.00  0.00     0.055 A 
HETATM   21  S1  UNL     1      28.519  -0.888  53.794  1.00  0.00    -0.078 SA
HETATM   22 CL1  UNL     1      30.543  -1.360  53.869  1.00  0.00    -0.047 Cl
HETATM   23  C12 UNL     1      27.717   0.259  54.922  1.00  0.00     0.055 A 
HETATM   24  C13 UNL     1      26.435   0.398  54.685  1.00  0.00     0.021 A 
ENDBRANCH  11  18
ENDBRANCH   6   8
ENDBRANCH   3   4
TORSDOF 3
ENDMDL
MODEL 2
REMARK VINA RESULT:      -8.0      3.773      5.044
REMARK  3 active torsions:
REMARK  status: ('A' for Active; 'I' for Inactive)
REMARK    1  A    between atoms: C3_3  and  C4_4 
REMARK       I    between atoms: C4_4  and  N1_6 
REMARK    2  A    between atoms: N1_6  and  C5_7 
REMARK    3  A    between atoms: C8_10  and  C9_11 
ROOT
HETATM    1  C1  UNL     1      27.826   7.196  47.678  1.00  0.00     0.112 C 
HETATM    2  C2  UNL     1      27.210   6.055  48.376  1.00  0.00    -0.101 C 
HETATM    3  C3  UNL     1      26.707   5.115  48.972  1.00  0.00    -0.006 C 
ENDROOT
BRANCH   3   4
HETATM    4  C4  UNL     1      26.129   4.015  49.693  1.00  0.00     0.302 C 
HETATM    5  O1  UNL     1      25.027   3.504  49.332  1.00  0.00    -0.258 OA
HETATM    6  N1  UNL     1      26.867   3.544  50.825  1.00  0.00    -0.301 N 
HETATM    7  H4  UNL     1      27.775   3.972  51.115  1.00  0.00     0.171 HD
BRANCH   6   8
HETATM    8  C5  UNL     1      26.664   2.513  51.785  1.00  0.00     0.131 A 
HETATM    9  C6  UNL     1      25.458   1.955  52.132  1.00  0.00     0.067 A 
HETATM   10  C7  UNL     1      25.289   0.960  53.065  1.00  0.00     0.027 A 
HETATM   11  C8  UNL     1      24.017   0.506  53.246  1.00  0.00     0.081 A 
HETATM   12  C15 UNL     1      26.444   0.527  53.657  1.00  0.00     0.088 A 
HETATM   13  N2  UNL     1      23.981  -0.518  54.143  1.00  0.00    -0.240 NA
HETATM   14  C14 UNL     1      25.067  -0.991  54.755  1.00  0.00     0.234 A 
HETATM   15  N3  UNL     1      26.302  -0.502  54.543  1.00  0.00    -0.240 NA
HETATM   16  C16 UNL     1      27.673   1.056  53.340  1.00  0.00     0.151 A 
HETATM   17  N4  UNL     1      27.791   2.048  52.406  1.00  0.00    -0.241 NA
BRANCH  11  18
HETATM   18  C9  UNL     1      22.757   1.046  52.781  1.00  0.00    -0.005 A 
HETATM   19  C10 UNL     1      21.753   0.142  52.809  1.00  0.00     0.021 A 
HETATM   20  C11 UNL     1      20.351   0.264  52.441  1.00  0.00     0.055 A 
HETATM   21  S1  UNL     1      19.929   1.748  51.914  1.00  0.00    -0.078 SA
HETATM   22 CL1  UNL     1      17.996   2.229  51.317  1.00  0.00    -0.047 Cl
HETATM   23  C12 UNL     1      21.297   2.914  51.909  1.00  0.00     0.055 A 
HETATM   24  C13 UNL     1      22.423   2.385  52.324  1.00  0.00     0.021 A 
ENDBRANCH  11  18
ENDBRANCH   6   8
ENDBRANCH   3   4
TORSDOF 3
ENDMDL
MODEL 3
REMARK VINA RESULT:      -7.8      4.089      6.214
REMARK  3 active torsions:
REMARK  status: ('A' for Active; 'I' for Inactive)
REMARK    1  A    between atoms: C3_3  and  C4_4 
REMARK       I    between atoms: C4_4  and  N1_6 
REMARK    2  A    between atoms: N1_6  and  C5_7 
REMARK    3  A    between atoms: C8_10  and  C9_11 
ROOT
HETATM    1  C1  UNL     1      30.224  -0.872  53.805  1.00  0.00     0.112 C 
HETATM    2  C2  UNL     1      28.828  -0.422  53.943  1.00  0.00    -0.101 C 
HETATM    3  C3  UNL     1      27.673  -0.038  54.041  1.00  0.00    -0.006 C 
ENDROOT
BRANCH   3   4
HETATM    4  C4  UNL     1      26.319   0.431  54.138  1.00  0.00     0.302 C 
HETATM    5  O1  UNL     1      26.060   1.598  54.558  1.00  0.00    -0.258 OA
HETATM    6  N1  UNL     1      25.301  -0.491  53.736  1.00  0.00    -0.301 N 
HETATM    7  H4  UNL     1      25.525  -1.452  53.390  1.00  0.00     0.171 HD
BRANCH   6   8
HETATM    8  C5  UNL     1      23.880  -0.438  53.674  1.00  0.00     0.131 A 
HETATM    9  C6  UNL     1      23.134   0.279  52.771  1.00  0.00     0.067 A 
HETATM   10  C7  UNL     1      21.761   0.315  52.734  1.00  0.00     0.027 A 
HETATM   11  C8  UNL     1      21.198   1.055  51.737  1.00  0.00     0.081 A 
HETATM   12  C15 UNL     1      21.142  -0.445  53.688  1.00  0.00     0.088 A 
HETATM   13  N2  UNL     1      19.840   0.964  51.761  1.00  0.00    -0.240 NA
HETATM   14  C14 UNL     1      19.172   0.241  52.661  1.00  0.00     0.234 A 
HETATM   15  N3  UNL     1      19.778  -0.469  53.630  1.00  0.00    -0.240 NA
HETATM   16  C16 UNL     1      21.848  -1.179  54.612  1.00  0.00     0.151 A 
HETATM   17  N4  UNL     1      23.215  -1.181  54.611  1.00  0.00    -0.241 NA
BRANCH  11  18
HETATM   18  C9  UNL     1      21.799   2.005  50.825  1.00  0.00    -0.005 A 
HETATM   19  C10 UNL     1      21.904   3.246  51.349  1.00  0.00     0.021 A 
HETATM   20  C11 UNL     1      22.444   4.474  50.788  1.00  0.00     0.055 A 
HETATM   21  S1  UNL     1      23.024   4.314  49.274  1.00  0.00    -0.078 SA
HETATM   22 CL1  UNL     1      23.859   5.894  48.209  1.00  0.00    -0.047 Cl
HETATM   23  C12 UNL     1      22.873   2.643  48.629  1.00  0.00     0.055 A 
HETATM   24  C13 UNL     1      22.312   1.815  49.478  1.00  0.00     0.021 A 
ENDBRANCH  11  18
ENDBRANCH   6   8
ENDBRANCH   3   4
TORSDOF 3
ENDMDL
MODEL 4
REMARK VINA RESULT:      -7.4      3.011      6.437
REMARK  3 active torsions:
REMARK  status: ('A' for Active; 'I' for Inactive)
REMARK    1  A    between atoms: C3_3  and  C4_4 
REMARK       I    between atoms: C4_4  and  N1_6 
REMARK    2  A    between atoms: N1_6  and  C5_7 
REMARK    3  A    between atoms: C8_10  and  C9_11 
ROOT
HETATM    1  C1  UNL     1      16.871  -3.718  53.468  1.00  0.00     0.112 C 
HETATM    2  C2  UNL     1      17.872  -2.638  53.472  1.00  0.00    -0.101 C 
HETATM    3  C3  UNL     1      18.716  -1.754  53.481  1.00  0.00    -0.006 C 
ENDROOT
BRANCH   3   4
HETATM    4  C4  UNL     1      19.723  -0.731  53.505  1.00  0.00     0.302 C 
HETATM    5  O1  UNL     1      20.750  -0.843  54.239  1.00  0.00    -0.258 OA
HETATM    6  N1  UNL     1      19.494   0.401  52.660  1.00  0.00    -0.301 N 
HETATM    7  H4  UNL     1      18.644   0.483  52.058  1.00  0.00     0.171 HD
BRANCH   6   8
HETATM    8  C5  UNL     1      20.211   1.600  52.388  1.00  0.00     0.131 A 
HETATM    9  C6  UNL     1      21.576   1.724  52.294  1.00  0.00     0.067 A 
HETATM   10  C7  UNL     1      22.245   2.896  52.033  1.00  0.00     0.027 A 
HETATM   11  C8  UNL     1      23.602   2.814  51.938  1.00  0.00     0.081 A 
HETATM   12  C15 UNL     1      21.440   3.988  51.856  1.00  0.00     0.088 A 
HETATM   13  N2  UNL     1      24.149   4.017  51.614  1.00  0.00    -0.240 NA
HETATM   14  C14 UNL     1      23.424   5.121  51.425  1.00  0.00     0.234 A 
HETATM   15  N3  UNL     1      22.084   5.149  51.536  1.00  0.00    -0.240 NA
HETATM   16  C16 UNL     1      20.069   3.910  51.941  1.00  0.00     0.151 A 
HETATM   17  N4  UNL     1      19.449   2.721  52.207  1.00  0.00    -0.241 NA
BRANCH  11  18
HETATM   18  C9  UNL     1      24.499   1.732  52.287  1.00  0.00    -0.005 A 
HETATM   19  C10 UNL     1      25.729   1.871  51.746  1.00  0.00     0.021 A 
HETATM   20  C11 UNL     1      26.913   1.032  51.845  1.00  0.00     0.055 A 
HETATM   21  S1  UNL     1      26.714  -0.292  52.773  1.00  0.00    -0.078 SA
HETATM   22 CL1  UNL     1      28.227  -1.681  53.104  1.00  0.00    -0.047 Cl
HETATM   23  C12 UNL     1      25.065  -0.422  53.479  1.00  0.00     0.055 A 
HETATM   24  C13 UNL     1      24.279   0.568  53.129  1.00  0.00     0.021 A 
ENDBRANCH  11  18
ENDBRANCH   6   8
ENDBRANCH   3   4
TORSDOF 3
ENDMDL
MODEL 5
REMARK VINA RESULT:      -7.4      4.093      7.177
REMARK  3 active torsions:
REMARK  status: ('A' for Active; 'I' for Inactive)
REMARK    1  A    between atoms: C3_3  and  C4_4 
REMARK       I    between atoms: C4_4  and  N1_6 
REMARK    2  A    between atoms: N1_6  and  C5_7 
REMARK    3  A    between atoms: C8_10  and  C9_11 
ROOT
HETATM    1  C1  UNL     1      17.321  -0.867  52.692  1.00  0.00     0.112 C 
HETATM    2  C2  UNL     1      18.727  -0.875  53.131  1.00  0.00    -0.101 C 
HETATM    3  C3  UNL     1      19.887  -0.884  53.514  1.00  0.00    -0.006 C 
ENDROOT
BRANCH   3   4
HETATM    4  C4  UNL     1      21.243  -0.892  53.988  1.00  0.00     0.302 C 
HETATM    5  O1  UNL     1      21.545  -1.434  55.092  1.00  0.00    -0.258 OA
HETATM    6  N1  UNL     1      22.211  -0.259  53.144  1.00  0.00    -0.301 N 
HETATM    7  H4  UNL     1      21.950   0.185  52.235  1.00  0.00     0.171 HD
BRANCH   6   8
HETATM    8  C5  UNL     1      23.616  -0.048  53.228  1.00  0.00     0.131 A 
HETATM    9  C6  UNL     1      24.312   0.996  52.670  1.00  0.00     0.067 A 
HETATM   10  C7  UNL     1      25.671   1.177  52.765  1.00  0.00     0.027 A 
HETATM   11  C8  UNL     1      26.178   2.297  52.176  1.00  0.00     0.081 A 
HETATM   12  C15 UNL     1      26.328   0.218  53.486  1.00  0.00     0.088 A 
HETATM   13  N2  UNL     1      27.519   2.403  52.389  1.00  0.00    -0.240 NA
HETATM   14  C14 UNL     1      28.221   1.507  53.084  1.00  0.00     0.234 A 
HETATM   15  N3  UNL     1      27.671   0.413  53.641  1.00  0.00    -0.240 NA
HETATM   16  C16 UNL     1      25.671  -0.844  54.063  1.00  0.00     0.151 A 
HETATM   17  N4  UNL     1      24.317  -0.983  53.938  1.00  0.00    -0.241 NA
BRANCH  11  18
HETATM   18  C9  UNL     1      25.559   3.235  51.264  1.00  0.00    -0.005 A 
HETATM   19  C10 UNL     1      26.387   3.633  50.273  1.00  0.00     0.021 A 
HETATM   20  C11 UNL     1      26.172   4.544  49.161  1.00  0.00     0.055 A 
HETATM   21  S1  UNL     1      24.673   5.183  49.106  1.00  0.00    -0.078 SA
HETATM   22 CL1  UNL     1      24.066   6.519  47.631  1.00  0.00    -0.047 Cl
HETATM   23  C12 UNL     1      23.609   4.612  50.437  1.00  0.00     0.055 A 
HETATM   24  C13 UNL     1      24.210   3.775  51.249  1.00  0.00     0.021 A 
ENDBRANCH  11  18
ENDBRANCH   6   8
ENDBRANCH   3   4
TORSDOF 3
ENDMDL
MODEL 6
REMARK VINA RESULT:      -7.4      3.758      6.430
REMARK  3 active torsions:
REMARK  status: ('A' for Active; 'I' for Inactive)
REMARK    1  A    between atoms: C3_3  and  C4_4 
REMARK       I    between atoms: C4_4  and  N1_6 
REMARK    2  A    between atoms: N1_6  and  C5_7 
REMARK    3  A    between atoms: C8_10  and  C9_11 
ROOT
HETATM    1  C1  UNL     1      16.600  -0.226  50.125  1.00  0.00     0.112 C 
HETATM    2  C2  UNL     1      17.798   0.172  50.884  1.00  0.00    -0.101 C 
HETATM    3  C3  UNL     1      18.792   0.484  51.522  1.00  0.00    -0.006 C 
ENDROOT
BRANCH   3   4
HETATM    4  C4  UNL     1      19.956   0.831  52.289  1.00  0.00     0.302 C 
HETATM    5  O1  UNL     1      20.090   1.988  52.785  1.00  0.00    -0.258 OA
HETATM    6  N1  UNL     1      20.936  -0.200  52.452  1.00  0.00    -0.301 N 
HETATM    7  H4  UNL     1      20.815  -1.153  52.038  1.00  0.00     0.171 HD
BRANCH   6   8
HETATM    8  C5  UNL     1      22.193  -0.281  53.113  1.00  0.00     0.131 A 
HETATM    9  C6  UNL     1      23.284   0.519  52.878  1.00  0.00     0.067 A 
HETATM   10  C7  UNL     1      24.490   0.419  53.530  1.00  0.00     0.027 A 
HETATM   11  C8  UNL     1      25.445   1.330  53.188  1.00  0.00     0.081 A 
HETATM   12  C15 UNL     1      24.549  -0.565  54.478  1.00  0.00     0.088 A 
HETATM   13  N2  UNL     1      26.568   1.176  53.940  1.00  0.00    -0.240 NA
HETATM   14  C14 UNL     1      26.693   0.239  54.882  1.00  0.00     0.234 A 
HETATM   15  N3  UNL     1      25.720  -0.641  55.178  1.00  0.00    -0.240 NA
HETATM   16  C16 UNL     1      23.481  -1.390  54.746  1.00  0.00     0.151 A 
HETATM   17  N4  UNL     1      22.302  -1.254  54.068  1.00  0.00    -0.241 NA
BRANCH  11  18
HETATM   18  C9  UNL     1      25.490   2.264  52.082  1.00  0.00    -0.005 A 
HETATM   19  C10 UNL     1      24.549   3.230  52.168  1.00  0.00     0.021 A 
HETATM   20  C11 UNL     1      24.252   4.351  51.290  1.00  0.00     0.055 A 
HETATM   21  S1  UNL     1      25.231   4.456  49.992  1.00  0.00    -0.078 SA
HETATM   22 CL1  UNL     1      25.054   5.952  48.558  1.00  0.00    -0.047 Cl
HETATM   23  C12 UNL     1      26.473   3.157  49.933  1.00  0.00     0.055 A 
HETATM   24  C13 UNL     1      26.391   2.324  50.943  1.00  0.00     0.021 A 
ENDBRANCH  11  18
ENDBRANCH   6   8
ENDBRANCH   3   4
TORSDOF 3
ENDMDL
MODEL 7
REMARK VINA RESULT:      -7.3      2.197      2.579
REMARK  3 active torsions:
REMARK  status: ('A' for Active; 'I' for Inactive)
REMARK    1  A    between atoms: C3_3  and  C4_4 
REMARK       I    between atoms: C4_4  and  N1_6 
REMARK    2  A    between atoms: N1_6  and  C5_7 
REMARK    3  A    between atoms: C8_10  and  C9_11 
ROOT
HETATM    1  C1  UNL     1      27.631   9.319  50.181  1.00  0.00     0.112 C 
HETATM    2  C2  UNL     1      26.519   8.356  50.114  1.00  0.00    -0.101 C 
HETATM    3  C3  UNL     1      25.589   7.565  50.075  1.00  0.00    -0.006 C 
ENDROOT
BRANCH   3   4
HETATM    4  C4  UNL     1      24.488   6.643  50.051  1.00  0.00     0.302 C 
HETATM    5  O1  UNL     1      23.732   6.554  49.039  1.00  0.00    -0.258 OA
HETATM    6  N1  UNL     1      24.307   5.845  51.226  1.00  0.00    -0.301 N 
HETATM    7  H4  UNL     1      24.936   5.926  52.056  1.00  0.00     0.171 HD
BRANCH   6   8
HETATM    8  C5  UNL     1      23.374   4.842  51.613  1.00  0.00     0.131 A 
HETATM    9  C6  UNL     1      23.680   3.578  52.053  1.00  0.00     0.067 A 
HETATM   10  C7  UNL     1      22.759   2.626  52.419  1.00  0.00     0.027 A 
HETATM   11  C8  UNL     1      23.256   1.439  52.868  1.00  0.00     0.081 A 
HETATM   12  C15 UNL     1      21.454   3.024  52.323  1.00  0.00     0.088 A 
HETATM   13  N2  UNL     1      22.258   0.602  53.260  1.00  0.00    -0.240 NA
HETATM   14  C14 UNL     1      20.965   0.926  53.196  1.00  0.00     0.234 A 
HETATM   15  N3  UNL     1      20.526   2.112  52.739  1.00  0.00    -0.240 NA
HETATM   16  C16 UNL     1      21.101   4.281  51.887  1.00  0.00     0.151 A 
HETATM   17  N4  UNL     1      22.054   5.193  51.531  1.00  0.00    -0.241 NA
BRANCH  11  18
HETATM   18  C9  UNL     1      24.604   0.914  52.822  1.00  0.00    -0.005 A 
HETATM   19  C10 UNL     1      24.860   0.029  53.810  1.00  0.00     0.021 A 
HETATM   20  C11 UNL     1      26.062  -0.728  54.123  1.00  0.00     0.055 A 
HETATM   21  S1  UNL     1      27.301  -0.461  53.099  1.00  0.00    -0.078 SA
HETATM   22 CL1  UNL     1      29.148  -1.398  53.289  1.00  0.00    -0.047 Cl
HETATM   23  C12 UNL     1      26.904   0.713  51.796  1.00  0.00     0.055 A 
HETATM   24  C13 UNL     1      25.680   1.176  51.880  1.00  0.00     0.021 A 
ENDBRANCH  11  18
ENDBRANCH   6   8
ENDBRANCH   3   4
TORSDOF 3
ENDMDL
MODEL 8
REMARK VINA RESULT:      -7.0      1.801      2.077
REMARK  3 active torsions:
REMARK  status: ('A' for Active; 'I' for Inactive)
REMARK    1  A    between atoms: C3_3  and  C4_4 
REMARK       I    between atoms: C4_4  and  N1_6 
REMARK    2  A    between atoms: N1_6  and  C5_7 
REMARK    3  A    between atoms: C8_10  and  C9_11 
ROOT
HETATM    1  C1  UNL     1      23.516   7.387  47.158  1.00  0.00     0.112 C 
HETATM    2  C2  UNL     1      23.550   6.150  47.957  1.00  0.00    -0.101 C 
HETATM    3  C3  UNL     1      23.565   5.132  48.632  1.00  0.00    -0.006 C 
ENDROOT
BRANCH   3   4
HETATM    4  C4  UNL     1      23.570   3.947  49.444  1.00  0.00     0.302 C 
HETATM    5  O1  UNL     1      24.588   3.196  49.495  1.00  0.00    -0.258 OA
HETATM    6  N1  UNL     1      22.370   3.680  50.178  1.00  0.00    -0.301 N 
HETATM    7  H4  UNL     1      21.536   4.307  50.128  1.00  0.00     0.171 HD
BRANCH   6   8
HETATM    8  C5  UNL     1      21.961   2.651  51.072  1.00  0.00     0.131 A 
HETATM    9  C6  UNL     1      22.788   1.875  51.846  1.00  0.00     0.067 A 
HETATM   10  C7  UNL     1      22.366   0.885  52.702  1.00  0.00     0.027 A 
HETATM   11  C8  UNL     1      23.335   0.247  53.418  1.00  0.00     0.081 A 
HETATM   12  C15 UNL     1      21.011   0.707  52.749  1.00  0.00     0.088 A 
HETATM   13  N2  UNL     1      22.797  -0.664  54.274  1.00  0.00    -0.240 NA
HETATM   14  C14 UNL     1      21.486  -0.887  54.374  1.00  0.00     0.234 A 
HETATM   15  N3  UNL     1      20.570  -0.232  53.638  1.00  0.00    -0.240 NA
HETATM   16  C16 UNL     1      20.146   1.462  51.992  1.00  0.00     0.151 A 
HETATM   17  N4  UNL     1      20.613   2.434  51.152  1.00  0.00    -0.241 NA
BRANCH  11  18
HETATM   18  C9  UNL     1      24.775   0.277  53.275  1.00  0.00    -0.005 A 
HETATM   19  C10 UNL     1      25.426  -0.047  54.414  1.00  0.00     0.021 A 
HETATM   20  C11 UNL     1      26.848  -0.145  54.703  1.00  0.00     0.055 A 
HETATM   21  S1  UNL     1      27.810   0.186  53.430  1.00  0.00    -0.078 SA
HETATM   22 CL1  UNL     1      29.886   0.128  53.535  1.00  0.00    -0.047 Cl
HETATM   23  C12 UNL     1      26.895   0.596  51.938  1.00  0.00     0.055 A 
HETATM   24  C13 UNL     1      25.595   0.572  52.111  1.00  0.00     0.021 A 
ENDBRANCH  11  18
ENDBRANCH   6   8
ENDBRANCH   3   4
TORSDOF 3
ENDMDL
MODEL 9
REMARK VINA RESULT:      -7.0      4.710      7.610
REMARK  3 active torsions:
REMARK  status: ('A' for Active; 'I' for Inactive)
REMARK    1  A    between atoms: C3_3  and  C4_4 
REMARK       I    between atoms: C4_4  and  N1_6 
REMARK    2  A    between atoms: N1_6  and  C5_7 
REMARK    3  A    between atoms: C8_10  and  C9_11 
ROOT
HETATM    1  C1  UNL     1      14.009  -0.204  52.969  1.00  0.00     0.112 C 
HETATM    2  C2  UNL     1      15.463  -0.231  52.731  1.00  0.00    -0.101 C 
HETATM    3  C3  UNL     1      16.667  -0.273  52.531  1.00  0.00    -0.006 C 
ENDROOT
BRANCH   3   4
HETATM    4  C4  UNL     1      18.082  -0.347  52.298  1.00  0.00     0.302 C 
HETATM    5  O1  UNL     1      18.552  -0.336  51.122  1.00  0.00    -0.258 OA
HETATM    6  N1  UNL     1      18.911  -0.431  53.462  1.00  0.00    -0.301 N 
HETATM    7  H4  UNL     1      18.513  -0.438  54.429  1.00  0.00     0.171 HD
BRANCH   6   8
HETATM    8  C5  UNL     1      20.315  -0.519  53.679  1.00  0.00     0.131 A 
HETATM    9  C6  UNL     1      21.261   0.367  53.226  1.00  0.00     0.067 A 
HETATM   10  C7  UNL     1      22.613   0.258  53.448  1.00  0.00     0.027 A 
HETATM   11  C8  UNL     1      23.394   1.259  52.951  1.00  0.00     0.081 A 
HETATM   12  C15 UNL     1      22.987  -0.831  54.186  1.00  0.00     0.088 A 
HETATM   13  N2  UNL     1      24.701   1.079  53.285  1.00  0.00    -0.240 NA
HETATM   14  C14 UNL     1      25.134   0.042  54.004  1.00  0.00     0.234 A 
HETATM   15  N3  UNL     1      24.320  -0.923  54.468  1.00  0.00    -0.240 NA
HETATM   16  C16 UNL     1      22.073  -1.743  54.661  1.00  0.00     0.151 A 
HETATM   17  N4  UNL     1      20.737  -1.594  54.411  1.00  0.00    -0.241 NA
BRANCH  11  18
HETATM   18  C9  UNL     1      23.071   2.324  52.024  1.00  0.00    -0.005 A 
HETATM   19  C10 UNL     1      23.286   1.984  50.734  1.00  0.00     0.021 A 
HETATM   20  C11 UNL     1      23.091   2.738  49.506  1.00  0.00     0.055 A 
HETATM   21  S1  UNL     1      22.507   4.242  49.735  1.00  0.00    -0.078 SA
HETATM   22 CL1  UNL     1      22.123   5.558  48.171  1.00  0.00    -0.047 Cl
HETATM   23  C12 UNL     1      22.225   4.638  51.466  1.00  0.00     0.055 A 
HETATM   24  C13 UNL     1      22.542   3.654  52.274  1.00  0.00     0.021 A 
ENDBRANCH  11  18
ENDBRANCH   6   8
ENDBRANCH   3   4
TORSDOF 3
ENDMDL
