MODEL 1
REMARK VINA RESULT:      -8.4      0.000      0.000
REMARK  5 active torsions:
REMARK  status: ('A' for Active; 'I' for Inactive)
REMARK    1  A    between atoms: C2_2  and  O2_4 
REMARK    2  A    between atoms: O2_4  and  C3_5 
REMARK    3  A    between atoms: C9_13  and  N3_14 
REMARK    4  A    between atoms: N3_14  and  C10_15 
REMARK    5  A    between atoms: C12_17  and  C13_18 
ROOT
HETATM    1  C3  UNL     1      21.053   0.543  52.321  1.00  0.00     0.200 A 
HETATM    2  C4  UNL     1      19.723  -0.097  52.606  1.00  0.00    -0.048 A 
HETATM    3  C5  UNL     1      18.494   0.240  51.826  1.00  0.00     0.046 C 
HETATM    4  C6  UNL     1      19.778  -0.969  53.601  1.00  0.00     0.037 A 
HETATM    5  C7  UNL     1      21.148  -1.022  54.107  1.00  0.00     0.071 A 
HETATM    6  N1  UNL     1      21.753  -1.710  55.076  1.00  0.00    -0.241 NA
HETATM    7  C8  UNL     1      23.068  -1.569  55.347  1.00  0.00     0.235 A 
HETATM    8  N2  UNL     1      23.815  -0.704  54.620  1.00  0.00    -0.224 NA
HETATM    9  C9  UNL     1      23.243   0.018  53.624  1.00  0.00     0.136 A 
HETATM   10  C19 UNL     1      21.895  -0.133  53.353  1.00  0.00     0.050 A 
ENDROOT
BRANCH   9  11
HETATM   11  N3  UNL     1      24.034   0.930  52.859  1.00  0.00    -0.369 N 
HETATM   12  H10 UNL     1      23.697   1.892  52.712  1.00  0.00     0.161 HD
BRANCH  11  13
HETATM   13  C10 UNL     1      25.302   0.410  52.325  1.00  0.00     0.092 A 
HETATM   14  C11 UNL     1      26.241   1.353  51.625  1.00  0.00     0.037 A 
HETATM   15  C12 UNL     1      26.576   0.815  52.975  1.00  0.00     0.043 A 
BRANCH  15  16
HETATM   16  C13 UNL     1      27.623  -0.229  53.108  1.00  0.00    -0.052 A 
HETATM   17  C14 UNL     1      27.261  -1.547  52.824  1.00  0.00     0.007 A 
HETATM   18  C15 UNL     1      28.237  -2.541  52.945  1.00  0.00     0.001 A 
HETATM   19  C16 UNL     1      29.547  -2.265  53.337  1.00  0.00     0.000 A 
HETATM   20  C17 UNL     1      29.886  -0.951  53.614  1.00  0.00     0.001 A 
HETATM   21  C18 UNL     1      28.921   0.028  53.494  1.00  0.00     0.007 A 
ENDBRANCH  15  16
ENDBRANCH  11  13
ENDBRANCH   9  11
BRANCH   1  22
HETATM   22  O2  UNL     1      20.851   1.916  52.655  1.00  0.00    -0.307 OA
BRANCH  22  23
HETATM   23  C2  UNL     1      21.254   2.977  51.898  1.00  0.00     0.255 C 
HETATM   24  C1  UNL     1      20.348   4.081  51.485  1.00  0.00     0.126 C 
HETATM   25  O1  UNL     1      22.466   3.050  51.512  1.00  0.00    -0.266 OA
ENDBRANCH  22  23
ENDBRANCH   1  22
TORSDOF 5
ENDMDL
MODEL 2
REMARK VINA RESULT:      -8.2      1.950      3.473
REMARK  5 active torsions:
REMARK  status: ('A' for Active; 'I' for Inactive)
REMARK    1  A    between atoms: C2_2  and  O2_4 
REMARK    2  A    between atoms: O2_4  and  C3_5 
REMARK    3  A    between atoms: C9_13  and  N3_14 
REMARK    4  A    between atoms: N3_14  and  C10_15 
REMARK    5  A    between atoms: C12_17  and  C13_18 
ROOT
HETATM    1  C3  UNL     1      21.431   0.399  52.888  1.00  0.00     0.200 A 
HETATM    2  C4  UNL     1      20.039  -0.002  52.482  1.00  0.00    -0.048 A 
HETATM    3  C5  UNL     1      19.108  -0.700  53.418  1.00  0.00     0.046 C 
HETATM    4  C6  UNL     1      19.754   0.333  51.233  1.00  0.00     0.037 A 
HETATM    5  C7  UNL     1      20.915   0.997  50.646  1.00  0.00     0.071 A 
HETATM    6  N1  UNL     1      21.174   1.527  49.449  1.00  0.00    -0.241 NA
HETATM    7  C8  UNL     1      22.362   2.097  49.156  1.00  0.00     0.235 A 
HETATM    8  N2  UNL     1      23.337   2.143  50.096  1.00  0.00    -0.224 NA
HETATM    9  C9  UNL     1      23.119   1.618  51.328  1.00  0.00     0.136 A 
HETATM   10  C19 UNL     1      21.899   1.035  51.620  1.00  0.00     0.050 A 
ENDROOT
BRANCH   9  11
HETATM   11  N3  UNL     1      24.149   1.668  52.317  1.00  0.00    -0.369 N 
HETATM   12  H10 UNL     1      23.956   2.112  53.225  1.00  0.00     0.161 HD
BRANCH  11  13
HETATM   13  C10 UNL     1      25.440   1.066  51.951  1.00  0.00     0.092 A 
HETATM   14  C11 UNL     1      26.623   1.963  51.716  1.00  0.00     0.037 A 
HETATM   15  C12 UNL     1      26.555   1.104  52.932  1.00  0.00     0.043 A 
BRANCH  15  16
HETATM   16  C13 UNL     1      27.411  -0.107  53.022  1.00  0.00    -0.052 A 
HETATM   17  C14 UNL     1      26.866  -1.316  52.589  1.00  0.00     0.007 A 
HETATM   18  C15 UNL     1      27.661  -2.465  52.668  1.00  0.00     0.001 A 
HETATM   19  C16 UNL     1      28.965  -2.444  53.161  1.00  0.00     0.000 A 
HETATM   20  C17 UNL     1      29.487  -1.233  53.587  1.00  0.00     0.001 A 
HETATM   21  C18 UNL     1      28.701  -0.102  53.507  1.00  0.00     0.007 A 
ENDBRANCH  15  16
ENDBRANCH  11  13
ENDBRANCH   9  11
BRANCH   1  22
HETATM   22  O2  UNL     1      22.097  -0.844  53.103  1.00  0.00    -0.307 OA
BRANCH  22  23
HETATM   23  C2  UNL     1      22.601  -1.270  54.298  1.00  0.00     0.255 C 
HETATM   24  C1  UNL     1      23.961  -0.922  54.785  1.00  0.00     0.126 C 
HETATM   25  O1  UNL     1      21.886  -2.005  55.055  1.00  0.00    -0.266 OA
ENDBRANCH  22  23
ENDBRANCH   1  22
TORSDOF 5
ENDMDL
MODEL 3
REMARK VINA RESULT:      -7.9      2.115      2.942
REMARK  5 active torsions:
REMARK  status: ('A' for Active; 'I' for Inactive)
REMARK    1  A    between atoms: C2_2  and  O2_4 
REMARK    2  A    between atoms: O2_4  and  C3_5 
REMARK    3  A    between atoms: C9_13  and  N3_14 
REMARK    4  A    between atoms: N3_14  and  C10_15 
REMARK    5  A    between atoms: C12_17  and  C13_18 
ROOT
HETATM    1  C3  UNL     1      23.188   2.163  50.199  1.00  0.00     0.200 A 
HETATM    2  C4  UNL     1      22.113   1.947  49.170  1.00  0.00    -0.048 A 
HETATM    3  C5  UNL     1      22.190   2.542  47.802  1.00  0.00     0.046 C 
HETATM    4  C6  UNL     1      21.124   1.187  49.616  1.00  0.00     0.037 A 
HETATM    5  C7  UNL     1      21.411   0.800  50.995  1.00  0.00     0.071 A 
HETATM    6  N1  UNL     1      20.774   0.059  51.902  1.00  0.00    -0.241 NA
HETATM    7  C8  UNL     1      21.270  -0.149  53.140  1.00  0.00     0.235 A 
HETATM    8  N2  UNL     1      22.455   0.405  53.492  1.00  0.00    -0.224 NA
HETATM    9  C9  UNL     1      23.140   1.167  52.601  1.00  0.00     0.136 A 
HETATM   10  C19 UNL     1      22.624   1.374  51.335  1.00  0.00     0.050 A 
ENDROOT
BRANCH   9  11
HETATM   11  N3  UNL     1      24.390   1.750  52.975  1.00  0.00    -0.369 N 
HETATM   12  H10 UNL     1      24.400   2.574  53.592  1.00  0.00     0.161 HD
BRANCH  11  13
HETATM   13  C10 UNL     1      25.600   1.111  52.434  1.00  0.00     0.092 A 
HETATM   14  C11 UNL     1      26.726   1.978  51.943  1.00  0.00     0.037 A 
HETATM   15  C12 UNL     1      26.866   1.199  53.207  1.00  0.00     0.043 A 
BRANCH  15  16
HETATM   16  C13 UNL     1      27.724  -0.013  53.229  1.00  0.00    -0.052 A 
HETATM   17  C14 UNL     1      27.145  -1.222  52.841  1.00  0.00     0.007 A 
HETATM   18  C15 UNL     1      27.941  -2.372  52.857  1.00  0.00     0.001 A 
HETATM   19  C16 UNL     1      29.281  -2.353  53.244  1.00  0.00     0.000 A 
HETATM   20  C17 UNL     1      29.838  -1.142  53.625  1.00  0.00     0.001 A 
HETATM   21  C18 UNL     1      29.050  -0.010  53.608  1.00  0.00     0.007 A 
ENDBRANCH  15  16
ENDBRANCH  11  13
ENDBRANCH   9  11
BRANCH   1  22
HETATM   22  O2  UNL     1      23.122   3.562  50.475  1.00  0.00    -0.307 OA
BRANCH  22  23
HETATM   23  C2  UNL     1      24.170   4.431  50.387  1.00  0.00     0.255 C 
HETATM   24  C1  UNL     1      25.278   4.285  49.407  1.00  0.00     0.126 C 
HETATM   25  O1  UNL     1      24.225   5.431  51.176  1.00  0.00    -0.266 OA
ENDBRANCH  22  23
ENDBRANCH   1  22
TORSDOF 5
ENDMDL
MODEL 4
REMARK VINA RESULT:      -7.8      3.471      5.587
REMARK  5 active torsions:
REMARK  status: ('A' for Active; 'I' for Inactive)
REMARK    1  A    between atoms: C2_2  and  O2_4 
REMARK    2  A    between atoms: O2_4  and  C3_5 
REMARK    3  A    between atoms: C9_13  and  N3_14 
REMARK    4  A    between atoms: N3_14  and  C10_15 
REMARK    5  A    between atoms: C12_17  and  C13_18 
ROOT
HETATM    1  C3  UNL     1      22.814   0.533  52.479  1.00  0.00     0.200 A 
HETATM    2  C4  UNL     1      23.024  -0.496  53.556  1.00  0.00    -0.048 A 
HETATM    3  C5  UNL     1      21.901  -1.316  54.103  1.00  0.00     0.046 C 
HETATM    4  C6  UNL     1      24.288  -0.580  53.943  1.00  0.00     0.037 A 
HETATM    5  C7  UNL     1      25.081   0.379  53.178  1.00  0.00     0.071 A 
HETATM    6  N1  UNL     1      26.373   0.709  53.159  1.00  0.00    -0.241 NA
HETATM    7  C8  UNL     1      26.863   1.656  52.332  1.00  0.00     0.235 A 
HETATM    8  N2  UNL     1      26.029   2.305  51.484  1.00  0.00    -0.224 NA
HETATM    9  C9  UNL     1      24.706   2.003  51.467  1.00  0.00     0.136 A 
HETATM   10  C19 UNL     1      24.213   1.031  52.318  1.00  0.00     0.050 A 
ENDROOT
BRANCH   9  11
HETATM   11  N3  UNL     1      23.829   2.690  50.571  1.00  0.00    -0.369 N 
HETATM   12  H10 UNL     1      22.814   2.659  50.735  1.00  0.00     0.161 HD
BRANCH  11  13
HETATM   13  C10 UNL     1      24.464   3.406  49.454  1.00  0.00     0.092 A 
HETATM   14  C11 UNL     1      23.650   4.393  48.664  1.00  0.00     0.037 A 
HETATM   15  C12 UNL     1      24.721   4.863  49.588  1.00  0.00     0.043 A 
BRANCH  15  16
HETATM   16  C13 UNL     1      25.999   5.373  49.028  1.00  0.00    -0.052 A 
HETATM   17  C14 UNL     1      26.021   6.688  48.563  1.00  0.00     0.007 A 
HETATM   18  C15 UNL     1      27.218   7.182  48.033  1.00  0.00     0.001 A 
HETATM   19  C16 UNL     1      28.379   6.412  47.954  1.00  0.00     0.000 A 
HETATM   20  C17 UNL     1      28.336   5.108  48.421  1.00  0.00     0.001 A 
HETATM   21  C18 UNL     1      27.153   4.624  48.943  1.00  0.00     0.007 A 
ENDBRANCH  15  16
ENDBRANCH  11  13
ENDBRANCH   9  11
BRANCH   1  22
HETATM   22  O2  UNL     1      21.995   1.521  53.103  1.00  0.00    -0.307 OA
BRANCH  22  23
HETATM   23  C2  UNL     1      20.982   2.201  52.494  1.00  0.00     0.255 C 
HETATM   24  C1  UNL     1      19.657   1.600  52.188  1.00  0.00     0.126 C 
HETATM   25  O1  UNL     1      21.154   3.420  52.162  1.00  0.00    -0.266 OA
ENDBRANCH  22  23
ENDBRANCH   1  22
TORSDOF 5
ENDMDL
MODEL 5
REMARK VINA RESULT:      -7.7      3.204      6.377
REMARK  5 active torsions:
REMARK  status: ('A' for Active; 'I' for Inactive)
REMARK    1  A    between atoms: C2_2  and  O2_4 
REMARK    2  A    between atoms: O2_4  and  C3_5 
REMARK    3  A    between atoms: C9_13  and  N3_14 
REMARK    4  A    between atoms: N3_14  and  C10_15 
REMARK    5  A    between atoms: C12_17  and  C13_18 
ROOT
HETATM    1  C3  UNL     1      24.949   0.425  52.957  1.00  0.00     0.200 A 
HETATM    2  C4  UNL     1      24.827  -0.283  54.278  1.00  0.00    -0.048 A 
HETATM    3  C5  UNL     1      23.612  -1.068  54.651  1.00  0.00     0.046 C 
HETATM    4  C6  UNL     1      25.898  -0.128  55.042  1.00  0.00     0.037 A 
HETATM    5  C7  UNL     1      26.869   0.701  54.331  1.00  0.00     0.071 A 
HETATM    6  N1  UNL     1      28.086   1.160  54.623  1.00  0.00    -0.241 NA
HETATM    7  C8  UNL     1      28.791   1.928  53.766  1.00  0.00     0.235 A 
HETATM    8  N2  UNL     1      28.261   2.256  52.563  1.00  0.00    -0.224 NA
HETATM    9  C9  UNL     1      27.024   1.811  52.222  1.00  0.00     0.136 A 
HETATM   10  C19 UNL     1      26.309   1.024  53.106  1.00  0.00     0.050 A 
ENDROOT
BRANCH   9  11
HETATM   11  N3  UNL     1      26.467   2.158  50.953  1.00  0.00    -0.369 N 
HETATM   12  H10 UNL     1      26.153   1.412  50.317  1.00  0.00     0.161 HD
BRANCH  11  13
HETATM   13  C10 UNL     1      26.383   3.594  50.644  1.00  0.00     0.092 A 
HETATM   14  C11 UNL     1      26.795   4.071  49.279  1.00  0.00     0.037 A 
HETATM   15  C12 UNL     1      25.358   4.062  49.676  1.00  0.00     0.043 A 
BRANCH  15  16
HETATM   16  C13 UNL     1      24.676   5.344  49.989  1.00  0.00    -0.052 A 
HETATM   17  C14 UNL     1      23.284   5.331  50.077  1.00  0.00     0.007 A 
HETATM   18  C15 UNL     1      22.628   6.531  50.371  1.00  0.00     0.001 A 
HETATM   19  C16 UNL     1      23.311   7.730  50.576  1.00  0.00     0.000 A 
HETATM   20  C17 UNL     1      24.694   7.722  50.484  1.00  0.00     0.001 A 
HETATM   21  C18 UNL     1      25.338   6.536  50.194  1.00  0.00     0.007 A 
ENDBRANCH  15  16
ENDBRANCH  11  13
ENDBRANCH   9  11
BRANCH   1  22
HETATM   22  O2  UNL     1      23.944   1.436  53.015  1.00  0.00    -0.307 OA
BRANCH  22  23
HETATM   23  C2  UNL     1      23.042   1.706  52.028  1.00  0.00     0.255 C 
HETATM   24  C1  UNL     1      21.649   2.153  52.288  1.00  0.00     0.126 C 
HETATM   25  O1  UNL     1      23.388   1.577  50.807  1.00  0.00    -0.266 OA
ENDBRANCH  22  23
ENDBRANCH   1  22
TORSDOF 5
ENDMDL
MODEL 6
REMARK VINA RESULT:      -7.6      2.160      3.952
REMARK  5 active torsions:
REMARK  status: ('A' for Active; 'I' for Inactive)
REMARK    1  A    between atoms: C2_2  and  O2_4 
REMARK    2  A    between atoms: O2_4  and  C3_5 
REMARK    3  A    between atoms: C9_13  and  N3_14 
REMARK    4  A    between atoms: N3_14  and  C10_15 
REMARK    5  A    between atoms: C12_17  and  C13_18 
ROOT
HETATM    1  C3  UNL     1      22.248  -0.155  52.531  1.00  0.00     0.200 A 
HETATM    2  C4  UNL     1      20.958  -0.429  53.254  1.00  0.00    -0.048 A 
HETATM    3  C5  UNL     1      19.626  -0.213  52.614  1.00  0.00     0.046 C 
HETATM    4  C6  UNL     1      21.147  -0.872  54.488  1.00  0.00     0.037 A 
HETATM    5  C7  UNL     1      22.583  -0.950  54.746  1.00  0.00     0.071 A 
HETATM    6  N1  UNL     1      23.317  -1.322  55.796  1.00  0.00    -0.241 NA
HETATM    7  C8  UNL     1      24.667  -1.300  55.774  1.00  0.00     0.235 A 
HETATM    8  N2  UNL     1      25.316  -0.891  54.658  1.00  0.00    -0.224 NA
HETATM    9  C9  UNL     1      24.610  -0.504  53.564  1.00  0.00     0.136 A 
HETATM   10  C19 UNL     1      23.228  -0.529  53.596  1.00  0.00     0.050 A 
ENDROOT
BRANCH   9  11
HETATM   11  N3  UNL     1      25.297  -0.073  52.388  1.00  0.00    -0.369 N 
HETATM   12  H10 UNL     1      25.530  -0.760  51.658  1.00  0.00     0.161 HD
BRANCH  11  13
HETATM   13  C10 UNL     1      25.628   1.358  52.309  1.00  0.00     0.092 A 
HETATM   14  C11 UNL     1      27.047   1.793  52.552  1.00  0.00     0.037 A 
HETATM   15  C12 UNL     1      26.464   1.842  51.180  1.00  0.00     0.043 A 
BRANCH  15  16
HETATM   16  C13 UNL     1      26.096   3.153  50.586  1.00  0.00    -0.052 A 
HETATM   17  C14 UNL     1      24.972   3.801  51.099  1.00  0.00     0.007 A 
HETATM   18  C15 UNL     1      24.614   5.037  50.549  1.00  0.00     0.001 A 
HETATM   19  C16 UNL     1      25.333   5.637  49.516  1.00  0.00     0.000 A 
HETATM   20  C17 UNL     1      26.447   4.976  49.021  1.00  0.00     0.001 A 
HETATM   21  C18 UNL     1      26.798   3.758  49.565  1.00  0.00     0.007 A 
ENDBRANCH  15  16
ENDBRANCH  11  13
ENDBRANCH   9  11
BRANCH   1  22
HETATM   22  O2  UNL     1      22.236   1.257  52.331  1.00  0.00    -0.307 OA
BRANCH  22  23
HETATM   23  C2  UNL     1      22.033   1.880  51.134  1.00  0.00     0.255 C 
HETATM   24  C1  UNL     1      21.189   3.093  50.974  1.00  0.00     0.126 C 
HETATM   25  O1  UNL     1      22.586   1.418  50.083  1.00  0.00    -0.266 OA
ENDBRANCH  22  23
ENDBRANCH   1  22
TORSDOF 5
ENDMDL
MODEL 7
REMARK VINA RESULT:      -7.5      3.448      5.868
REMARK  5 active torsions:
REMARK  status: ('A' for Active; 'I' for Inactive)
REMARK    1  A    between atoms: C2_2  and  O2_4 
REMARK    2  A    between atoms: O2_4  and  C3_5 
REMARK    3  A    between atoms: C9_13  and  N3_14 
REMARK    4  A    between atoms: N3_14  and  C10_15 
REMARK    5  A    between atoms: C12_17  and  C13_18 
ROOT
HETATM    1  C3  UNL     1      24.034   5.406  50.591  1.00  0.00     0.200 A 
HETATM    2  C4  UNL     1      23.859   6.832  50.148  1.00  0.00    -0.048 A 
HETATM    3  C5  UNL     1      22.674   7.649  50.547  1.00  0.00     0.046 C 
HETATM    4  C6  UNL     1      24.856   7.257  49.387  1.00  0.00     0.037 A 
HETATM    5  C7  UNL     1      25.821   6.172  49.224  1.00  0.00     0.071 A 
HETATM    6  N1  UNL     1      26.980   6.052  48.576  1.00  0.00    -0.241 NA
HETATM    7  C8  UNL     1      27.696   4.908  48.586  1.00  0.00     0.235 A 
HETATM    8  N2  UNL     1      27.238   3.834  49.273  1.00  0.00    -0.224 NA
HETATM    9  C9  UNL     1      26.063   3.909  49.949  1.00  0.00     0.136 A 
HETATM   10  C19 UNL     1      25.337   5.086  49.933  1.00  0.00     0.050 A 
ENDROOT
BRANCH   9  11
HETATM   11  N3  UNL     1      25.582   2.775  50.673  1.00  0.00    -0.369 N 
HETATM   12  H10 UNL     1      24.721   2.305  50.364  1.00  0.00     0.161 HD
BRANCH  11  13
HETATM   13  C10 UNL     1      26.378   2.355  51.837  1.00  0.00     0.092 A 
HETATM   14  C11 UNL     1      25.684   2.124  53.150  1.00  0.00     0.037 A 
HETATM   15  C12 UNL     1      26.212   0.975  52.361  1.00  0.00     0.043 A 
BRANCH  15  16
HETATM   16  C13 UNL     1      27.442   0.277  52.816  1.00  0.00    -0.052 A 
HETATM   17  C14 UNL     1      27.451  -1.117  52.762  1.00  0.00     0.007 A 
HETATM   18  C15 UNL     1      28.603  -1.787  53.187  1.00  0.00     0.001 A 
HETATM   19  C16 UNL     1      29.731  -1.117  53.659  1.00  0.00     0.000 A 
HETATM   20  C17 UNL     1      29.702   0.267  53.705  1.00  0.00     0.001 A 
HETATM   21  C18 UNL     1      28.564   0.926  53.285  1.00  0.00     0.007 A 
ENDBRANCH  15  16
ENDBRANCH  11  13
ENDBRANCH   9  11
BRANCH   1  22
HETATM   22  O2  UNL     1      22.963   4.714  49.952  1.00  0.00    -0.307 OA
BRANCH  22  23
HETATM   23  C2  UNL     1      22.199   3.741  50.529  1.00  0.00     0.255 C 
HETATM   24  C1  UNL     1      21.009   4.025  51.372  1.00  0.00     0.126 C 
HETATM   25  O1  UNL     1      22.500   2.516  50.348  1.00  0.00    -0.266 OA
ENDBRANCH  22  23
ENDBRANCH   1  22
TORSDOF 5
ENDMDL
MODEL 8
REMARK VINA RESULT:      -7.5      1.831      6.702
REMARK  5 active torsions:
REMARK  status: ('A' for Active; 'I' for Inactive)
REMARK    1  A    between atoms: C2_2  and  O2_4 
REMARK    2  A    between atoms: O2_4  and  C3_5 
REMARK    3  A    between atoms: C9_13  and  N3_14 
REMARK    4  A    between atoms: N3_14  and  C10_15 
REMARK    5  A    between atoms: C12_17  and  C13_18 
ROOT
HETATM    1  C3  UNL     1      24.341   2.621  51.805  1.00  0.00     0.200 A 
HETATM    2  C4  UNL     1      25.477   3.098  50.943  1.00  0.00    -0.048 A 
HETATM    3  C5  UNL     1      25.432   4.402  50.217  1.00  0.00     0.046 C 
HETATM    4  C6  UNL     1      26.488   2.243  50.911  1.00  0.00     0.037 A 
HETATM    5  C7  UNL     1      26.158   1.090  51.745  1.00  0.00     0.071 A 
HETATM    6  N1  UNL     1      26.795  -0.037  52.063  1.00  0.00    -0.241 NA
HETATM    7  C8  UNL     1      26.253  -0.967  52.878  1.00  0.00     0.235 A 
HETATM    8  N2  UNL     1      25.019  -0.765  53.401  1.00  0.00    -0.224 NA
HETATM    9  C9  UNL     1      24.332   0.368  53.105  1.00  0.00     0.136 A 
HETATM   10  C19 UNL     1      24.896   1.314  52.269  1.00  0.00     0.050 A 
ENDROOT
BRANCH   9  11
HETATM   11  N3  UNL     1      23.031   0.578  53.658  1.00  0.00    -0.369 N 
HETATM   12  H10 UNL     1      22.892   1.322  54.355  1.00  0.00     0.161 HD
BRANCH  11  13
HETATM   13  C10 UNL     1      21.963  -0.310  53.175  1.00  0.00     0.092 A 
HETATM   14  C11 UNL     1      21.520  -1.456  54.041  1.00  0.00     0.037 A 
HETATM   15  C12 UNL     1      20.637  -0.271  53.846  1.00  0.00     0.043 A 
BRANCH  15  16
HETATM   16  C13 UNL     1      19.440  -0.384  52.974  1.00  0.00    -0.052 A 
HETATM   17  C14 UNL     1      19.473   0.273  51.743  1.00  0.00     0.007 A 
HETATM   18  C15 UNL     1      18.353   0.175  50.911  1.00  0.00     0.001 A 
HETATM   19  C16 UNL     1      17.215  -0.549  51.266  1.00  0.00     0.000 A 
HETATM   20  C17 UNL     1      17.202  -1.194  52.492  1.00  0.00     0.001 A 
HETATM   21  C18 UNL     1      18.308  -1.096  53.310  1.00  0.00     0.007 A 
ENDBRANCH  15  16
ENDBRANCH  11  13
ENDBRANCH   9  11
BRANCH   1  22
HETATM   22  O2  UNL     1      23.273   2.415  50.882  1.00  0.00    -0.307 OA
BRANCH  22  23
HETATM   23  C2  UNL     1      22.004   2.897  51.028  1.00  0.00     0.255 C 
HETATM   24  C1  UNL     1      21.131   3.267  49.884  1.00  0.00     0.126 C 
HETATM   25  O1  UNL     1      21.518   3.044  52.197  1.00  0.00    -0.266 OA
ENDBRANCH  22  23
ENDBRANCH   1  22
TORSDOF 5
ENDMDL
MODEL 9
REMARK VINA RESULT:      -7.5      2.263      3.917
REMARK  5 active torsions:
REMARK  status: ('A' for Active; 'I' for Inactive)
REMARK    1  A    between atoms: C2_2  and  O2_4 
REMARK    2  A    between atoms: O2_4  and  C3_5 
REMARK    3  A    between atoms: C9_13  and  N3_14 
REMARK    4  A    between atoms: N3_14  and  C10_15 
REMARK    5  A    between atoms: C12_17  and  C13_18 
ROOT
HETATM    1  C3  UNL     1      20.073   0.259  52.944  1.00  0.00     0.200 A 
HETATM    2  C4  UNL     1      18.840  -0.502  52.543  1.00  0.00    -0.048 A 
HETATM    3  C5  UNL     1      18.248  -1.568  53.405  1.00  0.00     0.046 C 
HETATM    4  C6  UNL     1      18.362  -0.119  51.369  1.00  0.00     0.037 A 
HETATM    5  C7  UNL     1      19.213   0.943  50.837  1.00  0.00     0.071 A 
HETATM    6  N1  UNL     1      19.197   1.672  49.721  1.00  0.00    -0.241 NA
HETATM    7  C8  UNL     1      20.126   2.617  49.464  1.00  0.00     0.235 A 
HETATM    8  N2  UNL     1      21.117   2.847  50.359  1.00  0.00    -0.224 NA
HETATM    9  C9  UNL     1      21.174   2.129  51.510  1.00  0.00     0.136 A 
HETATM   10  C19 UNL     1      20.217   1.163  51.764  1.00  0.00     0.050 A 
ENDROOT
BRANCH   9  11
HETATM   11  N3  UNL     1      22.220   2.374  52.452  1.00  0.00    -0.369 N 
HETATM   12  H10 UNL     1      22.004   2.860  53.333  1.00  0.00     0.161 HD
BRANCH  11  13
HETATM   13  C10 UNL     1      23.562   1.901  52.079  1.00  0.00     0.092 A 
HETATM   14  C11 UNL     1      24.556   2.885  51.530  1.00  0.00     0.037 A 
HETATM   15  C12 UNL     1      24.726   2.323  52.900  1.00  0.00     0.043 A 
BRANCH  15  16
HETATM   16  C13 UNL     1      25.777   1.302  53.148  1.00  0.00    -0.052 A 
HETATM   17  C14 UNL     1      26.071   0.414  52.113  1.00  0.00     0.007 A 
HETATM   18  C15 UNL     1      27.059  -0.553  52.332  1.00  0.00     0.001 A 
HETATM   19  C16 UNL     1      27.752  -0.658  53.537  1.00  0.00     0.000 A 
HETATM   20  C17 UNL     1      27.446   0.234  54.552  1.00  0.00     0.001 A 
HETATM   21  C18 UNL     1      26.471   1.186  54.333  1.00  0.00     0.007 A 
ENDBRANCH  15  16
ENDBRANCH  11  13
ENDBRANCH   9  11
BRANCH   1  22
HETATM   22  O2  UNL     1      21.101  -0.731  52.949  1.00  0.00    -0.307 OA
BRANCH  22  23
HETATM   23  C2  UNL     1      21.782  -1.153  54.053  1.00  0.00     0.255 C 
HETATM   24  C1  UNL     1      23.228  -0.892  54.276  1.00  0.00     0.126 C 
HETATM   25  O1  UNL     1      21.167  -1.808  54.958  1.00  0.00    -0.266 OA
ENDBRANCH  22  23
ENDBRANCH   1  22
TORSDOF 5
ENDMDL
