MODEL 1
REMARK VINA RESULT:      -8.1      0.000      0.000
REMARK  6 active torsions:
REMARK  status: ('A' for Active; 'I' for Inactive)
REMARK       I    between atoms: C2_2  and  N1_4 
REMARK    1  A    between atoms: N1_4  and  C3_5 
REMARK    2  A    between atoms: C8_12  and  N4_13 
REMARK    3  A    between atoms: N4_13  and  C9_14 
REMARK    4  A    between atoms: C12_17  and  O2_18 
REMARK    5  A    between atoms: O2_18  and  C13_19 
REMARK    6  A    between atoms: C13_19  and  C14_20 
ROOT
HETATM    1  C3  UNL     1      26.342   0.185  52.550  1.00  0.00     0.035 A 
HETATM    2  C4  UNL     1      25.261  -0.166  53.363  1.00  0.00     0.032 A 
HETATM    3  C5  UNL     1      24.057   0.495  53.265  1.00  0.00     0.035 A 
HETATM    4  C6  UNL     1      23.866   1.534  52.359  1.00  0.00     0.072 A 
HETATM    5  N2  UNL     1      22.695   2.190  52.251  1.00  0.00    -0.241 NA
HETATM    6  C7  UNL     1      22.527   3.195  51.366  1.00  0.00     0.236 A 
HETATM    7  N3  UNL     1      23.582   3.524  50.586  1.00  0.00    -0.223 NA
HETATM    8  C8  UNL     1      24.761   2.884  50.675  1.00  0.00     0.143 A 
HETATM    9  C16 UNL     1      24.956   1.859  51.566  1.00  0.00     0.041 A 
HETATM   10  C17 UNL     1      26.170   1.213  51.645  1.00  0.00     0.047 A 
ENDROOT
BRANCH   8  11
HETATM   11  N4  UNL     1      25.780   3.335  49.794  1.00  0.00    -0.327 N 
HETATM   12  H8  UNL     1      26.421   2.814  49.173  1.00  0.00     0.169 HD
BRANCH  11  13
HETATM   13  C9  UNL     1      26.049   4.727  49.670  1.00  0.00     0.104 A 
HETATM   14  C10 UNL     1      26.918   5.151  48.764  1.00  0.00     0.051 A 
HETATM   15  C11 UNL     1      27.268   6.566  48.553  1.00  0.00     0.039 A 
HETATM   16  C12 UNL     1      26.652   7.444  49.340  1.00  0.00     0.084 A 
HETATM   17  C15 UNL     1      25.656   7.135  50.398  1.00  0.00     0.237 A 
HETATM   18 CL2  UNL     1      24.070   7.896  50.029  1.00  0.00    -0.095 Cl
HETATM   19  N5  UNL     1      25.420   5.710  50.483  1.00  0.00    -0.353 N 
HETATM   20  H16 UNL     1      24.732   5.401  51.202  1.00  0.00     0.163 HD
BRANCH  16  21
HETATM   21  O2  UNL     1      26.996   8.771  49.123  1.00  0.00    -0.351 OA
BRANCH  21  22
HETATM   22  C13 UNL     1      28.059   9.446  49.727  1.00  0.00     0.190 C 
BRANCH  22  23
HETATM   23  C14 UNL     1      29.101   9.902  48.727  1.00  0.00     0.141 C 
HETATM   24 CL1  UNL     1      30.672  10.213  49.505  1.00  0.00    -0.128 Cl
ENDBRANCH  22  23
ENDBRANCH  21  22
ENDBRANCH  16  21
ENDBRANCH  11  13
ENDBRANCH   8  11
BRANCH   1  25
HETATM   25  N1  UNL     1      27.563  -0.529  52.691  1.00  0.00    -0.327 N 
HETATM   26  C2  UNL     1      28.598  -0.180  53.595  1.00  0.00     0.218 C 
HETATM   27  C1  UNL     1      29.865  -0.944  53.722  1.00  0.00     0.117 C 
HETATM   28  O1  UNL     1      28.461   0.827  54.338  1.00  0.00    -0.274 OA
HETATM   29  H4  UNL     1      27.790  -1.393  52.117  1.00  0.00     0.169 HD
ENDBRANCH   1  25
TORSDOF 6
ENDMDL
MODEL 2
REMARK VINA RESULT:      -8.0      2.485      3.550
REMARK  6 active torsions:
REMARK  status: ('A' for Active; 'I' for Inactive)
REMARK       I    between atoms: C2_2  and  N1_4 
REMARK    1  A    between atoms: N1_4  and  C3_5 
REMARK    2  A    between atoms: C8_12  and  N4_13 
REMARK    3  A    between atoms: N4_13  and  C9_14 
REMARK    4  A    between atoms: C12_17  and  O2_18 
REMARK    5  A    between atoms: O2_18  and  C13_19 
REMARK    6  A    between atoms: C13_19  and  C14_20 
ROOT
HETATM    1  C3  UNL     1      24.990  -0.758  54.222  1.00  0.00     0.035 A 
HETATM    2  C4  UNL     1      24.275  -1.294  55.295  1.00  0.00     0.032 A 
HETATM    3  C5  UNL     1      22.900  -1.213  55.342  1.00  0.00     0.035 A 
HETATM    4  C6  UNL     1      22.171  -0.597  54.330  1.00  0.00     0.072 A 
HETATM    5  N2  UNL     1      20.828  -0.510  54.361  1.00  0.00    -0.241 NA
HETATM    6  C7  UNL     1      20.135   0.091  53.370  1.00  0.00     0.236 A 
HETATM    7  N3  UNL     1      20.841   0.606  52.338  1.00  0.00    -0.223 NA
HETATM    8  C8  UNL     1      22.183   0.531  52.284  1.00  0.00     0.143 A 
HETATM    9  C16 UNL     1      22.908  -0.075  53.278  1.00  0.00     0.041 A 
HETATM   10  C17 UNL     1      24.282  -0.144  53.208  1.00  0.00     0.047 A 
ENDROOT
BRANCH   8  11
HETATM   11  N4  UNL     1      22.792   1.115  51.141  1.00  0.00    -0.327 N 
HETATM   12  H8  UNL     1      23.026   0.715  50.218  1.00  0.00     0.169 HD
BRANCH  11  13
HETATM   13  C9  UNL     1      23.188   2.481  51.165  1.00  0.00     0.104 A 
HETATM   14  C10 UNL     1      24.287   2.859  50.530  1.00  0.00     0.051 A 
HETATM   15  C11 UNL     1      24.786   4.245  50.491  1.00  0.00     0.039 A 
HETATM   16  C12 UNL     1      24.059   5.145  51.147  1.00  0.00     0.084 A 
HETATM   17  C15 UNL     1      22.807   4.888  51.906  1.00  0.00     0.237 A 
HETATM   18 CL2  UNL     1      21.429   5.798  51.196  1.00  0.00    -0.095 Cl
HETATM   19  N5  UNL     1      22.451   3.487  51.849  1.00  0.00    -0.353 N 
HETATM   20  H16 UNL     1      21.581   3.215  52.357  1.00  0.00     0.163 HD
BRANCH  16  21
HETATM   21  O2  UNL     1      24.546   6.444  51.098  1.00  0.00    -0.351 OA
BRANCH  21  22
HETATM   22  C13 UNL     1      24.749   7.195  49.938  1.00  0.00     0.190 C 
BRANCH  22  23
HETATM   23  C14 UNL     1      26.208   7.537  49.715  1.00  0.00     0.141 C 
HETATM   24 CL1  UNL     1      26.991   6.395  48.595  1.00  0.00    -0.128 Cl
ENDBRANCH  22  23
ENDBRANCH  21  22
ENDBRANCH  16  21
ENDBRANCH  11  13
ENDBRANCH   8  11
BRANCH   1  25
HETATM   25  N1  UNL     1      26.407  -0.869  54.222  1.00  0.00    -0.327 N 
HETATM   26  C2  UNL     1      27.294   0.160  54.630  1.00  0.00     0.218 C 
HETATM   27  C1  UNL     1      28.772   0.017  54.621  1.00  0.00     0.117 C 
HETATM   28  O1  UNL     1      26.829   1.261  55.025  1.00  0.00    -0.274 OA
HETATM   29  H4  UNL     1      26.912  -1.750  53.910  1.00  0.00     0.169 HD
ENDBRANCH   1  25
TORSDOF 6
ENDMDL
MODEL 3
REMARK VINA RESULT:      -7.7      2.329      3.791
REMARK  6 active torsions:
REMARK  status: ('A' for Active; 'I' for Inactive)
REMARK       I    between atoms: C2_2  and  N1_4 
REMARK    1  A    between atoms: N1_4  and  C3_5 
REMARK    2  A    between atoms: C8_12  and  N4_13 
REMARK    3  A    between atoms: N4_13  and  C9_14 
REMARK    4  A    between atoms: C12_17  and  O2_18 
REMARK    5  A    between atoms: O2_18  and  C13_19 
REMARK    6  A    between atoms: C13_19  and  C14_20 
ROOT
HETATM    1  C3  UNL     1      24.193  -0.454  53.628  1.00  0.00     0.035 A 
HETATM    2  C4  UNL     1      24.920  -0.719  54.791  1.00  0.00     0.032 A 
HETATM    3  C5  UNL     1      26.140  -0.120  55.017  1.00  0.00     0.035 A 
HETATM    4  C6  UNL     1      26.697   0.769  54.102  1.00  0.00     0.072 A 
HETATM    5  N2  UNL     1      27.888   1.362  54.307  1.00  0.00    -0.241 NA
HETATM    6  C7  UNL     1      28.413   2.222  53.409  1.00  0.00     0.236 A 
HETATM    7  N3  UNL     1      27.699   2.468  52.288  1.00  0.00    -0.223 NA
HETATM    8  C8  UNL     1      26.507   1.889  52.060  1.00  0.00     0.143 A 
HETATM    9  C16 UNL     1      25.951   1.012  52.958  1.00  0.00     0.041 A 
HETATM   10  C17 UNL     1      24.730   0.426  52.710  1.00  0.00     0.047 A 
ENDROOT
BRANCH   8  11
HETATM   11  N4  UNL     1      25.868   2.241  50.841  1.00  0.00    -0.327 N 
HETATM   12  H8  UNL     1      25.325   1.674  50.170  1.00  0.00     0.169 HD
BRANCH  11  13
HETATM   13  C9  UNL     1      25.925   3.582  50.370  1.00  0.00     0.104 A 
HETATM   14  C10 UNL     1      26.761   3.902  49.394  1.00  0.00     0.051 A 
HETATM   15  C11 UNL     1      26.899   5.257  48.833  1.00  0.00     0.039 A 
HETATM   16  C12 UNL     1      26.117   6.192  49.365  1.00  0.00     0.084 A 
HETATM   17  C15 UNL     1      25.130   6.000  50.459  1.00  0.00     0.237 A 
HETATM   18 CL2  UNL     1      23.466   6.379  49.895  1.00  0.00    -0.095 Cl
HETATM   19  N5  UNL     1      25.113   4.623  50.901  1.00  0.00    -0.353 N 
HETATM   20  H16 UNL     1      24.446   4.396  51.670  1.00  0.00     0.163 HD
BRANCH  16  21
HETATM   21  O2  UNL     1      26.263   7.461  48.822  1.00  0.00    -0.351 OA
BRANCH  21  22
HETATM   22  C13 UNL     1      26.323   8.655  49.545  1.00  0.00     0.190 C 
BRANCH  22  23
HETATM   23  C14 UNL     1      27.740   9.161  49.714  1.00  0.00     0.141 C 
HETATM   24 CL1  UNL     1      27.957  10.773  48.989  1.00  0.00    -0.128 Cl
ENDBRANCH  22  23
ENDBRANCH  21  22
ENDBRANCH  16  21
ENDBRANCH  11  13
ENDBRANCH   8  11
BRANCH   1  25
HETATM   25  N1  UNL     1      22.939  -1.097  53.444  1.00  0.00    -0.327 N 
HETATM   26  C2  UNL     1      21.686  -0.528  53.787  1.00  0.00     0.218 C 
HETATM   27  C1  UNL     1      20.390  -1.223  53.584  1.00  0.00     0.117 C 
HETATM   28  O1  UNL     1      21.644   0.624  54.292  1.00  0.00    -0.274 OA
HETATM   29  H4  UNL     1      22.851  -2.070  53.028  1.00  0.00     0.169 HD
ENDBRANCH   1  25
TORSDOF 6
ENDMDL
MODEL 4
REMARK VINA RESULT:      -7.7      2.971      4.253
REMARK  6 active torsions:
REMARK  status: ('A' for Active; 'I' for Inactive)
REMARK       I    between atoms: C2_2  and  N1_4 
REMARK    1  A    between atoms: N1_4  and  C3_5 
REMARK    2  A    between atoms: C8_12  and  N4_13 
REMARK    3  A    between atoms: N4_13  and  C9_14 
REMARK    4  A    between atoms: C12_17  and  O2_18 
REMARK    5  A    between atoms: O2_18  and  C13_19 
REMARK    6  A    between atoms: C13_19  and  C14_20 
ROOT
HETATM    1  C3  UNL     1      24.354  -0.421  53.600  1.00  0.00     0.035 A 
HETATM    2  C4  UNL     1      25.016  -0.627  54.813  1.00  0.00     0.032 A 
HETATM    3  C5  UNL     1      26.214  -0.003  55.082  1.00  0.00     0.035 A 
HETATM    4  C6  UNL     1      26.813   0.853  54.163  1.00  0.00     0.072 A 
HETATM    5  N2  UNL     1      27.984   1.470  54.410  1.00  0.00    -0.241 NA
HETATM    6  C7  UNL     1      28.550   2.298  53.507  1.00  0.00     0.236 A 
HETATM    7  N3  UNL     1      27.899   2.488  52.338  1.00  0.00    -0.223 NA
HETATM    8  C8  UNL     1      26.728   1.884  52.067  1.00  0.00     0.143 A 
HETATM    9  C16 UNL     1      26.132   1.039  52.969  1.00  0.00     0.041 A 
HETATM   10  C17 UNL     1      24.933   0.427  52.678  1.00  0.00     0.047 A 
ENDROOT
BRANCH   8  11
HETATM   11  N4  UNL     1      26.156   2.176  50.800  1.00  0.00    -0.327 N 
HETATM   12  H8  UNL     1      25.762   1.557  50.074  1.00  0.00     0.169 HD
BRANCH  11  13
HETATM   13  C9  UNL     1      26.061   3.525  50.357  1.00  0.00     0.104 A 
HETATM   14  C10 UNL     1      26.812   3.941  49.348  1.00  0.00     0.051 A 
HETATM   15  C11 UNL     1      26.792   5.312  48.811  1.00  0.00     0.039 A 
HETATM   16  C12 UNL     1      25.953   6.158  49.403  1.00  0.00     0.084 A 
HETATM   17  C15 UNL     1      25.046   5.853  50.539  1.00  0.00     0.237 A 
HETATM   18 CL2  UNL     1      23.326   6.081  50.068  1.00  0.00    -0.095 Cl
HETATM   19  N5  UNL     1      25.182   4.473  50.951  1.00  0.00    -0.353 N 
HETATM   20  H16 UNL     1      24.580   4.171  51.746  1.00  0.00     0.163 HD
BRANCH  16  21
HETATM   21  O2  UNL     1      25.949   7.445  48.881  1.00  0.00    -0.351 OA
BRANCH  21  22
HETATM   22  C13 UNL     1      25.710   7.783  47.547  1.00  0.00     0.190 C 
BRANCH  22  23
HETATM   23  C14 UNL     1      24.304   8.297  47.320  1.00  0.00     0.141 C 
HETATM   24 CL1  UNL     1      23.323   7.146  46.380  1.00  0.00    -0.128 Cl
ENDBRANCH  22  23
ENDBRANCH  21  22
ENDBRANCH  16  21
ENDBRANCH  11  13
ENDBRANCH   8  11
BRANCH   1  25
HETATM   25  N1  UNL     1      23.119  -1.088  53.374  1.00  0.00    -0.327 N 
HETATM   26  C2  UNL     1      21.904  -0.774  54.033  1.00  0.00     0.218 C 
HETATM   27  C1  UNL     1      20.627  -1.487  53.777  1.00  0.00     0.117 C 
HETATM   28  O1  UNL     1      21.879   0.153  54.884  1.00  0.00    -0.274 OA
HETATM   29  H4  UNL     1      23.019  -1.885  52.679  1.00  0.00     0.169 HD
ENDBRANCH   1  25
TORSDOF 6
ENDMDL
MODEL 5
REMARK VINA RESULT:      -7.6      1.641      2.126
REMARK  6 active torsions:
REMARK  status: ('A' for Active; 'I' for Inactive)
REMARK       I    between atoms: C2_2  and  N1_4 
REMARK    1  A    between atoms: N1_4  and  C3_5 
REMARK    2  A    between atoms: C8_12  and  N4_13 
REMARK    3  A    between atoms: N4_13  and  C9_14 
REMARK    4  A    between atoms: C12_17  and  O2_18 
REMARK    5  A    between atoms: O2_18  and  C13_19 
REMARK    6  A    between atoms: C13_19  and  C14_20 
ROOT
HETATM    1  C3  UNL     1      26.274   1.701  51.855  1.00  0.00     0.035 A 
HETATM    2  C4  UNL     1      24.970   1.484  52.308  1.00  0.00     0.032 A 
HETATM    3  C5  UNL     1      23.915   2.214  51.806  1.00  0.00     0.035 A 
HETATM    4  C6  UNL     1      24.101   3.191  50.833  1.00  0.00     0.072 A 
HETATM    5  N2  UNL     1      23.080   3.912  50.332  1.00  0.00    -0.241 NA
HETATM    6  C7  UNL     1      23.279   4.856  49.388  1.00  0.00     0.236 A 
HETATM    7  N3  UNL     1      24.545   5.055  48.960  1.00  0.00    -0.223 NA
HETATM    8  C8  UNL     1      25.582   4.348  49.444  1.00  0.00     0.143 A 
HETATM    9  C16 UNL     1      25.406   3.383  50.403  1.00  0.00     0.041 A 
HETATM   10  C17 UNL     1      26.476   2.666  50.889  1.00  0.00     0.047 A 
ENDROOT
BRANCH   8  11
HETATM   11  N4  UNL     1      26.856   4.662  48.902  1.00  0.00    -0.327 N 
HETATM   12  H8  UNL     1      27.591   4.059  48.500  1.00  0.00     0.169 HD
BRANCH  11  13
HETATM   13  C9  UNL     1      27.296   6.015  48.856  1.00  0.00     0.104 A 
HETATM   14  C10 UNL     1      28.262   6.366  48.021  1.00  0.00     0.051 A 
HETATM   15  C11 UNL     1      28.790   7.734  47.894  1.00  0.00     0.039 A 
HETATM   16  C12 UNL     1      28.236   8.650  48.684  1.00  0.00     0.084 A 
HETATM   17  C15 UNL     1      27.148   8.423  49.671  1.00  0.00     0.237 A 
HETATM   18 CL2  UNL     1      25.689   9.386  49.249  1.00  0.00    -0.095 Cl
HETATM   19  N5  UNL     1      26.740   7.036  49.677  1.00  0.00    -0.353 N 
HETATM   20  H16 UNL     1      25.978   6.785  50.343  1.00  0.00     0.163 HD
BRANCH  16  21
HETATM   21  O2  UNL     1      28.748   9.933  48.548  1.00  0.00    -0.351 OA
BRANCH  21  22
HETATM   22  C13 UNL     1      29.965  10.384  49.065  1.00  0.00     0.190 C 
BRANCH  22  23
HETATM   23  C14 UNL     1      30.194  11.859  48.810  1.00  0.00     0.141 C 
HETATM   24 CL1  UNL     1      28.747  12.827  49.189  1.00  0.00    -0.128 Cl
ENDBRANCH  22  23
ENDBRANCH  21  22
ENDBRANCH  16  21
ENDBRANCH  11  13
ENDBRANCH   8  11
BRANCH   1  25
HETATM   25  N1  UNL     1      27.327   0.921  52.405  1.00  0.00    -0.327 N 
HETATM   26  C2  UNL     1      28.158   1.335  53.477  1.00  0.00     0.218 C 
HETATM   27  C1  UNL     1      29.252   0.500  54.034  1.00  0.00     0.117 C 
HETATM   28  O1  UNL     1      27.981   2.466  54.000  1.00  0.00    -0.274 OA
HETATM   29  H4  UNL     1      27.569  -0.049  52.046  1.00  0.00     0.169 HD
ENDBRANCH   1  25
TORSDOF 6
ENDMDL
MODEL 6
REMARK VINA RESULT:      -7.5      2.239      2.418
REMARK  6 active torsions:
REMARK  status: ('A' for Active; 'I' for Inactive)
REMARK       I    between atoms: C2_2  and  N1_4 
REMARK    1  A    between atoms: N1_4  and  C3_5 
REMARK    2  A    between atoms: C8_12  and  N4_13 
REMARK    3  A    between atoms: N4_13  and  C9_14 
REMARK    4  A    between atoms: C12_17  and  O2_18 
REMARK    5  A    between atoms: O2_18  and  C13_19 
REMARK    6  A    between atoms: C13_19  and  C14_20 
ROOT
HETATM    1  C3  UNL     1      26.397  -0.042  52.691  1.00  0.00     0.035 A 
HETATM    2  C4  UNL     1      25.298  -0.692  53.257  1.00  0.00     0.032 A 
HETATM    3  C5  UNL     1      24.046  -0.117  53.236  1.00  0.00     0.035 A 
HETATM    4  C6  UNL     1      23.825   1.128  52.655  1.00  0.00     0.072 A 
HETATM    5  N2  UNL     1      22.608   1.703  52.627  1.00  0.00    -0.241 NA
HETATM    6  C7  UNL     1      22.411   2.911  52.058  1.00  0.00     0.236 A 
HETATM    7  N3  UNL     1      23.484   3.529  51.514  1.00  0.00    -0.223 NA
HETATM    8  C8  UNL     1      24.709   2.975  51.530  1.00  0.00     0.143 A 
HETATM    9  C16 UNL     1      24.935   1.748  52.101  1.00  0.00     0.041 A 
HETATM   10  C17 UNL     1      26.196   1.193  52.109  1.00  0.00     0.047 A 
ENDROOT
BRANCH   8  11
HETATM   11  N4  UNL     1      25.743   3.736  50.921  1.00  0.00    -0.327 N 
HETATM   12  H8  UNL     1      26.751   3.542  50.805  1.00  0.00     0.169 HD
BRANCH  11  13
HETATM   13  C9  UNL     1      25.447   5.001  50.340  1.00  0.00     0.104 A 
HETATM   14  C10 UNL     1      25.756   5.231  49.072  1.00  0.00     0.051 A 
HETATM   15  C11 UNL     1      25.494   6.501  48.374  1.00  0.00     0.039 A 
HETATM   16  C12 UNL     1      24.909   7.453  49.095  1.00  0.00     0.084 A 
HETATM   17  C15 UNL     1      24.500   7.357  50.520  1.00  0.00     0.237 A 
HETATM   18 CL2  UNL     1      22.722   7.558  50.692  1.00  0.00    -0.095 Cl
HETATM   19  N5  UNL     1      24.823   6.056  51.061  1.00  0.00    -0.353 N 
HETATM   20  H16 UNL     1      24.569   5.899  52.061  1.00  0.00     0.163 HD
BRANCH  16  21
HETATM   21  O2  UNL     1      24.671   8.642  48.418  1.00  0.00    -0.351 OA
BRANCH  21  22
HETATM   22  C13 UNL     1      25.109   8.947  47.127  1.00  0.00     0.190 C 
BRANCH  22  23
HETATM   23  C14 UNL     1      23.966   9.105  46.147  1.00  0.00     0.141 C 
HETATM   24 CL1  UNL     1      23.091   7.573  45.900  1.00  0.00    -0.128 Cl
ENDBRANCH  22  23
ENDBRANCH  21  22
ENDBRANCH  16  21
ENDBRANCH  11  13
ENDBRANCH   8  11
BRANCH   1  25
HETATM   25  N1  UNL     1      27.667  -0.679  52.738  1.00  0.00    -0.327 N 
HETATM   26  C2  UNL     1      28.641  -0.457  53.745  1.00  0.00     0.218 C 
HETATM   27  C1  UNL     1      29.960  -1.137  53.771  1.00  0.00     0.117 C 
HETATM   28  O1  UNL     1      28.398   0.356  54.675  1.00  0.00    -0.274 OA
HETATM   29  H4  UNL     1      27.981  -1.383  52.008  1.00  0.00     0.169 HD
ENDBRANCH   1  25
TORSDOF 6
ENDMDL
MODEL 7
REMARK VINA RESULT:      -7.4      3.745      7.636
REMARK  6 active torsions:
REMARK  status: ('A' for Active; 'I' for Inactive)
REMARK       I    between atoms: C2_2  and  N1_4 
REMARK    1  A    between atoms: N1_4  and  C3_5 
REMARK    2  A    between atoms: C8_12  and  N4_13 
REMARK    3  A    between atoms: N4_13  and  C9_14 
REMARK    4  A    between atoms: C12_17  and  O2_18 
REMARK    5  A    between atoms: O2_18  and  C13_19 
REMARK    6  A    between atoms: C13_19  and  C14_20 
ROOT
HETATM    1  C3  UNL     1      25.208   6.020  49.754  1.00  0.00     0.035 A 
HETATM    2  C4  UNL     1      24.564   5.989  48.515  1.00  0.00     0.032 A 
HETATM    3  C5  UNL     1      23.483   5.163  48.298  1.00  0.00     0.035 A 
HETATM    4  C6  UNL     1      22.990   4.329  49.298  1.00  0.00     0.072 A 
HETATM    5  N2  UNL     1      21.935   3.516  49.102  1.00  0.00    -0.241 NA
HETATM    6  C7  UNL     1      21.470   2.714  50.083  1.00  0.00     0.236 A 
HETATM    7  N3  UNL     1      22.103   2.754  51.276  1.00  0.00    -0.223 NA
HETATM    8  C8  UNL     1      23.159   3.558  51.497  1.00  0.00     0.143 A 
HETATM    9  C16 UNL     1      23.650   4.383  50.516  1.00  0.00     0.041 A 
HETATM   10  C17 UNL     1      24.732   5.200  50.757  1.00  0.00     0.047 A 
ENDROOT
BRANCH   8  11
HETATM   11  N4  UNL     1      23.725   3.497  52.798  1.00  0.00    -0.327 N 
HETATM   12  H8  UNL     1      23.618   4.119  53.615  1.00  0.00     0.169 HD
BRANCH  11  13
HETATM   13  C9  UNL     1      24.608   2.435  53.141  1.00  0.00     0.104 A 
HETATM   14  C10 UNL     1      25.847   2.706  53.523  1.00  0.00     0.051 A 
HETATM   15  C11 UNL     1      26.839   1.685  53.899  1.00  0.00     0.039 A 
HETATM   16  C12 UNL     1      26.428   0.422  53.839  1.00  0.00     0.084 A 
HETATM   17  C15 UNL     1      25.079  -0.050  53.433  1.00  0.00     0.237 A 
HETATM   18 CL2  UNL     1      24.273  -0.925  54.781  1.00  0.00    -0.095 Cl
HETATM   19  N5  UNL     1      24.224   1.066  53.095  1.00  0.00    -0.353 N 
HETATM   20  H16 UNL     1      23.254   0.826  52.798  1.00  0.00     0.163 HD
BRANCH  16  21
HETATM   21  O2  UNL     1      27.379  -0.525  54.197  1.00  0.00    -0.351 OA
BRANCH  21  22
HETATM   22  C13 UNL     1      28.711  -0.259  54.523  1.00  0.00     0.190 C 
BRANCH  22  23
HETATM   23  C14 UNL     1      29.686  -0.972  53.609  1.00  0.00     0.141 C 
HETATM   24 CL1  UNL     1      29.134  -2.618  53.211  1.00  0.00    -0.128 Cl
ENDBRANCH  22  23
ENDBRANCH  21  22
ENDBRANCH  16  21
ENDBRANCH  11  13
ENDBRANCH   8  11
BRANCH   1  25
HETATM   25  N1  UNL     1      26.318   6.891  49.925  1.00  0.00    -0.327 N 
HETATM   26  C2  UNL     1      26.217   8.292  50.122  1.00  0.00     0.218 C 
HETATM   27  C1  UNL     1      27.394   9.180  50.299  1.00  0.00     0.117 C 
HETATM   28  O1  UNL     1      25.082   8.835  50.151  1.00  0.00    -0.274 OA
HETATM   29  H4  UNL     1      27.322   6.546  49.918  1.00  0.00     0.169 HD
ENDBRANCH   1  25
TORSDOF 6
ENDMDL
MODEL 8
REMARK VINA RESULT:      -7.3      3.509      5.421
REMARK  6 active torsions:
REMARK  status: ('A' for Active; 'I' for Inactive)
REMARK       I    between atoms: C2_2  and  N1_4 
REMARK    1  A    between atoms: N1_4  and  C3_5 
REMARK    2  A    between atoms: C8_12  and  N4_13 
REMARK    3  A    between atoms: N4_13  and  C9_14 
REMARK    4  A    between atoms: C12_17  and  O2_18 
REMARK    5  A    between atoms: O2_18  and  C13_19 
REMARK    6  A    between atoms: C13_19  and  C14_20 
ROOT
HETATM    1  C3  UNL     1      22.459  -1.096  54.122  1.00  0.00     0.035 A 
HETATM    2  C4  UNL     1      22.942  -1.553  55.350  1.00  0.00     0.032 A 
HETATM    3  C5  UNL     1      24.238  -1.294  55.743  1.00  0.00     0.035 A 
HETATM    4  C6  UNL     1      25.113  -0.572  54.937  1.00  0.00     0.072 A 
HETATM    5  N2  UNL     1      26.382  -0.312  55.306  1.00  0.00    -0.241 NA
HETATM    6  C7  UNL     1      27.218   0.391  54.513  1.00  0.00     0.236 A 
HETATM    7  N3  UNL     1      26.736   0.826  53.327  1.00  0.00    -0.223 NA
HETATM    8  C8  UNL     1      25.473   0.579  52.936  1.00  0.00     0.143 A 
HETATM    9  C16 UNL     1      24.604  -0.132  53.725  1.00  0.00     0.041 A 
HETATM   10  C17 UNL     1      23.314  -0.377  53.311  1.00  0.00     0.047 A 
ENDROOT
BRANCH   8  11
HETATM   11  N4  UNL     1      25.103   1.097  51.666  1.00  0.00    -0.327 N 
HETATM   12  H8  UNL     1      25.013   0.638  50.745  1.00  0.00     0.169 HD
BRANCH  11  13
HETATM   13  C9  UNL     1      24.780   2.476  51.527  1.00  0.00     0.104 A 
HETATM   14  C10 UNL     1      25.306   3.178  50.535  1.00  0.00     0.051 A 
HETATM   15  C11 UNL     1      25.039   4.607  50.301  1.00  0.00     0.039 A 
HETATM   16  C12 UNL     1      24.212   5.195  51.160  1.00  0.00     0.084 A 
HETATM   17  C15 UNL     1      23.541   4.554  52.320  1.00  0.00     0.237 A 
HETATM   18 CL2  UNL     1      21.753   4.610  52.139  1.00  0.00    -0.095 Cl
HETATM   19  N5  UNL     1      23.902   3.157  52.416  1.00  0.00    -0.353 N 
HETATM   20  H16 UNL     1      23.475   2.626  53.205  1.00  0.00     0.163 HD
BRANCH  16  21
HETATM   21  O2  UNL     1      23.973   6.542  50.921  1.00  0.00    -0.351 OA
BRANCH  21  22
HETATM   22  C13 UNL     1      24.051   7.175  49.678  1.00  0.00     0.190 C 
BRANCH  22  23
HETATM   23  C14 UNL     1      22.721   7.744  49.231  1.00  0.00     0.141 C 
HETATM   24 CL1  UNL     1      21.497   7.654  50.522  1.00  0.00    -0.128 Cl
ENDBRANCH  22  23
ENDBRANCH  21  22
ENDBRANCH  16  21
ENDBRANCH  11  13
ENDBRANCH   8  11
BRANCH   1  25
HETATM   25  N1  UNL     1      21.114  -1.389  53.765  1.00  0.00    -0.327 N 
HETATM   26  C2  UNL     1      20.108  -0.413  53.555  1.00  0.00     0.218 C 
HETATM   27  C1  UNL     1      18.710  -0.747  53.183  1.00  0.00     0.117 C 
HETATM   28  O1  UNL     1      20.388   0.807  53.686  1.00  0.00    -0.274 OA
HETATM   29  H4  UNL     1      20.763  -2.382  53.628  1.00  0.00     0.169 HD
ENDBRANCH   1  25
TORSDOF 6
ENDMDL
MODEL 9
REMARK VINA RESULT:      -7.2      3.390      7.546
REMARK  6 active torsions:
REMARK  status: ('A' for Active; 'I' for Inactive)
REMARK       I    between atoms: C2_2  and  N1_4 
REMARK    1  A    between atoms: N1_4  and  C3_5 
REMARK    2  A    between atoms: C8_12  and  N4_13 
REMARK    3  A    between atoms: N4_13  and  C9_14 
REMARK    4  A    between atoms: C12_17  and  O2_18 
REMARK    5  A    between atoms: O2_18  and  C13_19 
REMARK    6  A    between atoms: C13_19  and  C14_20 
ROOT
HETATM    1  C3  UNL     1      24.283   7.614  50.704  1.00  0.00     0.035 A 
HETATM    2  C4  UNL     1      23.229   7.870  49.823  1.00  0.00     0.032 A 
HETATM    3  C5  UNL     1      22.105   7.073  49.811  1.00  0.00     0.035 A 
HETATM    4  C6  UNL     1      21.972   5.986  50.670  1.00  0.00     0.072 A 
HETATM    5  N2  UNL     1      20.881   5.198  50.670  1.00  0.00    -0.241 NA
HETATM    6  C7  UNL     1      20.768   4.148  51.511  1.00  0.00     0.236 A 
HETATM    7  N3  UNL     1      21.796   3.912  52.357  1.00  0.00    -0.223 NA
HETATM    8  C8  UNL     1      22.896   4.685  52.376  1.00  0.00     0.143 A 
HETATM    9  C16 UNL     1      23.034   5.758  51.533  1.00  0.00     0.041 A 
HETATM   10  C17 UNL     1      24.167   6.540  51.564  1.00  0.00     0.047 A 
ENDROOT
BRANCH   8  11
HETATM   11  N4  UNL     1      23.895   4.320  53.318  1.00  0.00    -0.327 N 
HETATM   12  H8  UNL     1      24.158   4.737  54.225  1.00  0.00     0.169 HD
BRANCH  11  13
HETATM   13  C9  UNL     1      24.736   3.200  53.065  1.00  0.00     0.104 A 
HETATM   14  C10 UNL     1      24.511   2.433  52.009  1.00  0.00     0.051 A 
HETATM   15  C11 UNL     1      25.319   1.253  51.656  1.00  0.00     0.039 A 
HETATM   16  C12 UNL     1      26.331   0.973  52.473  1.00  0.00     0.084 A 
HETATM   17  C15 UNL     1      26.717   1.728  53.693  1.00  0.00     0.237 A 
HETATM   18 CL2  UNL     1      28.375   2.403  53.531  1.00  0.00    -0.095 Cl
HETATM   19  N5  UNL     1      25.832   2.853  53.903  1.00  0.00    -0.353 N 
HETATM   20  H16 UNL     1      26.030   3.441  54.741  1.00  0.00     0.163 HD
BRANCH  16  21
HETATM   21  O2  UNL     1      27.079  -0.143  52.122  1.00  0.00    -0.351 OA
BRANCH  21  22
HETATM   22  C13 UNL     1      26.847  -1.450  52.556  1.00  0.00     0.190 C 
BRANCH  22  23
HETATM   23  C14 UNL     1      28.120  -2.158  52.972  1.00  0.00     0.141 C 
HETATM   24 CL1  UNL     1      29.433  -1.006  53.320  1.00  0.00    -0.128 Cl
ENDBRANCH  22  23
ENDBRANCH  21  22
ENDBRANCH  16  21
ENDBRANCH  11  13
ENDBRANCH   8  11
BRANCH   1  25
HETATM   25  N1  UNL     1      25.419   8.467  50.677  1.00  0.00    -0.327 N 
HETATM   26  C2  UNL     1      26.579   8.235  49.895  1.00  0.00     0.218 C 
HETATM   27  C1  UNL     1      27.753   9.143  49.884  1.00  0.00     0.117 C 
HETATM   28  O1  UNL     1      26.642   7.212  49.165  1.00  0.00    -0.274 OA
HETATM   29  H4  UNL     1      25.479   9.358  51.251  1.00  0.00     0.169 HD
ENDBRANCH   1  25
TORSDOF 6
ENDMDL
