MODEL 1
REMARK VINA RESULT:      -9.0      0.000      0.000
REMARK  3 active torsions:
REMARK  status: ('A' for Active; 'I' for Inactive)
REMARK    1  A    between atoms: S1_2  and  N1_5 
REMARK    2  A    between atoms: N1_5  and  C2_6 
REMARK    3  A    between atoms: C8_15  and  C9_16 
ROOT
HETATM    1  C2  UNL     1      26.983   6.181  48.529  1.00  0.00     0.022 A 
HETATM    2  C3  UNL     1      25.768   6.634  48.408  1.00  0.00     0.028 A 
HETATM    3  C4  UNL     1      24.664   5.777  48.817  1.00  0.00     0.037 A 
HETATM    4  C5  UNL     1      24.985   4.575  49.290  1.00  0.00     0.078 A 
HETATM    5  O3  UNL     1      23.933   3.756  49.682  1.00  0.00    -0.292 OA
HETATM    6  C6  UNL     1      24.169   2.785  50.651  1.00  0.00     0.200 A 
HETATM    7  N2  UNL     1      23.146   1.977  51.043  1.00  0.00    -0.215 NA
HETATM    8  C7  UNL     1      23.338   1.015  51.989  1.00  0.00     0.236 A 
HETATM    9  N3  UNL     1      24.558   0.832  52.571  1.00  0.00    -0.239 NA
HETATM   10  C8  UNL     1      25.617   1.617  52.211  1.00  0.00     0.099 A 
HETATM   11  C15 UNL     1      25.425   2.604  51.242  1.00  0.00     0.112 A 
HETATM   12  N4  UNL     1      26.491   3.472  50.811  1.00  0.00    -0.373 N 
HETATM   13  C16 UNL     1      26.333   3.978  49.460  1.00  0.00     0.145 A 
HETATM   14  C17 UNL     1      27.441   4.887  49.041  1.00  0.00     0.089 A 
HETATM   15  H12 UNL     1      27.239   3.618  51.550  1.00  0.00     0.160 HD
ENDROOT
BRANCH  10  16
HETATM   16  C9  UNL     1      26.928   1.435  52.823  1.00  0.00    -0.004 A 
HETATM   17  C10 UNL     1      27.780   2.330  53.418  1.00  0.00     0.014 A 
HETATM   18  C11 UNL     1      28.980   1.893  53.933  1.00  0.00     0.002 A 
HETATM   19  C12 UNL     1      29.371   0.575  53.877  1.00  0.00     0.019 A 
HETATM   20  C13 UNL     1      28.525  -0.336  53.281  1.00  0.00     0.011 A 
HETATM   21 BR1  UNL     1      29.105  -2.149  53.223  1.00  0.00    -0.051 Br
HETATM   22  C14 UNL     1      27.316   0.092  52.759  1.00  0.00     0.033 A 
ENDBRANCH  10  16
BRANCH   1  23
HETATM   23  N1  UNL     1      27.970   7.107  48.098  1.00  0.00    -0.289 N 
HETATM   24  H4  UNL     1      28.563   6.838  47.256  1.00  0.00     0.178 HD
BRANCH  23  25
HETATM   25  S1  UNL     1      28.271   8.638  48.844  1.00  0.00     0.226 S 
HETATM   26  C1  UNL     1      27.847   9.969  47.780  1.00  0.00     0.186 C 
HETATM   27  O1  UNL     1      29.692   8.760  49.249  1.00  0.00    -0.206 OA
HETATM   28  O2  UNL     1      27.434   8.780  50.106  1.00  0.00    -0.206 OA
ENDBRANCH  23  25
ENDBRANCH   1  23
TORSDOF 3
ENDMDL
MODEL 2
REMARK VINA RESULT:      -8.9      4.433      7.318
REMARK  3 active torsions:
REMARK  status: ('A' for Active; 'I' for Inactive)
REMARK    1  A    between atoms: S1_2  and  N1_5 
REMARK    2  A    between atoms: N1_5  and  C2_6 
REMARK    3  A    between atoms: C8_15  and  C9_16 
ROOT
HETATM    1  C2  UNL     1      26.255   0.273  52.568  1.00  0.00     0.022 A 
HETATM    2  C3  UNL     1      25.065  -0.216  52.768  1.00  0.00     0.028 A 
HETATM    3  C4  UNL     1      23.934   0.700  52.794  1.00  0.00     0.037 A 
HETATM    4  C5  UNL     1      24.206   1.990  52.610  1.00  0.00     0.078 A 
HETATM    5  O3  UNL     1      23.128   2.866  52.633  1.00  0.00    -0.292 OA
HETATM    6  C6  UNL     1      23.227   4.064  51.933  1.00  0.00     0.200 A 
HETATM    7  N2  UNL     1      22.177   4.931  51.948  1.00  0.00    -0.215 NA
HETATM    8  C7  UNL     1      22.236   6.113  51.273  1.00  0.00     0.236 A 
HETATM    9  N3  UNL     1      23.347   6.465  50.564  1.00  0.00    -0.239 NA
HETATM   10  C8  UNL     1      24.428   5.631  50.518  1.00  0.00     0.099 A 
HETATM   11  C15 UNL     1      24.371   4.418  51.208  1.00  0.00     0.112 A 
HETATM   12  N4  UNL     1      25.468   3.484  51.206  1.00  0.00    -0.373 N 
HETATM   13  C16 UNL     1      25.524   2.633  52.381  1.00  0.00     0.145 A 
HETATM   14  C17 UNL     1      26.659   1.664  52.349  1.00  0.00     0.089 A 
HETATM   15  H12 UNL     1      26.078   3.553  50.340  1.00  0.00     0.160 HD
ENDROOT
BRANCH  10  16
HETATM   16  C9  UNL     1      25.623   5.991  49.765  1.00  0.00    -0.004 A 
HETATM   17  C10 UNL     1      26.431   5.250  48.941  1.00  0.00     0.014 A 
HETATM   18  C11 UNL     1      27.515   5.841  48.333  1.00  0.00     0.002 A 
HETATM   19  C12 UNL     1      27.832   7.167  48.517  1.00  0.00     0.019 A 
HETATM   20  C13 UNL     1      27.029   7.926  49.342  1.00  0.00     0.011 A 
HETATM   21 BR1  UNL     1      27.502   9.756  49.570  1.00  0.00    -0.051 Br
HETATM   22  C14 UNL     1      25.936   7.342  49.959  1.00  0.00     0.033 A 
ENDBRANCH  10  16
BRANCH   1  23
HETATM   23  N1  UNL     1      27.274  -0.718  52.565  1.00  0.00    -0.289 N 
HETATM   24  H4  UNL     1      27.239  -1.457  51.801  1.00  0.00     0.178 HD
BRANCH  23  25
HETATM   25  S1  UNL     1      28.562  -0.802  53.716  1.00  0.00     0.226 S 
HETATM   26  C1  UNL     1      29.829   0.359  53.351  1.00  0.00     0.186 C 
HETATM   27  O1  UNL     1      29.139  -2.167  53.767  1.00  0.00    -0.206 OA
HETATM   28  O2  UNL     1      28.042  -0.484  55.110  1.00  0.00    -0.206 OA
ENDBRANCH  23  25
ENDBRANCH   1  23
TORSDOF 3
ENDMDL
MODEL 3
REMARK VINA RESULT:      -8.8      3.971      6.838
REMARK  3 active torsions:
REMARK  status: ('A' for Active; 'I' for Inactive)
REMARK    1  A    between atoms: S1_2  and  N1_5 
REMARK    2  A    between atoms: N1_5  and  C2_6 
REMARK    3  A    between atoms: C8_15  and  C9_16 
ROOT
HETATM    1  C2  UNL     1      26.017   1.027  54.022  1.00  0.00     0.022 A 
HETATM    2  C3  UNL     1      25.394  -0.062  53.676  1.00  0.00     0.028 A 
HETATM    3  C4  UNL     1      24.115   0.059  52.989  1.00  0.00     0.037 A 
HETATM    4  C5  UNL     1      23.673   1.293  52.764  1.00  0.00     0.078 A 
HETATM    5  O3  UNL     1      22.455   1.411  52.107  1.00  0.00    -0.292 OA
HETATM    6  C6  UNL     1      22.203   2.564  51.369  1.00  0.00     0.200 A 
HETATM    7  N2  UNL     1      21.013   2.691  50.721  1.00  0.00    -0.215 NA
HETATM    8  C7  UNL     1      20.730   3.804  49.988  1.00  0.00     0.236 A 
HETATM    9  N3  UNL     1      21.629   4.824  49.882  1.00  0.00    -0.239 NA
HETATM   10  C8  UNL     1      22.838   4.746  50.514  1.00  0.00     0.099 A 
HETATM   11  C15 UNL     1      23.131   3.607  51.266  1.00  0.00     0.112 A 
HETATM   12  N4  UNL     1      24.384   3.448  51.960  1.00  0.00    -0.373 N 
HETATM   13  C16 UNL     1      24.312   2.584  53.123  1.00  0.00     0.145 A 
HETATM   14  C17 UNL     1      25.625   2.423  53.816  1.00  0.00     0.089 A 
HETATM   15  H12 UNL     1      25.182   3.989  51.514  1.00  0.00     0.160 HD
ENDROOT
BRANCH  10  16
HETATM   16  C9  UNL     1      23.810   5.827  50.411  1.00  0.00    -0.004 A 
HETATM   17  C10 UNL     1      23.794   7.109  50.899  1.00  0.00     0.014 A 
HETATM   18  C11 UNL     1      24.861   7.945  50.663  1.00  0.00     0.002 A 
HETATM   19  C12 UNL     1      25.966   7.547  49.946  1.00  0.00     0.019 A 
HETATM   20  C13 UNL     1      25.998   6.261  49.450  1.00  0.00     0.011 A 
HETATM   21 BR1  UNL     1      27.544   5.750  48.463  1.00  0.00    -0.051 Br
HETATM   22  C14 UNL     1      24.930   5.411  49.680  1.00  0.00     0.033 A 
ENDBRANCH  10  16
BRANCH   1  23
HETATM   23  N1  UNL     1      27.250   0.779  54.685  1.00  0.00    -0.289 N 
HETATM   24  H4  UNL     1      27.215   0.248  55.606  1.00  0.00     0.178 HD
BRANCH  23  25
HETATM   25  S1  UNL     1      28.797   1.279  54.095  1.00  0.00     0.226 S 
HETATM   26  C1  UNL     1      29.805  -0.098  53.681  1.00  0.00     0.186 C 
HETATM   27  O1  UNL     1      29.497   2.124  55.092  1.00  0.00    -0.206 OA
HETATM   28  O2  UNL     1      28.633   2.117  52.836  1.00  0.00    -0.206 OA
ENDBRANCH  23  25
ENDBRANCH   1  23
TORSDOF 3
ENDMDL
MODEL 4
REMARK VINA RESULT:      -8.5      3.437      5.097
REMARK  3 active torsions:
REMARK  status: ('A' for Active; 'I' for Inactive)
REMARK    1  A    between atoms: S1_2  and  N1_5 
REMARK    2  A    between atoms: N1_5  and  C2_6 
REMARK    3  A    between atoms: C8_15  and  C9_16 
ROOT
HETATM    1  C2  UNL     1      24.336   4.772  49.984  1.00  0.00     0.022 A 
HETATM    2  C3  UNL     1      25.432   4.628  49.296  1.00  0.00     0.028 A 
HETATM    3  C4  UNL     1      26.428   3.676  49.770  1.00  0.00     0.037 A 
HETATM    4  C5  UNL     1      26.139   3.017  50.888  1.00  0.00     0.078 A 
HETATM    5  O3  UNL     1      27.086   2.107  51.341  1.00  0.00    -0.292 OA
HETATM    6  C6  UNL     1      26.663   1.034  52.118  1.00  0.00     0.200 A 
HETATM    7  N2  UNL     1      27.583   0.136  52.568  1.00  0.00    -0.215 NA
HETATM    8  C7  UNL     1      27.207  -0.929  53.331  1.00  0.00     0.236 A 
HETATM    9  N3  UNL     1      25.900  -1.127  53.668  1.00  0.00    -0.239 NA
HETATM   10  C8  UNL     1      24.938  -0.254  53.243  1.00  0.00     0.099 A 
HETATM   11  C15 UNL     1      25.320   0.838  52.461  1.00  0.00     0.112 A 
HETATM   12  N4  UNL     1      24.366   1.801  51.972  1.00  0.00    -0.373 N 
HETATM   13  C16 UNL     1      24.923   3.119  51.734  1.00  0.00     0.145 A 
HETATM   14  C17 UNL     1      23.920   4.095  51.214  1.00  0.00     0.089 A 
HETATM   15  H12 UNL     1      23.389   1.401  51.855  1.00  0.00     0.160 HD
ENDROOT
BRANCH  10  16
HETATM   16  C9  UNL     1      23.537  -0.452  53.594  1.00  0.00    -0.004 A 
HETATM   17  C10 UNL     1      22.951  -0.960  54.724  1.00  0.00     0.014 A 
HETATM   18  C11 UNL     1      21.579  -1.033  54.809  1.00  0.00     0.002 A 
HETATM   19  C12 UNL     1      20.753  -0.612  53.793  1.00  0.00     0.019 A 
HETATM   20  C13 UNL     1      21.327  -0.098  52.650  1.00  0.00     0.011 A 
HETATM   21 BR1  UNL     1      20.149   0.472  51.268  1.00  0.00    -0.051 Br
HETATM   22  C14 UNL     1      22.706  -0.020  52.553  1.00  0.00     0.033 A 
ENDBRANCH  10  16
BRANCH   1  23
HETATM   23  N1  UNL     1      23.446   5.727  49.423  1.00  0.00    -0.289 N 
HETATM   24  H4  UNL     1      23.082   5.543  48.440  1.00  0.00     0.178 HD
BRANCH  23  25
HETATM   25  S1  UNL     1      22.913   7.162  50.228  1.00  0.00     0.226 S 
HETATM   26  C1  UNL     1      22.404   8.393  49.084  1.00  0.00     0.186 C 
HETATM   27  O1  UNL     1      23.981   7.707  51.101  1.00  0.00    -0.206 OA
HETATM   28  O2  UNL     1      21.721   6.851  51.121  1.00  0.00    -0.206 OA
ENDBRANCH  23  25
ENDBRANCH   1  23
TORSDOF 3
ENDMDL
MODEL 5
REMARK VINA RESULT:      -8.5      5.728      8.410
REMARK  3 active torsions:
REMARK  status: ('A' for Active; 'I' for Inactive)
REMARK    1  A    between atoms: S1_2  and  N1_5 
REMARK    2  A    between atoms: N1_5  and  C2_6 
REMARK    3  A    between atoms: C8_15  and  C9_16 
ROOT
HETATM    1  C2  UNL     1      24.770  -0.376  54.326  1.00  0.00     0.022 A 
HETATM    2  C3  UNL     1      24.161  -1.329  54.970  1.00  0.00     0.028 A 
HETATM    3  C4  UNL     1      22.713  -1.430  54.854  1.00  0.00     0.037 A 
HETATM    4  C5  UNL     1      22.112  -0.524  54.087  1.00  0.00     0.078 A 
HETATM    5  O3  UNL     1      20.730  -0.619  53.974  1.00  0.00    -0.292 OA
HETATM    6  C6  UNL     1      20.119  -0.117  52.829  1.00  0.00     0.200 A 
HETATM    7  N2  UNL     1      18.765  -0.205  52.706  1.00  0.00    -0.215 NA
HETATM    8  C7  UNL     1      18.130   0.274  51.600  1.00  0.00     0.236 A 
HETATM    9  N3  UNL     1      18.829   0.857  50.584  1.00  0.00    -0.239 NA
HETATM   10  C8  UNL     1      20.189   0.969  50.658  1.00  0.00     0.099 A 
HETATM   11  C15 UNL     1      20.843   0.479  51.791  1.00  0.00     0.112 A 
HETATM   12  N4  UNL     1      22.274   0.559  51.943  1.00  0.00    -0.373 N 
HETATM   13  C16 UNL     1      22.721   0.593  53.323  1.00  0.00     0.145 A 
HETATM   14  C17 UNL     1      24.207   0.660  53.456  1.00  0.00     0.089 A 
HETATM   15  H12 UNL     1      22.794   0.579  51.018  1.00  0.00     0.160 HD
ENDROOT
BRANCH  10  16
HETATM   16  C9  UNL     1      20.951   1.588  49.581  1.00  0.00    -0.004 A 
HETATM   17  C10 UNL     1      21.683   1.039  48.559  1.00  0.00     0.014 A 
HETATM   18  C11 UNL     1      22.313   1.860  47.652  1.00  0.00     0.002 A 
HETATM   19  C12 UNL     1      22.243   3.232  47.724  1.00  0.00     0.019 A 
HETATM   20  C13 UNL     1      21.511   3.799  48.745  1.00  0.00     0.011 A 
HETATM   21 BR1  UNL     1      21.440   5.700  48.809  1.00  0.00    -0.051 Br
HETATM   22  C14 UNL     1      20.873   2.984  49.664  1.00  0.00     0.033 A 
ENDBRANCH  10  16
BRANCH   1  23
HETATM   23  N1  UNL     1      26.178  -0.381  54.518  1.00  0.00    -0.289 N 
HETATM   24  H4  UNL     1      26.545  -0.094  55.475  1.00  0.00     0.178 HD
BRANCH  23  25
HETATM   25  S1  UNL     1      27.331  -0.824  53.307  1.00  0.00     0.226 S 
HETATM   26  C1  UNL     1      28.968  -0.418  53.797  1.00  0.00     0.186 C 
HETATM   27  O1  UNL     1      27.022  -0.166  52.015  1.00  0.00    -0.206 OA
HETATM   28  O2  UNL     1      27.288  -2.326  53.066  1.00  0.00    -0.206 OA
ENDBRANCH  23  25
ENDBRANCH   1  23
TORSDOF 3
ENDMDL
MODEL 6
REMARK VINA RESULT:      -8.4      4.678      7.517
REMARK  3 active torsions:
REMARK  status: ('A' for Active; 'I' for Inactive)
REMARK    1  A    between atoms: S1_2  and  N1_5 
REMARK    2  A    between atoms: N1_5  and  C2_6 
REMARK    3  A    between atoms: C8_15  and  C9_16 
ROOT
HETATM    1  C2  UNL     1      25.800   0.280  52.773  1.00  0.00     0.022 A 
HETATM    2  C3  UNL     1      25.054  -0.675  53.250  1.00  0.00     0.028 A 
HETATM    3  C4  UNL     1      23.636  -0.412  53.453  1.00  0.00     0.037 A 
HETATM    4  C5  UNL     1      23.203   0.804  53.132  1.00  0.00     0.078 A 
HETATM    5  O3  UNL     1      21.850   1.056  53.323  1.00  0.00    -0.292 OA
HETATM    6  C6  UNL     1      21.235   2.028  52.540  1.00  0.00     0.200 A 
HETATM    7  N2  UNL     1      19.910   2.284  52.718  1.00  0.00    -0.215 NA
HETATM    8  C7  UNL     1      19.272   3.228  51.970  1.00  0.00     0.236 A 
HETATM    9  N3  UNL     1      19.942   3.945  51.022  1.00  0.00    -0.239 NA
HETATM   10  C8  UNL     1      21.273   3.727  50.804  1.00  0.00     0.099 A 
HETATM   11  C15 UNL     1      21.929   2.760  51.569  1.00  0.00     0.112 A 
HETATM   12  N4  UNL     1      23.330   2.470  51.399  1.00  0.00    -0.373 N 
HETATM   13  C16 UNL     1      23.976   1.948  52.588  1.00  0.00     0.145 A 
HETATM   14  C17 UNL     1      25.423   1.641  52.383  1.00  0.00     0.089 A 
HETATM   15  H12 UNL     1      23.686   2.680  50.420  1.00  0.00     0.160 HD
ENDROOT
BRANCH  10  16
HETATM   16  C9  UNL     1      22.002   4.483  49.795  1.00  0.00    -0.004 A 
HETATM   17  C10 UNL     1      22.195   4.254  48.456  1.00  0.00     0.014 A 
HETATM   18  C11 UNL     1      22.934   5.144  47.709  1.00  0.00     0.002 A 
HETATM   19  C12 UNL     1      23.499   6.273  48.254  1.00  0.00     0.019 A 
HETATM   20  C13 UNL     1      23.314   6.518  49.598  1.00  0.00     0.011 A 
HETATM   21 BR1  UNL     1      24.114   8.091  50.313  1.00  0.00    -0.051 Br
HETATM   22  C14 UNL     1      22.574   5.630  50.360  1.00  0.00     0.033 A 
ENDBRANCH  10  16
BRANCH   1  23
HETATM   23  N1  UNL     1      27.162  -0.097  52.621  1.00  0.00    -0.289 N 
HETATM   24  H4  UNL     1      27.399  -0.781  51.842  1.00  0.00     0.178 HD
BRANCH  23  25
HETATM   25  S1  UNL     1      28.455   0.483  53.613  1.00  0.00     0.226 S 
HETATM   26  C1  UNL     1      29.810  -0.634  53.623  1.00  0.00     0.186 C 
HETATM   27  O1  UNL     1      27.993   0.716  55.002  1.00  0.00    -0.206 OA
HETATM   28  O2  UNL     1      28.967   1.814  53.083  1.00  0.00    -0.206 OA
ENDBRANCH  23  25
ENDBRANCH   1  23
TORSDOF 3
ENDMDL
MODEL 7
REMARK VINA RESULT:      -8.3      5.296      7.970
REMARK  3 active torsions:
REMARK  status: ('A' for Active; 'I' for Inactive)
REMARK    1  A    between atoms: S1_2  and  N1_5 
REMARK    2  A    between atoms: N1_5  and  C2_6 
REMARK    3  A    between atoms: C8_15  and  C9_16 
ROOT
HETATM    1  C2  UNL     1      19.962  -0.053  52.536  1.00  0.00     0.022 A 
HETATM    2  C3  UNL     1      19.923  -0.530  53.747  1.00  0.00     0.028 A 
HETATM    3  C4  UNL     1      21.179  -0.872  54.399  1.00  0.00     0.037 A 
HETATM    4  C5  UNL     1      22.291  -0.669  53.696  1.00  0.00     0.078 A 
HETATM    5  O3  UNL     1      23.491  -0.993  54.316  1.00  0.00    -0.292 OA
HETATM    6  C6  UNL     1      24.648  -0.331  53.918  1.00  0.00     0.200 A 
HETATM    7  N2  UNL     1      25.830  -0.640  54.519  1.00  0.00    -0.215 NA
HETATM    8  C7  UNL     1      26.984  -0.013  54.156  1.00  0.00     0.236 A 
HETATM    9  N3  UNL     1      26.991   0.941  53.181  1.00  0.00    -0.239 NA
HETATM   10  C8  UNL     1      25.832   1.287  52.547  1.00  0.00     0.099 A 
HETATM   11  C15 UNL     1      24.646   0.646  52.916  1.00  0.00     0.112 A 
HETATM   12  N4  UNL     1      23.383   0.956  52.296  1.00  0.00    -0.373 N 
HETATM   13  C16 UNL     1      22.429  -0.136  52.318  1.00  0.00     0.145 A 
HETATM   14  C17 UNL     1      21.123   0.213  51.684  1.00  0.00     0.089 A 
HETATM   15  H12 UNL     1      23.335   1.946  51.914  1.00  0.00     0.160 HD
ENDROOT
BRANCH  10  16
HETATM   16  C9  UNL     1      25.821   2.305  51.504  1.00  0.00    -0.004 A 
HETATM   17  C10 UNL     1      26.546   2.420  50.345  1.00  0.00     0.014 A 
HETATM   18  C11 UNL     1      26.336   3.495  49.512  1.00  0.00     0.002 A 
HETATM   19  C12 UNL     1      25.417   4.479  49.793  1.00  0.00     0.019 A 
HETATM   20  C13 UNL     1      24.681   4.377  50.954  1.00  0.00     0.011 A 
HETATM   21 BR1  UNL     1      23.420   5.760  51.306  1.00  0.00    -0.051 Br
HETATM   22  C14 UNL     1      24.883   3.301  51.800  1.00  0.00     0.033 A 
ENDBRANCH  10  16
BRANCH   1  23
HETATM   23  N1  UNL     1      18.675   0.240  52.009  1.00  0.00    -0.289 N 
HETATM   24  H4  UNL     1      17.950  -0.539  52.017  1.00  0.00     0.178 HD
BRANCH  23  25
HETATM   25  S1  UNL     1      18.210   1.773  51.357  1.00  0.00     0.226 S 
HETATM   26  C1  UNL     1      16.474   2.017  51.461  1.00  0.00     0.186 C 
HETATM   27  O1  UNL     1      18.646   1.904  49.947  1.00  0.00    -0.206 OA
HETATM   28  O2  UNL     1      18.874   2.898  52.137  1.00  0.00    -0.206 OA
ENDBRANCH  23  25
ENDBRANCH   1  23
TORSDOF 3
ENDMDL
MODEL 8
REMARK VINA RESULT:      -8.2      3.687      5.425
REMARK  3 active torsions:
REMARK  status: ('A' for Active; 'I' for Inactive)
REMARK    1  A    between atoms: S1_2  and  N1_5 
REMARK    2  A    between atoms: N1_5  and  C2_6 
REMARK    3  A    between atoms: C8_15  and  C9_16 
ROOT
HETATM    1  C2  UNL     1      24.427   4.730  49.923  1.00  0.00     0.022 A 
HETATM    2  C3  UNL     1      25.547   4.588  49.275  1.00  0.00     0.028 A 
HETATM    3  C4  UNL     1      26.539   3.659  49.799  1.00  0.00     0.037 A 
HETATM    4  C5  UNL     1      26.221   3.017  50.920  1.00  0.00     0.078 A 
HETATM    5  O3  UNL     1      27.165   2.129  51.422  1.00  0.00    -0.292 OA
HETATM    6  C6  UNL     1      26.731   1.065  52.205  1.00  0.00     0.200 A 
HETATM    7  N2  UNL     1      27.647   0.189  52.702  1.00  0.00    -0.215 NA
HETATM    8  C7  UNL     1      27.260  -0.866  53.472  1.00  0.00     0.236 A 
HETATM    9  N3  UNL     1      25.945  -1.076  53.770  1.00  0.00    -0.239 NA
HETATM   10  C8  UNL     1      24.987  -0.226  53.297  1.00  0.00     0.099 A 
HETATM   11  C15 UNL     1      25.380   0.857  52.507  1.00  0.00     0.112 A 
HETATM   12  N4  UNL     1      24.430   1.797  51.969  1.00  0.00    -0.373 N 
HETATM   13  C16 UNL     1      24.977   3.118  51.724  1.00  0.00     0.145 A 
HETATM   14  C17 UNL     1      23.979   4.070  51.152  1.00  0.00     0.089 A 
HETATM   15  H12 UNL     1      23.463   1.382  51.827  1.00  0.00     0.160 HD
ENDROOT
BRANCH  10  16
HETATM   16  C9  UNL     1      23.578  -0.436  53.605  1.00  0.00    -0.004 A 
HETATM   17  C10 UNL     1      22.963  -0.970  54.708  1.00  0.00     0.014 A 
HETATM   18  C11 UNL     1      21.590  -1.050  54.754  1.00  0.00     0.002 A 
HETATM   19  C12 UNL     1      20.790  -0.612  53.725  1.00  0.00     0.019 A 
HETATM   20  C13 UNL     1      21.393  -0.072  52.608  1.00  0.00     0.011 A 
HETATM   21 BR1  UNL     1      20.250   0.522  51.206  1.00  0.00    -0.051 Br
HETATM   22  C14 UNL     1      22.774   0.014  52.551  1.00  0.00     0.033 A 
ENDBRANCH  10  16
BRANCH   1  23
HETATM   23  N1  UNL     1      23.543   5.661  49.315  1.00  0.00    -0.289 N 
HETATM   24  H4  UNL     1      23.576   6.668  49.658  1.00  0.00     0.178 HD
BRANCH  23  25
HETATM   25  S1  UNL     1      22.422   5.271  48.057  1.00  0.00     0.226 S 
HETATM   26  C1  UNL     1      20.778   5.698  48.502  1.00  0.00     0.186 C 
HETATM   27  O1  UNL     1      22.486   3.829  47.718  1.00  0.00    -0.206 OA
HETATM   28  O2  UNL     1      22.765   6.043  46.791  1.00  0.00    -0.206 OA
ENDBRANCH  23  25
ENDBRANCH   1  23
TORSDOF 3
ENDMDL
MODEL 9
REMARK VINA RESULT:      -7.9      5.283      8.346
REMARK  3 active torsions:
REMARK  status: ('A' for Active; 'I' for Inactive)
REMARK    1  A    between atoms: S1_2  and  N1_5 
REMARK    2  A    between atoms: N1_5  and  C2_6 
REMARK    3  A    between atoms: C8_15  and  C9_16 
ROOT
HETATM    1  C2  UNL     1      25.370   6.294  48.630  1.00  0.00     0.022 A 
HETATM    2  C3  UNL     1      25.552   5.094  49.102  1.00  0.00     0.028 A 
HETATM    3  C4  UNL     1      26.892   4.526  49.054  1.00  0.00     0.037 A 
HETATM    4  C5  UNL     1      27.844   5.286  48.520  1.00  0.00     0.078 A 
HETATM    5  O3  UNL     1      29.124   4.747  48.473  1.00  0.00    -0.292 OA
HETATM    6  C6  UNL     1      30.213   5.612  48.465  1.00  0.00     0.200 A 
HETATM    7  N2  UNL     1      31.472   5.095  48.420  1.00  0.00    -0.215 NA
HETATM    8  C7  UNL     1      32.563   5.910  48.411  1.00  0.00     0.236 A 
HETATM    9  N3  UNL     1      32.429   7.267  48.446  1.00  0.00    -0.239 NA
HETATM   10  C8  UNL     1      31.188   7.836  48.491  1.00  0.00     0.099 A 
HETATM   11  C15 UNL     1      30.066   7.004  48.500  1.00  0.00     0.112 A 
HETATM   12  N4  UNL     1      28.725   7.527  48.549  1.00  0.00    -0.373 N 
HETATM   13  C16 UNL     1      27.727   6.655  47.957  1.00  0.00     0.145 A 
HETATM   14  C17 UNL     1      26.344   7.211  48.033  1.00  0.00     0.089 A 
HETATM   15  H12 UNL     1      28.662   8.479  49.016  1.00  0.00     0.160 HD
ENDROOT
BRANCH  10  16
HETATM   16  C9  UNL     1      31.027   9.284  48.529  1.00  0.00    -0.004 A 
HETATM   17  C10 UNL     1      30.636  10.125  49.540  1.00  0.00     0.014 A 
HETATM   18  C11 UNL     1      30.571  11.481  49.315  1.00  0.00     0.002 A 
HETATM   19  C12 UNL     1      30.885  12.044  48.100  1.00  0.00     0.019 A 
HETATM   20  C13 UNL     1      31.280  11.212  47.073  1.00  0.00     0.011 A 
HETATM   21 BR1  UNL     1      31.706  12.031  45.408  1.00  0.00    -0.051 Br
HETATM   22  C14 UNL     1      31.349   9.846  47.288  1.00  0.00     0.033 A 
ENDBRANCH  10  16
BRANCH   1  23
HETATM   23  N1  UNL     1      24.024   6.736  48.733  1.00  0.00    -0.289 N 
HETATM   24  H4  UNL     1      23.439   6.744  47.844  1.00  0.00     0.178 HD
BRANCH  23  25
HETATM   25  S1  UNL     1      23.274   7.260  50.201  1.00  0.00     0.226 S 
HETATM   26  C1  UNL     1      21.766   8.104  49.889  1.00  0.00     0.186 C 
HETATM   27  O1  UNL     1      24.183   8.138  50.977  1.00  0.00    -0.206 OA
HETATM   28  O2  UNL     1      22.950   6.062  51.082  1.00  0.00    -0.206 OA
ENDBRANCH  23  25
ENDBRANCH   1  23
TORSDOF 3
ENDMDL
