MODEL 1
REMARK VINA RESULT:      -9.2      0.000      0.000
REMARK  4 active torsions:
REMARK  status: ('A' for Active; 'I' for Inactive)
REMARK    1  A    between atoms: C3_4  and  C19_24 
REMARK    2  A    between atoms: C6_7  and  C7_8 
REMARK    3  A    between atoms: C12_16  and  N5_17 
REMARK    4  A    between atoms: N5_17  and  C13_18 
ROOT
HETATM    1  C7  UNL     1      25.864  -0.538  54.036  1.00  0.00     0.111 A 
HETATM    2  N2  UNL     1      25.103  -1.066  54.951  1.00  0.00    -0.062 NA
HETATM    3  C8  UNL     1      23.835  -0.907  54.617  1.00  0.00     0.734 A 
HETATM    4  N3  UNL     1      22.821  -1.334  55.380  1.00  0.00    -0.074 NA
HETATM    5  C9  UNL     1      21.562  -1.084  54.929  1.00  0.00     0.138 A 
HETATM    6  C10 UNL     1      21.475  -0.414  53.736  1.00  0.00     0.038 A 
HETATM    7  C11 UNL     1      22.592  -0.031  53.052  1.00  0.00     0.118 A 
HETATM    8  N4  UNL     1      23.851  -0.252  53.448  1.00  0.00    -0.138 N 
HETATM    9  C12 UNL     1      25.102   0.003  53.039  1.00  0.00     0.151 A 
ENDROOT
BRANCH   1  10
HETATM   10  C6  UNL     1      27.280  -0.197  53.790  1.00  0.00     0.059 A 
HETATM   11  C5  UNL     1      28.590   0.572  53.734  1.00  0.00     0.043 A 
HETATM   12  C2  UNL     1      28.708  -0.940  53.416  1.00  0.00     0.047 A 
HETATM   13  C4  UNL     1      29.149   1.867  54.132  1.00  0.00     0.036 C 
HETATM   14  N1  UNL     1      29.459  -0.083  53.767  1.00  0.00    -0.287 NA
HETATM   15  C19 UNL     1      27.272   0.979  54.351  1.00  0.00     0.047 A 
HETATM   16  C1  UNL     1      29.400  -2.237  53.235  1.00  0.00     0.036 C 
HETATM   17  C3  UNL     1      28.748   0.740  54.838  1.00  0.00     0.073 C 
ENDBRANCH   1  10
BRANCH   9  18
HETATM   18  N5  UNL     1      25.221   0.740  51.836  1.00  0.00    -0.369 N 
HETATM   19  H9  UNL     1      25.495   0.134  51.060  1.00  0.00     0.161 HD
BRANCH  18  20
HETATM   20  C13 UNL     1      25.154   1.999  51.204  1.00  0.00     0.083 C 
HETATM   21  C14 UNL     1      24.535   3.107  52.088  1.00  0.00     0.025 C 
HETATM   22  C15 UNL     1      24.156   4.248  51.210  1.00  0.00     0.002 C 
HETATM   23  C16 UNL     1      25.266   4.733  50.320  1.00  0.00     0.000 C 
HETATM   24  C17 UNL     1      26.245   3.709  49.885  1.00  0.00     0.002 C 
HETATM   25  C18 UNL     1      26.526   2.610  50.868  1.00  0.00     0.025 C 
ENDBRANCH  18  20
ENDBRANCH   9  18
TORSDOF 4
ENDMDL
MODEL 2
REMARK VINA RESULT:      -9.1      1.660      4.828
REMARK  4 active torsions:
REMARK  status: ('A' for Active; 'I' for Inactive)
REMARK    1  A    between atoms: C3_4  and  C19_24 
REMARK    2  A    between atoms: C6_7  and  C7_8 
REMARK    3  A    between atoms: C12_16  and  N5_17 
REMARK    4  A    between atoms: N5_17  and  C13_18 
ROOT
HETATM    1  C7  UNL     1      26.744   1.886  51.848  1.00  0.00     0.111 A 
HETATM    2  N2  UNL     1      27.116   2.899  51.121  1.00  0.00    -0.062 NA
HETATM    3  C8  UNL     1      26.065   3.414  50.509  1.00  0.00     0.734 A 
HETATM    4  N3  UNL     1      26.145   4.459  49.676  1.00  0.00    -0.074 NA
HETATM    5  C9  UNL     1      24.988   4.874  49.093  1.00  0.00     0.138 A 
HETATM    6  C10 UNL     1      23.862   4.166  49.426  1.00  0.00     0.038 A 
HETATM    7  C11 UNL     1      23.915   3.114  50.292  1.00  0.00     0.118 A 
HETATM    8  N4  UNL     1      25.022   2.665  50.894  1.00  0.00    -0.138 N 
HETATM    9  C12 UNL     1      25.396   1.692  51.736  1.00  0.00     0.151 A 
ENDROOT
BRANCH   1  10
HETATM   10  C6  UNL     1      27.319   0.779  52.640  1.00  0.00     0.059 A 
HETATM   11  C5  UNL     1      28.015   0.010  53.751  1.00  0.00     0.043 A 
HETATM   12  C2  UNL     1      27.289  -0.872  52.704  1.00  0.00     0.047 A 
HETATM   13  C4  UNL     1      28.620   0.238  55.065  1.00  0.00     0.036 C 
HETATM   14  N1  UNL     1      27.669  -1.020  53.824  1.00  0.00    -0.287 NA
HETATM   15  C19 UNL     1      27.657   1.477  53.687  1.00  0.00     0.047 A 
HETATM   16  C1  UNL     1      26.667  -2.105  52.167  1.00  0.00     0.036 C 
HETATM   17  C3  UNL     1      27.311   0.245  54.601  1.00  0.00     0.073 C 
ENDBRANCH   1  10
BRANCH   9  18
HETATM   18  N5  UNL     1      24.370   0.812  52.159  1.00  0.00    -0.369 N 
HETATM   19  H9  UNL     1      24.284   0.017  51.522  1.00  0.00     0.161 HD
BRANCH  18  20
HETATM   20  C13 UNL     1      23.348   0.541  53.092  1.00  0.00     0.083 C 
HETATM   21  C14 UNL     1      21.927   0.561  52.482  1.00  0.00     0.025 C 
HETATM   22  C15 UNL     1      20.942   0.661  53.593  1.00  0.00     0.002 C 
HETATM   23  C16 UNL     1      21.124  -0.372  54.669  1.00  0.00     0.000 C 
HETATM   24  C17 UNL     1      22.514  -0.833  54.901  1.00  0.00     0.002 C 
HETATM   25  C18 UNL     1      23.400  -0.876  53.691  1.00  0.00     0.025 C 
ENDBRANCH  18  20
ENDBRANCH   9  18
TORSDOF 4
ENDMDL
MODEL 3
REMARK VINA RESULT:      -8.7      1.430      5.150
REMARK  4 active torsions:
REMARK  status: ('A' for Active; 'I' for Inactive)
REMARK    1  A    between atoms: C3_4  and  C19_24 
REMARK    2  A    between atoms: C6_7  and  C7_8 
REMARK    3  A    between atoms: C12_16  and  N5_17 
REMARK    4  A    between atoms: N5_17  and  C13_18 
ROOT
HETATM    1  C7  UNL     1      24.798  -0.297  53.714  1.00  0.00     0.111 A 
HETATM    2  N2  UNL     1      25.887  -0.951  53.997  1.00  0.00    -0.062 NA
HETATM    3  C8  UNL     1      26.918  -0.125  53.976  1.00  0.00     0.734 A 
HETATM    4  N3  UNL     1      28.174  -0.522  54.212  1.00  0.00    -0.074 NA
HETATM    5  C9  UNL     1      29.146   0.428  54.133  1.00  0.00     0.138 A 
HETATM    6  C10 UNL     1      28.722   1.693  53.817  1.00  0.00     0.038 A 
HETATM    7  C11 UNL     1      27.404   1.968  53.599  1.00  0.00     0.118 A 
HETATM    8  N4  UNL     1      26.409   1.075  53.663  1.00  0.00    -0.138 N 
HETATM    9  C12 UNL     1      25.082   1.021  53.490  1.00  0.00     0.151 A 
ENDROOT
BRANCH   1  10
HETATM   10  C6  UNL     1      23.373  -0.534  53.408  1.00  0.00     0.059 A 
HETATM   11  C5  UNL     1      21.916  -0.948  53.547  1.00  0.00     0.043 A 
HETATM   12  C2  UNL     1      22.236  -0.102  52.288  1.00  0.00     0.047 A 
HETATM   13  C4  UNL     1      20.998  -1.503  54.544  1.00  0.00     0.036 C 
HETATM   14  N1  UNL     1      21.255  -0.361  52.914  1.00  0.00    -0.287 NA
HETATM   15  C19 UNL     1      23.014  -0.960  54.586  1.00  0.00     0.047 A 
HETATM   16  C1  UNL     1      21.934   0.761  51.123  1.00  0.00     0.036 C 
HETATM   17  C3  UNL     1      21.615  -0.267  54.394  1.00  0.00     0.073 C 
ENDBRANCH   1  10
BRANCH   9  18
HETATM   18  N5  UNL     1      24.459   2.233  53.104  1.00  0.00    -0.369 N 
HETATM   19  H9  UNL     1      23.606   2.394  53.642  1.00  0.00     0.161 HD
BRANCH  18  20
HETATM   20  C13 UNL     1      24.475   3.357  52.252  1.00  0.00     0.083 C 
HETATM   21  C14 UNL     1      24.774   3.013  50.774  1.00  0.00     0.025 C 
HETATM   22  C15 UNL     1      25.153   4.268  50.069  1.00  0.00     0.002 C 
HETATM   23  C16 UNL     1      24.168   5.390  50.242  1.00  0.00     0.000 C 
HETATM   24  C17 UNL     1      23.425   5.413  51.525  1.00  0.00     0.002 C 
HETATM   25  C18 UNL     1      23.118   4.073  52.127  1.00  0.00     0.025 C 
ENDBRANCH  18  20
ENDBRANCH   9  18
TORSDOF 4
ENDMDL
MODEL 4
REMARK VINA RESULT:      -8.4      1.722      6.174
REMARK  4 active torsions:
REMARK  status: ('A' for Active; 'I' for Inactive)
REMARK    1  A    between atoms: C3_4  and  C19_24 
REMARK    2  A    between atoms: C6_7  and  C7_8 
REMARK    3  A    between atoms: C12_16  and  N5_17 
REMARK    4  A    between atoms: N5_17  and  C13_18 
ROOT
HETATM    1  C7  UNL     1      25.473   2.299  51.987  1.00  0.00     0.111 A 
HETATM    2  N2  UNL     1      26.731   2.626  52.053  1.00  0.00    -0.062 NA
HETATM    3  C8  UNL     1      27.388   1.720  52.755  1.00  0.00     0.734 A 
HETATM    4  N3  UNL     1      28.700   1.803  53.006  1.00  0.00    -0.074 NA
HETATM    5  C9  UNL     1      29.247   0.814  53.764  1.00  0.00     0.138 A 
HETATM    6  C10 UNL     1      28.383  -0.163  54.188  1.00  0.00     0.038 A 
HETATM    7  C11 UNL     1      27.059  -0.132  53.861  1.00  0.00     0.118 A 
HETATM    8  N4  UNL     1      26.470   0.814  53.121  1.00  0.00    -0.138 N 
HETATM    9  C12 UNL     1      25.251   1.132  52.662  1.00  0.00     0.151 A 
ENDROOT
BRANCH   1  10
HETATM   10  C6  UNL     1      24.174   2.848  51.549  1.00  0.00     0.059 A 
HETATM   11  C5  UNL     1      22.867   3.624  51.534  1.00  0.00     0.043 A 
HETATM   12  C2  UNL     1      23.273   3.005  50.172  1.00  0.00     0.047 A 
HETATM   13  C4  UNL     1      22.114   4.570  52.361  1.00  0.00     0.036 C 
HETATM   14  N1  UNL     1      22.548   3.883  50.526  1.00  0.00    -0.287 NA
HETATM   15  C19 UNL     1      23.969   3.633  52.568  1.00  0.00     0.047 A 
HETATM   16  C1  UNL     1      23.246   2.829  48.701  1.00  0.00     0.036 C 
HETATM   17  C3  UNL     1      23.278   4.672  51.610  1.00  0.00     0.073 C 
ENDBRANCH   1  10
BRANCH   9  18
HETATM   18  N5  UNL     1      24.202   0.260  53.043  1.00  0.00    -0.369 N 
HETATM   19  H9  UNL     1      24.543  -0.696  53.159  1.00  0.00     0.161 HD
BRANCH  18  20
HETATM   20  C13 UNL     1      22.827   0.107  53.321  1.00  0.00     0.083 C 
HETATM   21  C14 UNL     1      21.940   0.042  52.055  1.00  0.00     0.025 C 
HETATM   22  C15 UNL     1      20.528   0.280  52.461  1.00  0.00     0.002 C 
HETATM   23  C16 UNL     1      20.053  -0.605  53.580  1.00  0.00     0.000 C 
HETATM   24  C17 UNL     1      21.084  -1.025  54.559  1.00  0.00     0.002 C 
HETATM   25  C18 UNL     1      22.467  -1.220  54.012  1.00  0.00     0.025 C 
ENDBRANCH  18  20
ENDBRANCH   9  18
TORSDOF 4
ENDMDL
MODEL 5
REMARK VINA RESULT:      -8.4      1.798      5.370
REMARK  4 active torsions:
REMARK  status: ('A' for Active; 'I' for Inactive)
REMARK    1  A    between atoms: C3_4  and  C19_24 
REMARK    2  A    between atoms: C6_7  and  C7_8 
REMARK    3  A    between atoms: C12_16  and  N5_17 
REMARK    4  A    between atoms: N5_17  and  C13_18 
ROOT
HETATM    1  C7  UNL     1      24.701   1.208  53.090  1.00  0.00     0.111 A 
HETATM    2  N2  UNL     1      25.173   0.521  54.090  1.00  0.00    -0.062 NA
HETATM    3  C8  UNL     1      26.494   0.543  54.057  1.00  0.00     0.734 A 
HETATM    4  N3  UNL     1      27.257  -0.095  54.953  1.00  0.00    -0.074 NA
HETATM    5  C9  UNL     1      28.605  -0.011  54.788  1.00  0.00     0.138 A 
HETATM    6  C10 UNL     1      29.031   0.724  53.711  1.00  0.00     0.038 A 
HETATM    7  C11 UNL     1      28.146   1.328  52.867  1.00  0.00     0.118 A 
HETATM    8  N4  UNL     1      26.814   1.279  52.983  1.00  0.00    -0.138 N 
HETATM    9  C12 UNL     1      25.723   1.721  52.342  1.00  0.00     0.151 A 
ENDROOT
BRANCH   1  10
HETATM   10  C6  UNL     1      23.423   1.494  52.408  1.00  0.00     0.059 A 
HETATM   11  C5  UNL     1      22.079   1.306  51.723  1.00  0.00     0.043 A 
HETATM   12  C2  UNL     1      22.418   2.770  52.099  1.00  0.00     0.047 A 
HETATM   13  C4  UNL     1      21.144   0.237  51.362  1.00  0.00     0.036 C 
HETATM   14  N1  UNL     1      21.422   2.164  51.851  1.00  0.00    -0.287 NA
HETATM   15  C19 UNL     1      22.973   0.272  52.368  1.00  0.00     0.047 A 
HETATM   16  C1  UNL     1      22.139   4.199  52.370  1.00  0.00     0.036 C 
HETATM   17  C3  UNL     1      21.512   0.819  52.568  1.00  0.00     0.073 C 
ENDBRANCH   1  10
BRANCH   9  18
HETATM   18  N5  UNL     1      25.959   2.465  51.161  1.00  0.00    -0.369 N 
HETATM   19  H9  UNL     1      26.610   1.976  50.543  1.00  0.00     0.161 HD
BRANCH  18  20
HETATM   20  C13 UNL     1      25.708   3.646  50.431  1.00  0.00     0.083 C 
HETATM   21  C14 UNL     1      26.831   4.009  49.431  1.00  0.00     0.025 C 
HETATM   22  C15 UNL     1      26.656   5.431  49.028  1.00  0.00     0.002 C 
HETATM   23  C16 UNL     1      25.275   5.764  48.536  1.00  0.00     0.000 C 
HETATM   24  C17 UNL     1      24.165   4.983  49.132  1.00  0.00     0.002 C 
HETATM   25  C18 UNL     1      24.486   3.564  49.498  1.00  0.00     0.025 C 
ENDBRANCH  18  20
ENDBRANCH   9  18
TORSDOF 4
ENDMDL
MODEL 6
REMARK VINA RESULT:      -8.2      1.895      5.435
REMARK  4 active torsions:
REMARK  status: ('A' for Active; 'I' for Inactive)
REMARK    1  A    between atoms: C3_4  and  C19_24 
REMARK    2  A    between atoms: C6_7  and  C7_8 
REMARK    3  A    between atoms: C12_16  and  N5_17 
REMARK    4  A    between atoms: N5_17  and  C13_18 
ROOT
HETATM    1  C7  UNL     1      23.918   2.983  51.347  1.00  0.00     0.111 A 
HETATM    2  N2  UNL     1      22.786   2.398  51.081  1.00  0.00    -0.062 NA
HETATM    3  C8  UNL     1      22.633   1.352  51.873  1.00  0.00     0.734 A 
HETATM    4  N3  UNL     1      21.567   0.544  51.816  1.00  0.00    -0.074 NA
HETATM    5  C9  UNL     1      21.546  -0.513  52.673  1.00  0.00     0.138 A 
HETATM    6  C10 UNL     1      22.631  -0.631  53.503  1.00  0.00     0.038 A 
HETATM    7  C11 UNL     1      23.659   0.265  53.463  1.00  0.00     0.118 A 
HETATM    8  N4  UNL     1      23.730   1.320  52.642  1.00  0.00    -0.138 N 
HETATM    9  C12 UNL     1      24.568   2.324  52.352  1.00  0.00     0.151 A 
ENDROOT
BRANCH   1  10
HETATM   10  C6  UNL     1      24.805   4.040  50.820  1.00  0.00     0.059 A 
HETATM   11  C5  UNL     1      25.904   4.746  50.042  1.00  0.00     0.043 A 
HETATM   12  C2  UNL     1      24.892   5.689  50.742  1.00  0.00     0.047 A 
HETATM   13  C4  UNL     1      26.939   4.455  49.047  1.00  0.00     0.036 C 
HETATM   14  N1  UNL     1      25.668   5.790  49.842  1.00  0.00    -0.287 NA
HETATM   15  C19 UNL     1      25.468   3.301  49.975  1.00  0.00     0.047 A 
HETATM   16  C1  UNL     1      24.186   6.964  51.005  1.00  0.00     0.036 C 
HETATM   17  C3  UNL     1      25.553   4.526  48.993  1.00  0.00     0.073 C 
ENDBRANCH   1  10
BRANCH   9  18
HETATM   18  N5  UNL     1      25.784   2.344  53.077  1.00  0.00    -0.369 N 
HETATM   19  H9  UNL     1      25.953   3.266  53.484  1.00  0.00     0.161 HD
BRANCH  18  20
HETATM   20  C13 UNL     1      26.933   1.637  53.489  1.00  0.00     0.083 C 
HETATM   21  C14 UNL     1      27.264   0.416  52.598  1.00  0.00     0.025 C 
HETATM   22  C15 UNL     1      28.219  -0.455  53.336  1.00  0.00     0.002 C 
HETATM   23  C16 UNL     1      29.433   0.264  53.853  1.00  0.00     0.000 C 
HETATM   24  C17 UNL     1      29.240   1.688  54.217  1.00  0.00     0.002 C 
HETATM   25  C18 UNL     1      28.239   2.445  53.394  1.00  0.00     0.025 C 
ENDBRANCH  18  20
ENDBRANCH   9  18
TORSDOF 4
ENDMDL
MODEL 7
REMARK VINA RESULT:      -8.0      1.813      2.994
REMARK  4 active torsions:
REMARK  status: ('A' for Active; 'I' for Inactive)
REMARK    1  A    between atoms: C3_4  and  C19_24 
REMARK    2  A    between atoms: C6_7  and  C7_8 
REMARK    3  A    between atoms: C12_16  and  N5_17 
REMARK    4  A    between atoms: N5_17  and  C13_18 
ROOT
HETATM    1  C7  UNL     1      24.586   0.782  53.034  1.00  0.00     0.111 A 
HETATM    2  N2  UNL     1      24.222  -0.389  53.469  1.00  0.00    -0.062 NA
HETATM    3  C8  UNL     1      22.911  -0.415  53.624  1.00  0.00     0.734 A 
HETATM    4  N3  UNL     1      22.251  -1.488  54.079  1.00  0.00    -0.074 NA
HETATM    5  C9  UNL     1      20.902  -1.372  54.214  1.00  0.00     0.138 A 
HETATM    6  C10 UNL     1      20.368  -0.157  53.869  1.00  0.00     0.038 A 
HETATM    7  C11 UNL     1      21.154   0.862  53.416  1.00  0.00     0.118 A 
HETATM    8  N4  UNL     1      22.482   0.802  53.263  1.00  0.00    -0.138 N 
HETATM    9  C12 UNL     1      23.496   1.592  52.883  1.00  0.00     0.151 A 
ENDROOT
BRANCH   1  10
HETATM   10  C6  UNL     1      25.806   1.579  52.790  1.00  0.00     0.059 A 
HETATM   11  C5  UNL     1      27.199   2.168  52.943  1.00  0.00     0.043 A 
HETATM   12  C2  UNL     1      26.510   2.469  51.588  1.00  0.00     0.047 A 
HETATM   13  C4  UNL     1      28.376   2.057  53.809  1.00  0.00     0.036 C 
HETATM   14  N1  UNL     1      27.632   2.466  51.990  1.00  0.00    -0.287 NA
HETATM   15  C19 UNL     1      26.526   1.089  53.760  1.00  0.00     0.047 A 
HETATM   16  C1  UNL     1      26.436   2.876  50.166  1.00  0.00     0.036 C 
HETATM   17  C3  UNL     1      27.806   1.221  52.857  1.00  0.00     0.073 C 
ENDBRANCH   1  10
BRANCH   9  18
HETATM   18  N5  UNL     1      23.148   2.919  52.533  1.00  0.00    -0.369 N 
HETATM   19  H9  UNL     1      22.874   3.457  53.358  1.00  0.00     0.161 HD
BRANCH  18  20
HETATM   20  C13 UNL     1      22.976   3.870  51.505  1.00  0.00     0.083 C 
HETATM   21  C14 UNL     1      22.765   3.243  50.107  1.00  0.00     0.025 C 
HETATM   22  C15 UNL     1      22.994   4.298  49.082  1.00  0.00     0.002 C 
HETATM   23  C16 UNL     1      22.201   5.555  49.308  1.00  0.00     0.000 C 
HETATM   24  C17 UNL     1      21.908   5.894  50.721  1.00  0.00     0.002 C 
HETATM   25  C18 UNL     1      21.708   4.730  51.646  1.00  0.00     0.025 C 
ENDBRANCH  18  20
ENDBRANCH   9  18
TORSDOF 4
ENDMDL
MODEL 8
REMARK VINA RESULT:      -8.0      2.116      5.426
REMARK  4 active torsions:
REMARK  status: ('A' for Active; 'I' for Inactive)
REMARK    1  A    between atoms: C3_4  and  C19_24 
REMARK    2  A    between atoms: C6_7  and  C7_8 
REMARK    3  A    between atoms: C12_16  and  N5_17 
REMARK    4  A    between atoms: N5_17  and  C13_18 
ROOT
HETATM    1  C7  UNL     1      22.842   1.708  51.619  1.00  0.00     0.111 A 
HETATM    2  N2  UNL     1      21.765   1.421  52.290  1.00  0.00    -0.062 NA
HETATM    3  C8  UNL     1      22.054   0.549  53.240  1.00  0.00     0.734 A 
HETATM    4  N3  UNL     1      21.137   0.056  54.080  1.00  0.00    -0.074 NA
HETATM    5  C9  UNL     1      21.565  -0.855  54.996  1.00  0.00     0.138 A 
HETATM    6  C10 UNL     1      22.900  -1.166  54.951  1.00  0.00     0.038 A 
HETATM    7  C11 UNL     1      23.735  -0.589  54.040  1.00  0.00     0.118 A 
HETATM    8  N4  UNL     1      23.367   0.310  53.119  1.00  0.00    -0.138 N 
HETATM    9  C12 UNL     1      23.909   1.014  52.116  1.00  0.00     0.151 A 
ENDROOT
BRANCH   1  10
HETATM   10  C6  UNL     1      23.267   2.422  50.398  1.00  0.00     0.059 A 
HETATM   11  C5  UNL     1      23.359   2.878  48.950  1.00  0.00     0.043 A 
HETATM   12  C2  UNL     1      24.154   3.746  49.958  1.00  0.00     0.047 A 
HETATM   13  C4  UNL     1      22.704   2.652  47.659  1.00  0.00     0.036 C 
HETATM   14  N1  UNL     1      23.722   3.900  48.858  1.00  0.00    -0.287 NA
HETATM   15  C19 UNL     1      22.376   1.923  49.589  1.00  0.00     0.047 A 
HETATM   16  C1  UNL     1      24.879   4.946  50.436  1.00  0.00     0.036 C 
HETATM   17  C3  UNL     1      22.319   3.298  48.827  1.00  0.00     0.073 C 
ENDBRANCH   1  10
BRANCH   9  18
HETATM   18  N5  UNL     1      25.286   0.788  51.876  1.00  0.00    -0.369 N 
HETATM   19  H9  UNL     1      25.430   0.324  50.976  1.00  0.00     0.161 HD
BRANCH  18  20
HETATM   20  C13 UNL     1      26.609   0.898  52.354  1.00  0.00     0.083 C 
HETATM   21  C14 UNL     1      26.795   2.002  53.420  1.00  0.00     0.025 C 
HETATM   22  C15 UNL     1      28.250   2.287  53.548  1.00  0.00     0.002 C 
HETATM   23  C16 UNL     1      29.096   1.068  53.786  1.00  0.00     0.000 C 
HETATM   24  C17 UNL     1      28.601  -0.194  53.186  1.00  0.00     0.002 C 
HETATM   25  C18 UNL     1      27.110  -0.344  53.113  1.00  0.00     0.025 C 
ENDBRANCH  18  20
ENDBRANCH   9  18
TORSDOF 4
ENDMDL
MODEL 9
REMARK VINA RESULT:      -7.8      1.768      2.867
REMARK  4 active torsions:
REMARK  status: ('A' for Active; 'I' for Inactive)
REMARK    1  A    between atoms: C3_4  and  C19_24 
REMARK    2  A    between atoms: C6_7  and  C7_8 
REMARK    3  A    between atoms: C12_16  and  N5_17 
REMARK    4  A    between atoms: N5_17  and  C13_18 
ROOT
HETATM    1  C7  UNL     1      23.629  -0.403  53.413  1.00  0.00     0.111 A 
HETATM    2  N2  UNL     1      22.691  -1.038  54.055  1.00  0.00    -0.062 NA
HETATM    3  C8  UNL     1      21.517  -0.746  53.525  1.00  0.00     0.734 A 
HETATM    4  N3  UNL     1      20.363  -1.240  53.992  1.00  0.00    -0.074 NA
HETATM    5  C9  UNL     1      19.222  -0.838  53.368  1.00  0.00     0.138 A 
HETATM    6  C10 UNL     1      19.387   0.036  52.325  1.00  0.00     0.038 A 
HETATM    7  C11 UNL     1      20.625   0.466  51.945  1.00  0.00     0.118 A 
HETATM    8  N4  UNL     1      21.777   0.103  52.521  1.00  0.00    -0.138 N 
HETATM    9  C12 UNL     1      23.089   0.350  52.409  1.00  0.00     0.151 A 
ENDROOT
BRANCH   1  10
HETATM   10  C6  UNL     1      25.073  -0.110  53.503  1.00  0.00     0.059 A 
HETATM   11  C5  UNL     1      26.584  -0.255  53.411  1.00  0.00     0.043 A 
HETATM   12  C2  UNL     1      26.085   1.177  53.728  1.00  0.00     0.047 A 
HETATM   13  C4  UNL     1      27.593  -1.209  52.943  1.00  0.00     0.036 C 
HETATM   14  N1  UNL     1      27.087   0.702  53.291  1.00  0.00    -0.287 NA
HETATM   15  C19 UNL     1      25.505  -1.200  52.935  1.00  0.00     0.047 A 
HETATM   16  C1  UNL     1      26.181   2.651  53.846  1.00  0.00     0.036 C 
HETATM   17  C3  UNL     1      26.685  -0.382  52.294  1.00  0.00     0.073 C 
ENDBRANCH   1  10
BRANCH   9  18
HETATM   18  N5  UNL     1      23.459   1.280  51.407  1.00  0.00    -0.369 N 
HETATM   19  H9  UNL     1      23.513   0.830  50.491  1.00  0.00     0.161 HD
BRANCH  18  20
HETATM   20  C13 UNL     1      23.830   2.605  51.096  1.00  0.00     0.083 C 
HETATM   21  C14 UNL     1      23.633   2.972  49.606  1.00  0.00     0.025 C 
HETATM   22  C15 UNL     1      24.407   4.211  49.323  1.00  0.00     0.002 C 
HETATM   23  C16 UNL     1      24.121   5.343  50.269  1.00  0.00     0.000 C 
HETATM   24  C17 UNL     1      23.747   4.959  51.651  1.00  0.00     0.002 C 
HETATM   25  C18 UNL     1      22.975   3.680  51.789  1.00  0.00     0.025 C 
ENDBRANCH  18  20
ENDBRANCH   9  18
TORSDOF 4
ENDMDL
