MODEL 1
REMARK VINA RESULT:      -8.1      0.000      0.000
REMARK  6 active torsions:
REMARK  status: ('A' for Active; 'I' for Inactive)
REMARK    1  A    between atoms: C3_3  and  N1_5 
REMARK    2  A    between atoms: N1_5  and  C4_6 
REMARK    3  A    between atoms: C7_9  and  O2_10 
REMARK    4  A    between atoms: N3_14  and  N4_15 
REMARK    5  A    between atoms: C16_22  and  N5_23 
REMARK    6  A    between atoms: C19_26  and  N6_27 
ROOT
HETATM    1  C4  UNL     1      22.697   3.140  52.152  1.00  0.00     0.063 C 
HETATM    2  C5  UNL     1      22.517   1.976  52.760  1.00  0.00     0.063 C 
HETATM    3  C6  UNL     1      23.417   0.829  52.704  1.00  0.00     0.058 C 
HETATM    4  C7  UNL     1      22.888  -0.343  53.020  1.00  0.00     0.163 C 
HETATM    5  N2  UNL     1      24.796   0.793  52.355  1.00  0.00    -0.338 N 
HETATM    6  C9  UNL     1      25.547   1.877  51.807  1.00  0.00     0.150 C 
HETATM    7  N3  UNL     1      26.836   1.823  51.898  1.00  0.00    -0.150 NA
HETATM    8  C15 UNL     1      25.010   3.071  51.138  1.00  0.00     0.084 C 
HETATM    9  C16 UNL     1      23.790   3.612  51.284  1.00  0.00     0.061 C 
HETATM   10  H10 UNL     1      25.345  -0.098  52.501  1.00  0.00     0.167 HD
ENDROOT
BRANCH   9  11
HETATM   11  N5  UNL     1      23.638   4.757  50.475  1.00  0.00    -0.379 N 
HETATM   12  C17 UNL     1      24.139   6.039  50.948  1.00  0.00     0.125 C 
HETATM   13  C18 UNL     1      23.329   7.129  50.276  1.00  0.00     0.055 C 
HETATM   14  C19 UNL     1      23.559   7.213  48.806  1.00  0.00     0.225 C 
HETATM   15  C22 UNL     1      23.764   5.830  48.269  1.00  0.00     0.055 C 
HETATM   16  C23 UNL     1      23.005   4.832  49.144  1.00  0.00     0.125 C 
BRANCH  14  17
HETATM   17  N6  UNL     1      24.548   8.166  48.460  1.00  0.00     0.084 N 
HETATM   18  C20 UNL     1      25.507   7.757  47.489  1.00  0.00     0.309 C 
HETATM   19  C21 UNL     1      24.068   9.482  48.189  1.00  0.00     0.309 C 
ENDBRANCH  14  17
ENDBRANCH   9  11
BRANCH   1  20
HETATM   20  N1  UNL     1      21.699   4.143  52.329  1.00  0.00    -0.335 N 
HETATM   21  H4  UNL     1      21.778   5.116  52.701  1.00  0.00     0.168 HD
BRANCH  20  22
HETATM   22  C3  UNL     1      20.344   3.840  51.960  1.00  0.00     0.141 A 
HETATM   23  C2  UNL     1      19.729   4.262  50.703  1.00  0.00     0.056 A 
HETATM   24  C1  UNL     1      18.549   3.686  50.990  1.00  0.00     0.209 A 
HETATM   25  O1  UNL     1      19.287   3.260  52.342  1.00  0.00    -0.332 OA
ENDBRANCH  20  22
ENDBRANCH   1  20
BRANCH   7  26
HETATM   26  N4  UNL     1      27.448   0.745  52.508  1.00  0.00    -0.248 N 
HETATM   27  C10 UNL     1      27.362  -0.583  52.463  1.00  0.00     0.118 A 
HETATM   28  C11 UNL     1      28.256  -1.186  53.329  1.00  0.00     0.021 A 
HETATM   29  C12 UNL     1      28.927  -0.125  53.936  1.00  0.00     0.028 A 
HETATM   30  C13 UNL     1      28.413   1.056  53.416  1.00  0.00     0.032 A 
HETATM   31  C14 UNL     1      28.987   2.341  53.926  1.00  0.00     0.070 C 
ENDBRANCH   7  26
BRANCH   4  32
HETATM   32  O2  UNL     1      21.543  -0.422  53.379  1.00  0.00    -0.366 OA
HETATM   33  C8  UNL     1      21.097  -1.434  54.254  1.00  0.00     0.209 C 
ENDBRANCH   4  32
TORSDOF 6
ENDMDL
MODEL 2
REMARK VINA RESULT:      -8.0      3.107      7.831
REMARK  6 active torsions:
REMARK  status: ('A' for Active; 'I' for Inactive)
REMARK    1  A    between atoms: C3_3  and  N1_5 
REMARK    2  A    between atoms: N1_5  and  C4_6 
REMARK    3  A    between atoms: C7_9  and  O2_10 
REMARK    4  A    between atoms: N3_14  and  N4_15 
REMARK    5  A    between atoms: C16_22  and  N5_23 
REMARK    6  A    between atoms: C19_26  and  N6_27 
ROOT
HETATM    1  C4  UNL     1      24.185   1.956  51.236  1.00  0.00     0.063 C 
HETATM    2  C5  UNL     1      23.379   2.373  50.269  1.00  0.00     0.063 C 
HETATM    3  C6  UNL     1      22.101   1.777  49.897  1.00  0.00     0.058 C 
HETATM    4  C7  UNL     1      21.655   2.063  48.683  1.00  0.00     0.163 C 
HETATM    5  N2  UNL     1      21.259   0.922  50.663  1.00  0.00    -0.338 N 
HETATM    6  C9  UNL     1      21.593   0.325  51.916  1.00  0.00     0.150 C 
HETATM    7  N3  UNL     1      20.624  -0.099  52.659  1.00  0.00    -0.150 NA
HETATM    8  C15 UNL     1      22.942   0.133  52.468  1.00  0.00     0.084 C 
HETATM    9  C16 UNL     1      24.052   0.831  52.178  1.00  0.00     0.061 C 
HETATM   10  H10 UNL     1      20.294   0.688  50.303  1.00  0.00     0.167 HD
ENDROOT
BRANCH   9  11
HETATM   11  N5  UNL     1      25.161   0.356  52.908  1.00  0.00    -0.379 N 
HETATM   12  C17 UNL     1      26.399   0.048  52.207  1.00  0.00     0.125 C 
HETATM   13  C18 UNL     1      27.146  -0.989  53.021  1.00  0.00     0.055 C 
HETATM   14  C19 UNL     1      27.635  -0.470  54.330  1.00  0.00     0.225 C 
HETATM   15  C22 UNL     1      26.629   0.497  54.873  1.00  0.00     0.055 C 
HETATM   16  C23 UNL     1      25.238   0.117  54.361  1.00  0.00     0.125 C 
BRANCH  14  17
HETATM   17  N6  UNL     1      28.972  -0.007  54.271  1.00  0.00     0.084 N 
HETATM   18  C20 UNL     1      29.846  -0.712  53.394  1.00  0.00     0.309 C 
HETATM   19  C21 UNL     1      29.131   1.403  54.135  1.00  0.00     0.309 C 
ENDBRANCH  14  17
ENDBRANCH   9  11
BRANCH   1  20
HETATM   20  N1  UNL     1      25.397   2.676  51.447  1.00  0.00    -0.335 N 
HETATM   21  H4  UNL     1      26.130   2.564  52.184  1.00  0.00     0.168 HD
BRANCH  20  22
HETATM   22  C3  UNL     1      25.734   3.741  50.543  1.00  0.00     0.141 A 
HETATM   23  C2  UNL     1      26.720   3.618  49.471  1.00  0.00     0.056 A 
HETATM   24  C1  UNL     1      26.547   4.883  49.053  1.00  0.00     0.209 A 
HETATM   25  O1  UNL     1      25.483   4.944  50.245  1.00  0.00    -0.332 OA
ENDBRANCH  20  22
ENDBRANCH   1  20
BRANCH   7  26
HETATM   26  N4  UNL     1      19.314   0.030  52.237  1.00  0.00    -0.248 N 
HETATM   27  C10 UNL     1      18.621   0.830  51.430  1.00  0.00     0.118 A 
HETATM   28  C11 UNL     1      17.283   0.481  51.385  1.00  0.00     0.021 A 
HETATM   29  C12 UNL     1      17.178  -0.618  52.237  1.00  0.00     0.028 A 
HETATM   30  C13 UNL     1      18.441  -0.878  52.752  1.00  0.00     0.032 A 
HETATM   31  C14 UNL     1      18.574  -2.027  53.702  1.00  0.00     0.070 C 
ENDBRANCH   7  26
BRANCH   4  32
HETATM   32  O2  UNL     1      22.402   2.892  47.848  1.00  0.00    -0.366 OA
HETATM   33  C8  UNL     1      21.789   3.548  46.761  1.00  0.00     0.209 C 
ENDBRANCH   4  32
TORSDOF 6
ENDMDL
MODEL 3
REMARK VINA RESULT:      -8.0      1.342      7.161
REMARK  6 active torsions:
REMARK  status: ('A' for Active; 'I' for Inactive)
REMARK    1  A    between atoms: C3_3  and  N1_5 
REMARK    2  A    between atoms: N1_5  and  C4_6 
REMARK    3  A    between atoms: C7_9  and  O2_10 
REMARK    4  A    between atoms: N3_14  and  N4_15 
REMARK    5  A    between atoms: C16_22  and  N5_23 
REMARK    6  A    between atoms: C19_26  and  N6_27 
ROOT
HETATM    1  C4  UNL     1      22.757   1.565  51.946  1.00  0.00     0.063 C 
HETATM    2  C5  UNL     1      21.608   2.206  51.777  1.00  0.00     0.063 C 
HETATM    3  C6  UNL     1      21.428   3.652  51.735  1.00  0.00     0.058 C 
HETATM    4  C7  UNL     1      20.202   4.095  51.969  1.00  0.00     0.163 C 
HETATM    5  N2  UNL     1      22.395   4.664  51.474  1.00  0.00    -0.338 N 
HETATM    6  C9  UNL     1      23.805   4.465  51.372  1.00  0.00     0.150 C 
HETATM    7  N3  UNL     1      24.500   5.374  50.769  1.00  0.00    -0.150 NA
HETATM    8  C15 UNL     1      24.573   3.321  51.886  1.00  0.00     0.084 C 
HETATM    9  C16 UNL     1      24.125   2.079  52.132  1.00  0.00     0.061 C 
HETATM   10  H10 UNL     1      22.077   5.662  51.338  1.00  0.00     0.167 HD
ENDROOT
BRANCH   9  11
HETATM   11  N5  UNL     1      25.156   1.250  52.620  1.00  0.00    -0.379 N 
HETATM   12  C17 UNL     1      26.240   0.859  51.731  1.00  0.00     0.125 C 
HETATM   13  C18 UNL     1      26.802  -0.454  52.236  1.00  0.00     0.055 C 
HETATM   14  C19 UNL     1      27.490  -0.332  53.553  1.00  0.00     0.225 C 
HETATM   15  C22 UNL     1      26.764   0.678  54.386  1.00  0.00     0.055 C 
HETATM   16  C23 UNL     1      25.290   0.699  53.981  1.00  0.00     0.125 C 
BRANCH  14  17
HETATM   17  N6  UNL     1      28.888  -0.141  53.424  1.00  0.00     0.084 N 
HETATM   18  C20 UNL     1      29.434   0.995  54.089  1.00  0.00     0.309 C 
HETATM   19  C21 UNL     1      29.691  -1.300  53.639  1.00  0.00     0.309 C 
ENDBRANCH  14  17
ENDBRANCH   9  11
BRANCH   1  20
HETATM   20  N1  UNL     1      22.726   0.140  51.958  1.00  0.00    -0.335 N 
HETATM   21  H4  UNL     1      23.261  -0.553  51.386  1.00  0.00     0.168 HD
BRANCH  20  22
HETATM   22  C3  UNL     1      21.844  -0.524  52.878  1.00  0.00     0.141 A 
HETATM   23  C2  UNL     1      22.296  -1.217  54.083  1.00  0.00     0.056 A 
HETATM   24  C1  UNL     1      21.051  -1.575  54.444  1.00  0.00     0.209 A 
HETATM   25  O1  UNL     1      20.632  -0.799  53.111  1.00  0.00    -0.332 OA
ENDBRANCH  20  22
ENDBRANCH   1  20
BRANCH   7  26
HETATM   26  N4  UNL     1      23.881   6.493  50.247  1.00  0.00    -0.248 N 
HETATM   27  C10 UNL     1      23.628   7.742  50.636  1.00  0.00     0.118 A 
HETATM   28  C11 UNL     1      22.945   8.454  49.666  1.00  0.00     0.021 A 
HETATM   29  C12 UNL     1      22.781   7.550  48.617  1.00  0.00     0.028 A 
HETATM   30  C13 UNL     1      23.364   6.348  48.996  1.00  0.00     0.032 A 
HETATM   31  C14 UNL     1      23.309   5.216  48.019  1.00  0.00     0.070 C 
ENDBRANCH   7  26
BRANCH   4  32
HETATM   32  O2  UNL     1      19.178   3.189  52.236  1.00  0.00    -0.366 OA
HETATM   33  C8  UNL     1      17.975   3.236  51.501  1.00  0.00     0.209 C 
ENDBRANCH   4  32
TORSDOF 6
ENDMDL
MODEL 4
REMARK VINA RESULT:      -7.9      1.777      2.330
REMARK  6 active torsions:
REMARK  status: ('A' for Active; 'I' for Inactive)
REMARK    1  A    between atoms: C3_3  and  N1_5 
REMARK    2  A    between atoms: N1_5  and  C4_6 
REMARK    3  A    between atoms: C7_9  and  O2_10 
REMARK    4  A    between atoms: N3_14  and  N4_15 
REMARK    5  A    between atoms: C16_22  and  N5_23 
REMARK    6  A    between atoms: C19_26  and  N6_27 
ROOT
HETATM    1  C4  UNL     1      23.297   4.983  51.484  1.00  0.00     0.063 C 
HETATM    2  C5  UNL     1      22.757   3.934  52.089  1.00  0.00     0.063 C 
HETATM    3  C6  UNL     1      23.270   2.568  52.062  1.00  0.00     0.058 C 
HETATM    4  C7  UNL     1      22.403   1.614  52.365  1.00  0.00     0.163 C 
HETATM    5  N2  UNL     1      24.583   2.114  51.753  1.00  0.00    -0.338 N 
HETATM    6  C9  UNL     1      25.640   2.915  51.226  1.00  0.00     0.150 C 
HETATM    7  N3  UNL     1      26.850   2.476  51.354  1.00  0.00    -0.150 NA
HETATM    8  C15 UNL     1      25.508   4.208  50.538  1.00  0.00     0.084 C 
HETATM    9  C16 UNL     1      24.505   5.093  50.648  1.00  0.00     0.061 C 
HETATM   10  H10 UNL     1      24.832   1.101  51.917  1.00  0.00     0.167 HD
ENDROOT
BRANCH   9  11
HETATM   11  N5  UNL     1      24.727   6.222  49.832  1.00  0.00    -0.379 N 
HETATM   12  C17 UNL     1      25.503   7.338  50.352  1.00  0.00     0.125 C 
HETATM   13  C18 UNL     1      25.067   8.588  49.615  1.00  0.00     0.055 C 
HETATM   14  C19 UNL     1      25.437   8.580  48.171  1.00  0.00     0.225 C 
HETATM   15  C22 UNL     1      25.320   7.181  47.650  1.00  0.00     0.055 C 
HETATM   16  C23 UNL     1      24.254   6.433  48.451  1.00  0.00     0.125 C 
BRANCH  14  17
HETATM   17  N6  UNL     1      26.667   9.236  47.918  1.00  0.00     0.084 N 
HETATM   18  C20 UNL     1      26.988  10.328  48.775  1.00  0.00     0.309 C 
HETATM   19  C21 UNL     1      27.793   8.383  47.725  1.00  0.00     0.309 C 
ENDBRANCH  14  17
ENDBRANCH   9  11
BRANCH   1  20
HETATM   20  N1  UNL     1      22.644   6.242  51.630  1.00  0.00    -0.335 N 
HETATM   21  H4  UNL     1      22.855   7.043  52.268  1.00  0.00     0.168 HD
BRANCH  20  22
HETATM   22  C3  UNL     1      21.504   6.529  50.802  1.00  0.00     0.141 A 
HETATM   23  C2  UNL     1      21.204   7.852  50.261  1.00  0.00     0.056 A 
HETATM   24  C1  UNL     1      20.091   7.435  49.633  1.00  0.00     0.209 A 
HETATM   25  O1  UNL     1      20.484   6.017  50.259  1.00  0.00    -0.332 OA
ENDBRANCH  20  22
ENDBRANCH   1  20
BRANCH   7  26
HETATM   26  N4  UNL     1      27.091   1.270  51.984  1.00  0.00    -0.248 N 
HETATM   27  C10 UNL     1      26.719  -0.001  51.839  1.00  0.00     0.118 A 
HETATM   28  C11 UNL     1      27.293  -0.816  52.798  1.00  0.00     0.021 A 
HETATM   29  C12 UNL     1      28.070   0.044  53.572  1.00  0.00     0.028 A 
HETATM   30  C13 UNL     1      27.930   1.325  53.054  1.00  0.00     0.032 A 
HETATM   31  C14 UNL     1      28.680   2.429  53.732  1.00  0.00     0.070 C 
ENDBRANCH   7  26
BRANCH   4  32
HETATM   32  O2  UNL     1      21.088   1.948  52.684  1.00  0.00    -0.366 OA
HETATM   33  C8  UNL     1      20.096   0.948  52.760  1.00  0.00     0.209 C 
ENDBRANCH   4  32
TORSDOF 6
ENDMDL
MODEL 5
REMARK VINA RESULT:      -7.8      2.642      6.525
REMARK  6 active torsions:
REMARK  status: ('A' for Active; 'I' for Inactive)
REMARK    1  A    between atoms: C3_3  and  N1_5 
REMARK    2  A    between atoms: N1_5  and  C4_6 
REMARK    3  A    between atoms: C7_9  and  O2_10 
REMARK    4  A    between atoms: N3_14  and  N4_15 
REMARK    5  A    between atoms: C16_22  and  N5_23 
REMARK    6  A    between atoms: C19_26  and  N6_27 
ROOT
HETATM    1  C4  UNL     1      23.625   1.783  52.394  1.00  0.00     0.063 C 
HETATM    2  C5  UNL     1      24.926   1.687  52.630  1.00  0.00     0.063 C 
HETATM    3  C6  UNL     1      25.996   2.024  51.698  1.00  0.00     0.058 C 
HETATM    4  C7  UNL     1      27.181   1.488  51.950  1.00  0.00     0.163 C 
HETATM    5  N2  UNL     1      25.945   2.857  50.544  1.00  0.00    -0.338 N 
HETATM    6  C9  UNL     1      24.762   3.400  49.959  1.00  0.00     0.150 C 
HETATM    7  N3  UNL     1      24.891   4.419  49.173  1.00  0.00    -0.150 NA
HETATM    8  C15 UNL     1      23.384   2.924  50.152  1.00  0.00     0.084 C 
HETATM    9  C16 UNL     1      22.897   2.231  51.194  1.00  0.00     0.061 C 
HETATM   10  H10 UNL     1      26.843   3.117  50.053  1.00  0.00     0.167 HD
ENDROOT
BRANCH   9  11
HETATM   11  N5  UNL     1      21.525   1.950  51.025  1.00  0.00    -0.379 N 
HETATM   12  C17 UNL     1      21.124   0.797  50.233  1.00  0.00     0.125 C 
HETATM   13  C18 UNL     1      19.739   1.072  49.684  1.00  0.00     0.055 C 
HETATM   14  C19 UNL     1      18.687   1.123  50.738  1.00  0.00     0.225 C 
HETATM   15  C22 UNL     1      19.268   1.740  51.973  1.00  0.00     0.055 C 
HETATM   16  C23 UNL     1      20.384   2.707  51.574  1.00  0.00     0.125 C 
BRANCH  14  17
HETATM   17  N6  UNL     1      18.029  -0.119  50.917  1.00  0.00     0.084 N 
HETATM   18  C20 UNL     1      18.029  -0.648  52.240  1.00  0.00     0.309 C 
HETATM   19  C21 UNL     1      16.740  -0.227  50.317  1.00  0.00     0.309 C 
ENDBRANCH  14  17
ENDBRANCH   9  11
BRANCH   1  20
HETATM   20  N1  UNL     1      22.731   1.402  53.438  1.00  0.00    -0.335 N 
HETATM   21  H4  UNL     1      22.221   1.988  54.137  1.00  0.00     0.168 HD
BRANCH  20  22
HETATM   22  C3  UNL     1      22.435   0.008  53.620  1.00  0.00     0.141 A 
HETATM   23  C2  UNL     1      21.475  -0.500  54.597  1.00  0.00     0.056 A 
HETATM   24  C1  UNL     1      21.679  -1.784  54.255  1.00  0.00     0.209 A 
HETATM   25  O1  UNL     1      22.713  -1.155  53.210  1.00  0.00    -0.332 OA
ENDBRANCH  20  22
ENDBRANCH   1  20
BRANCH   7  26
HETATM   26  N4  UNL     1      26.142   4.950  48.919  1.00  0.00    -0.248 N 
HETATM   27  C10 UNL     1      27.394   4.504  48.830  1.00  0.00     0.118 A 
HETATM   28  C11 UNL     1      28.282   5.524  48.543  1.00  0.00     0.021 A 
HETATM   29  C12 UNL     1      27.489   6.667  48.454  1.00  0.00     0.028 A 
HETATM   30  C13 UNL     1      26.174   6.291  48.690  1.00  0.00     0.032 A 
HETATM   31  C14 UNL     1      25.131   7.364  48.647  1.00  0.00     0.070 C 
ENDBRANCH   7  26
BRANCH   4  32
HETATM   32  O2  UNL     1      27.343   0.656  53.057  1.00  0.00    -0.366 OA
HETATM   33  C8  UNL     1      28.383   0.891  53.979  1.00  0.00     0.209 C 
ENDBRANCH   4  32
TORSDOF 6
ENDMDL
MODEL 6
REMARK VINA RESULT:      -7.6      2.980      5.509
REMARK  6 active torsions:
REMARK  status: ('A' for Active; 'I' for Inactive)
REMARK    1  A    between atoms: C3_3  and  N1_5 
REMARK    2  A    between atoms: N1_5  and  C4_6 
REMARK    3  A    between atoms: C7_9  and  O2_10 
REMARK    4  A    between atoms: N3_14  and  N4_15 
REMARK    5  A    between atoms: C16_22  and  N5_23 
REMARK    6  A    between atoms: C19_26  and  N6_27 
ROOT
HETATM    1  C4  UNL     1      23.496   2.460  49.719  1.00  0.00     0.063 C 
HETATM    2  C5  UNL     1      24.715   2.910  49.456  1.00  0.00     0.063 C 
HETATM    3  C6  UNL     1      25.830   2.970  50.395  1.00  0.00     0.058 C 
HETATM    4  C7  UNL     1      26.811   3.805  50.084  1.00  0.00     0.163 C 
HETATM    5  N2  UNL     1      26.014   2.250  51.609  1.00  0.00    -0.338 N 
HETATM    6  C9  UNL     1      25.035   1.434  52.252  1.00  0.00     0.150 C 
HETATM    7  N3  UNL     1      25.448   0.561  53.112  1.00  0.00    -0.150 NA
HETATM    8  C15 UNL     1      23.579   1.475  52.044  1.00  0.00     0.084 C 
HETATM    9  C16 UNL     1      22.920   1.914  50.960  1.00  0.00     0.061 C 
HETATM   10  H10 UNL     1      26.945   2.300  52.105  1.00  0.00     0.167 HD
ENDROOT
BRANCH   9  11
HETATM   11  N5  UNL     1      21.525   1.798  51.128  1.00  0.00    -0.379 N 
HETATM   12  C17 UNL     1      20.744   2.981  51.458  1.00  0.00     0.125 C 
HETATM   13  C18 UNL     1      19.497   2.524  52.187  1.00  0.00     0.055 C 
HETATM   14  C19 UNL     1      18.561   1.748  51.324  1.00  0.00     0.225 C 
HETATM   15  C22 UNL     1      19.361   0.916  50.369  1.00  0.00     0.055 C 
HETATM   16  C23 UNL     1      20.709   0.575  51.006  1.00  0.00     0.125 C 
BRANCH  14  17
HETATM   17  N6  UNL     1      17.550   2.555  50.748  1.00  0.00     0.084 N 
HETATM   18  C20 UNL     1      17.145   3.694  51.503  1.00  0.00     0.309 C 
HETATM   19  C21 UNL     1      17.734   2.886  49.373  1.00  0.00     0.309 C 
ENDBRANCH  14  17
ENDBRANCH   9  11
BRANCH   1  20
HETATM   20  N1  UNL     1      22.539   2.483  48.662  1.00  0.00    -0.335 N 
HETATM   21  H4  UNL     1      21.952   1.714  48.265  1.00  0.00     0.168 HD
BRANCH  20  22
HETATM   22  C3  UNL     1      22.285   3.726  47.987  1.00  0.00     0.141 A 
HETATM   23  C2  UNL     1      21.928   3.827  46.574  1.00  0.00     0.056 A 
HETATM   24  C1  UNL     1      21.843   5.168  46.605  1.00  0.00     0.209 A 
HETATM   25  O1  UNL     1      22.237   4.980  48.143  1.00  0.00    -0.332 OA
ENDBRANCH  20  22
ENDBRANCH   1  20
BRANCH   7  26
HETATM   26  N4  UNL     1      26.797   0.437  53.386  1.00  0.00    -0.248 N 
HETATM   27  C10 UNL     1      27.754   1.177  53.941  1.00  0.00     0.118 A 
HETATM   28  C11 UNL     1      28.971   0.520  53.950  1.00  0.00     0.021 A 
HETATM   29  C12 UNL     1      28.710  -0.712  53.352  1.00  0.00     0.028 A 
HETATM   30  C13 UNL     1      27.364  -0.742  53.011  1.00  0.00     0.032 A 
HETATM   31  C14 UNL     1      26.849  -1.981  52.348  1.00  0.00     0.070 C 
ENDBRANCH   7  26
BRANCH   4  32
HETATM   32  O2  UNL     1      26.733   4.560  48.915  1.00  0.00    -0.366 OA
HETATM   33  C8  UNL     1      27.833   5.334  48.492  1.00  0.00     0.209 C 
ENDBRANCH   4  32
TORSDOF 6
ENDMDL
MODEL 7
REMARK VINA RESULT:      -7.4      2.774      6.165
REMARK  6 active torsions:
REMARK  status: ('A' for Active; 'I' for Inactive)
REMARK    1  A    between atoms: C3_3  and  N1_5 
REMARK    2  A    between atoms: N1_5  and  C4_6 
REMARK    3  A    between atoms: C7_9  and  O2_10 
REMARK    4  A    between atoms: N3_14  and  N4_15 
REMARK    5  A    between atoms: C16_22  and  N5_23 
REMARK    6  A    between atoms: C19_26  and  N6_27 
ROOT
HETATM    1  C4  UNL     1      24.358   0.927  52.256  1.00  0.00     0.063 C 
HETATM    2  C5  UNL     1      24.268  -0.041  53.157  1.00  0.00     0.063 C 
HETATM    3  C6  UNL     1      23.066  -0.428  53.887  1.00  0.00     0.058 C 
HETATM    4  C7  UNL     1      23.258  -1.112  55.006  1.00  0.00     0.163 C 
HETATM    5  N2  UNL     1      21.704  -0.171  53.564  1.00  0.00    -0.338 N 
HETATM    6  C9  UNL     1      21.242   0.689  52.523  1.00  0.00     0.150 C 
HETATM    7  N3  UNL     1      20.028   0.532  52.106  1.00  0.00    -0.150 NA
HETATM    8  C15 UNL     1      22.004   1.756  51.857  1.00  0.00     0.084 C 
HETATM    9  C16 UNL     1      23.338   1.859  51.743  1.00  0.00     0.061 C 
HETATM   10  H10 UNL     1      20.941  -0.642  54.122  1.00  0.00     0.167 HD
ENDROOT
BRANCH   9  11
HETATM   11  N5  UNL     1      23.703   3.023  51.036  1.00  0.00    -0.379 N 
HETATM   12  C17 UNL     1      24.155   4.194  51.772  1.00  0.00     0.125 C 
HETATM   13  C18 UNL     1      23.864   5.415  50.923  1.00  0.00     0.055 C 
HETATM   14  C19 UNL     1      24.684   5.477  49.680  1.00  0.00     0.225 C 
HETATM   15  C22 UNL     1      24.880   4.087  49.160  1.00  0.00     0.055 C 
HETATM   16  C23 UNL     1      23.688   3.222  49.574  1.00  0.00     0.125 C 
BRANCH  14  17
HETATM   17  N6  UNL     1      25.859   6.253  49.837  1.00  0.00     0.084 N 
HETATM   18  C20 UNL     1      26.829   6.144  48.800  1.00  0.00     0.309 C 
HETATM   19  C21 UNL     1      25.655   7.613  50.214  1.00  0.00     0.309 C 
ENDBRANCH  14  17
ENDBRANCH   9  11
BRANCH   1  20
HETATM   20  N1  UNL     1      25.628   1.153  51.649  1.00  0.00    -0.335 N 
HETATM   21  H4  UNL     1      25.869   1.421  50.667  1.00  0.00     0.168 HD
BRANCH  20  22
HETATM   22  C3  UNL     1      26.812   1.010  52.450  1.00  0.00     0.141 A 
HETATM   23  C2  UNL     1      27.441   2.110  53.177  1.00  0.00     0.056 A 
HETATM   24  C1  UNL     1      28.420   1.333  53.672  1.00  0.00     0.209 A 
HETATM   25  O1  UNL     1      27.677   0.180  52.851  1.00  0.00    -0.332 OA
ENDBRANCH  20  22
ENDBRANCH   1  20
BRANCH   7  26
HETATM   26  N4  UNL     1      19.220  -0.441  52.662  1.00  0.00    -0.248 N 
HETATM   27  C10 UNL     1      19.285  -1.308  53.671  1.00  0.00     0.118 A 
HETATM   28  C11 UNL     1      18.137  -2.072  53.768  1.00  0.00     0.021 A 
HETATM   29  C12 UNL     1      17.325  -1.618  52.729  1.00  0.00     0.028 A 
HETATM   30  C13 UNL     1      18.012  -0.614  52.060  1.00  0.00     0.032 A 
HETATM   31  C14 UNL     1      17.329   0.029  50.894  1.00  0.00     0.070 C 
ENDBRANCH   7  26
BRANCH   4  32
HETATM   32  O2  UNL     1      24.554  -1.419  55.417  1.00  0.00    -0.366 OA
HETATM   33  C8  UNL     1      25.035  -0.961  56.660  1.00  0.00     0.209 C 
ENDBRANCH   4  32
TORSDOF 6
ENDMDL
MODEL 8
REMARK VINA RESULT:      -7.3      1.608      7.343
REMARK  6 active torsions:
REMARK  status: ('A' for Active; 'I' for Inactive)
REMARK    1  A    between atoms: C3_3  and  N1_5 
REMARK    2  A    between atoms: N1_5  and  C4_6 
REMARK    3  A    between atoms: C7_9  and  O2_10 
REMARK    4  A    between atoms: N3_14  and  N4_15 
REMARK    5  A    between atoms: C16_22  and  N5_23 
REMARK    6  A    between atoms: C19_26  and  N6_27 
ROOT
HETATM    1  C4  UNL     1      22.439   2.206  51.484  1.00  0.00     0.063 C 
HETATM    2  C5  UNL     1      21.162   2.543  51.368  1.00  0.00     0.063 C 
HETATM    3  C6  UNL     1      20.633   3.900  51.295  1.00  0.00     0.058 C 
HETATM    4  C7  UNL     1      19.350   4.043  51.591  1.00  0.00     0.163 C 
HETATM    5  N2  UNL     1      21.309   5.103  50.948  1.00  0.00    -0.338 N 
HETATM    6  C9  UNL     1      22.718   5.247  50.767  1.00  0.00     0.150 C 
HETATM    7  N3  UNL     1      23.138   6.270  50.097  1.00  0.00    -0.150 NA
HETATM    8  C15 UNL     1      23.767   4.345  51.266  1.00  0.00     0.084 C 
HETATM    9  C16 UNL     1      23.648   3.044  51.574  1.00  0.00     0.061 C 
HETATM   10  H10 UNL     1      20.751   5.988  50.804  1.00  0.00     0.167 HD
ENDROOT
BRANCH   9  11
HETATM   11  N5  UNL     1      24.874   2.510  52.022  1.00  0.00    -0.379 N 
HETATM   12  C17 UNL     1      25.022   2.136  53.421  1.00  0.00     0.125 C 
HETATM   13  C18 UNL     1      26.494   2.221  53.770  1.00  0.00     0.055 C 
HETATM   14  C19 UNL     1      27.325   1.200  53.072  1.00  0.00     0.225 C 
HETATM   15  C22 UNL     1      26.771   0.983  51.697  1.00  0.00     0.055 C 
HETATM   16  C23 UNL     1      26.089   2.266  51.221  1.00  0.00     0.125 C 
BRANCH  14  17
HETATM   17  N6  UNL     1      27.528   0.034  53.850  1.00  0.00     0.084 N 
HETATM   18  C20 UNL     1      27.502  -1.206  53.148  1.00  0.00     0.309 C 
HETATM   19  C21 UNL     1      28.619   0.086  54.767  1.00  0.00     0.309 C 
ENDBRANCH  14  17
ENDBRANCH   9  11
BRANCH   1  20
HETATM   20  N1  UNL     1      22.758   0.818  51.539  1.00  0.00    -0.335 N 
HETATM   21  H4  UNL     1      23.422   0.254  50.962  1.00  0.00     0.168 HD
BRANCH  20  22
HETATM   22  C3  UNL     1      22.101  -0.003  52.519  1.00  0.00     0.141 A 
HETATM   23  C2  UNL     1      22.808  -0.833  53.492  1.00  0.00     0.056 A 
HETATM   24  C1  UNL     1      21.675  -1.291  54.050  1.00  0.00     0.209 A 
HETATM   25  O1  UNL     1      20.970  -0.360  52.958  1.00  0.00    -0.332 OA
ENDBRANCH  20  22
ENDBRANCH   1  20
BRANCH   7  26
HETATM   26  N4  UNL     1      22.239   7.184  49.582  1.00  0.00    -0.248 N 
HETATM   27  C10 UNL     1      21.449   8.150  50.050  1.00  0.00     0.118 A 
HETATM   28  C11 UNL     1      20.736   8.765  49.038  1.00  0.00     0.021 A 
HETATM   29  C12 UNL     1      21.138   8.109  47.875  1.00  0.00     0.028 A 
HETATM   30  C13 UNL     1      22.064   7.138  48.234  1.00  0.00     0.032 A 
HETATM   31  C14 UNL     1      22.641   6.297  47.138  1.00  0.00     0.070 C 
ENDBRANCH   7  26
BRANCH   4  32
HETATM   32  O2  UNL     1      18.592   2.928  51.944  1.00  0.00    -0.366 OA
HETATM   33  C8  UNL     1      17.236   2.839  51.569  1.00  0.00     0.209 C 
ENDBRANCH   4  32
TORSDOF 6
ENDMDL
MODEL 9
REMARK VINA RESULT:      -7.2      2.010      7.155
REMARK  6 active torsions:
REMARK  status: ('A' for Active; 'I' for Inactive)
REMARK    1  A    between atoms: C3_3  and  N1_5 
REMARK    2  A    between atoms: N1_5  and  C4_6 
REMARK    3  A    between atoms: C7_9  and  O2_10 
REMARK    4  A    between atoms: N3_14  and  N4_15 
REMARK    5  A    between atoms: C16_22  and  N5_23 
REMARK    6  A    between atoms: C19_26  and  N6_27 
ROOT
HETATM    1  C4  UNL     1      23.363   3.271  50.011  1.00  0.00     0.063 C 
HETATM    2  C5  UNL     1      22.488   4.035  49.371  1.00  0.00     0.063 C 
HETATM    3  C6  UNL     1      22.631   5.461  49.098  1.00  0.00     0.058 C 
HETATM    4  C7  UNL     1      21.513   6.118  48.828  1.00  0.00     0.163 C 
HETATM    5  N2  UNL     1      23.814   6.252  49.081  1.00  0.00    -0.338 N 
HETATM    6  C9  UNL     1      25.108   5.828  49.510  1.00  0.00     0.150 C 
HETATM    7  N3  UNL     1      26.131   6.498  49.091  1.00  0.00    -0.150 NA
HETATM    8  C15 UNL     1      25.415   4.694  50.394  1.00  0.00     0.084 C 
HETATM    9  C16 UNL     1      24.669   3.599  50.609  1.00  0.00     0.061 C 
HETATM   10  H10 UNL     1      23.768   7.245  48.725  1.00  0.00     0.167 HD
ENDROOT
BRANCH   9  11
HETATM   11  N5  UNL     1      25.291   2.726  51.525  1.00  0.00    -0.379 N 
HETATM   12  C17 UNL     1      26.484   1.997  51.120  1.00  0.00     0.125 C 
HETATM   13  C18 UNL     1      26.562   0.736  51.957  1.00  0.00     0.055 C 
HETATM   14  C19 UNL     1      26.819   1.002  53.401  1.00  0.00     0.225 C 
HETATM   15  C22 UNL     1      26.109   2.261  53.794  1.00  0.00     0.055 C 
HETATM   16  C23 UNL     1      24.874   2.439  52.911  1.00  0.00     0.125 C 
BRANCH  14  17
HETATM   17  N6  UNL     1      28.194   0.935  53.734  1.00  0.00     0.084 N 
HETATM   18  C20 UNL     1      28.874   2.180  53.859  1.00  0.00     0.309 C 
HETATM   19  C21 UNL     1      28.527   0.055  54.806  1.00  0.00     0.309 C 
ENDBRANCH  14  17
ENDBRANCH   9  11
BRANCH   1  20
HETATM   20  N1  UNL     1      23.040   1.892  50.179  1.00  0.00    -0.335 N 
HETATM   21  H4  UNL     1      23.491   1.039  49.777  1.00  0.00     0.168 HD
BRANCH  20  22
HETATM   22  C3  UNL     1      21.931   1.540  51.022  1.00  0.00     0.141 A 
HETATM   23  C2  UNL     1      21.041   0.409  50.767  1.00  0.00     0.056 A 
HETATM   24  C1  UNL     1      20.292   0.646  51.858  1.00  0.00     0.209 A 
HETATM   25  O1  UNL     1      21.305   1.864  52.072  1.00  0.00    -0.332 OA
ENDBRANCH  20  22
ENDBRANCH   1  20
BRANCH   7  26
HETATM   26  N4  UNL     1      25.959   7.585  48.256  1.00  0.00    -0.248 N 
HETATM   27  C10 UNL     1      25.518   7.808  47.019  1.00  0.00     0.118 A 
HETATM   28  C11 UNL     1      25.573   9.150  46.688  1.00  0.00     0.021 A 
HETATM   29  C12 UNL     1      26.088   9.771  47.824  1.00  0.00     0.028 A 
HETATM   30  C13 UNL     1      26.319   8.789  48.778  1.00  0.00     0.032 A 
HETATM   31  C14 UNL     1      26.879   9.225  50.096  1.00  0.00     0.070 C 
ENDBRANCH   7  26
BRANCH   4  32
HETATM   32  O2  UNL     1      20.296   5.439  48.818  1.00  0.00    -0.366 OA
HETATM   33  C8  UNL     1      19.189   5.949  49.526  1.00  0.00     0.209 C 
ENDBRANCH   4  32
TORSDOF 6
ENDMDL
