MODEL 1
REMARK VINA RESULT:      -7.7      0.000      0.000
REMARK  5 active torsions:
REMARK  status: ('A' for Active; 'I' for Inactive)
REMARK    1  A    between atoms: C4_5  and  C5_6 
REMARK    2  A    between atoms: C5_6  and  N1_7 
REMARK    3  A    between atoms: N1_7  and  C6_8 
REMARK    4  A    between atoms: C6_8  and  N2_9 
REMARK    5  A    between atoms: C8_11  and  C9_12 
ROOT
HETATM    1  C1  UNL     1      30.156  -0.893  53.818  1.00  0.00     0.018 C 
HETATM    2  C2  UNL     1      29.070  -0.437  53.563  1.00  0.00    -0.070 C 
HETATM    3  C3  UNL     1      27.785   0.129  53.267  1.00  0.00     0.061 C 
HETATM    4 BR1  UNL     1      26.588  -0.883  52.213  1.00  0.00    -0.042 Br
HETATM    5  C4  UNL     1      27.459   1.327  53.726  1.00  0.00     0.031 C 
ENDROOT
BRANCH   5   6
HETATM    6  C5  UNL     1      26.268   2.211  53.634  1.00  0.00     0.305 C 
BRANCH   6   7
HETATM    7  N1  UNL     1      26.132   2.868  52.358  1.00  0.00     0.162 N 
HETATM    8  H5  UNL     1      26.600   2.301  51.623  1.00  0.00     0.322 HD
BRANCH   7   9
HETATM    9  C6  UNL     1      24.713   2.944  52.066  1.00  0.00     0.552 C 
HETATM   10  C7  UNL     1      23.986   2.124  53.074  1.00  0.00     0.091 C 
HETATM   11  C8  UNL     1      23.083   1.354  52.518  1.00  0.00    -0.017 C 
HETATM   12  C16 UNL     1      23.123   1.613  51.057  1.00  0.00     0.315 C 
HETATM   13  N3  UNL     1      24.391   2.256  50.821  1.00  0.00     0.163 N 
HETATM   14  H18 UNL     1      24.207   2.987  50.088  1.00  0.00     0.322 HD
BRANCH   9  15
HETATM   15  N2  UNL     1      24.260   4.297  52.066  1.00  0.00     0.154 N 
HETATM   16  H6  UNL     1      23.981   4.663  52.998  1.00  0.00     0.319 HD
HETATM   17  H7  UNL     1      23.586   4.477  51.308  1.00  0.00     0.319 HD
ENDBRANCH   9  15
BRANCH  11  18
HETATM   18  C9  UNL     1      22.144   0.396  53.072  1.00  0.00    -0.022 A 
HETATM   19  C10 UNL     1      20.802   0.462  52.685  1.00  0.00     0.012 A 
HETATM   20  C11 UNL     1      19.807  -0.372  53.121  1.00  0.00     0.001 A 
HETATM   21  C12 UNL     1      20.090  -1.375  54.010  1.00  0.00     0.001 A 
HETATM   22  C13 UNL     1      21.390  -1.487  54.424  1.00  0.00     0.007 A 
HETATM   23  C14 UNL     1      22.356  -0.626  53.959  1.00  0.00    -0.051 A 
HETATM   24  C15 UNL     1      23.718  -0.843  54.467  1.00  0.00     0.049 C 
ENDBRANCH  11  18
ENDBRANCH   7   9
ENDBRANCH   6   7
ENDBRANCH   5   6
TORSDOF 5
ENDMDL
MODEL 2
REMARK VINA RESULT:      -7.6      1.399      6.099
REMARK  5 active torsions:
REMARK  status: ('A' for Active; 'I' for Inactive)
REMARK    1  A    between atoms: C4_5  and  C5_6 
REMARK    2  A    between atoms: C5_6  and  N1_7 
REMARK    3  A    between atoms: N1_7  and  C6_8 
REMARK    4  A    between atoms: C6_8  and  N2_9 
REMARK    5  A    between atoms: C8_11  and  C9_12 
ROOT
HETATM    1  C1  UNL     1      19.942  -0.878  53.512  1.00  0.00     0.018 C 
HETATM    2  C2  UNL     1      21.001  -0.312  53.400  1.00  0.00    -0.070 C 
HETATM    3  C3  UNL     1      22.249   0.383  53.262  1.00  0.00     0.061 C 
HETATM    4 BR1  UNL     1      23.819  -0.479  53.858  1.00  0.00    -0.042 Br
HETATM    5  C4  UNL     1      22.285   1.596  52.730  1.00  0.00     0.031 C 
ENDROOT
BRANCH   5   6
HETATM    6  C5  UNL     1      23.345   2.592  52.432  1.00  0.00     0.305 C 
BRANCH   6   7
HETATM    7  N1  UNL     1      24.246   2.182  51.383  1.00  0.00     0.162 N 
HETATM    8  H5  UNL     1      24.046   2.725  50.520  1.00  0.00     0.322 HD
BRANCH   7   9
HETATM    9  C6  UNL     1      25.592   2.485  51.834  1.00  0.00     0.552 C 
HETATM   10  C7  UNL     1      26.424   1.262  51.669  1.00  0.00     0.091 C 
HETATM   11  C8  UNL     1      27.152   1.019  52.731  1.00  0.00    -0.017 C 
HETATM   12  C16 UNL     1      26.870   2.096  53.713  1.00  0.00     0.315 C 
HETATM   13  N3  UNL     1      25.632   2.691  53.278  1.00  0.00     0.163 N 
HETATM   14  H18 UNL     1      25.736   3.723  53.452  1.00  0.00     0.322 HD
BRANCH   9  15
HETATM   15  N2  UNL     1      26.137   3.591  51.117  1.00  0.00     0.154 N 
HETATM   16  H6  UNL     1      27.176   3.617  51.080  1.00  0.00     0.319 HD
HETATM   17  H7  UNL     1      25.689   4.481  51.382  1.00  0.00     0.319 HD
ENDBRANCH   9  15
BRANCH  11  18
HETATM   18  C9  UNL     1      28.101  -0.034  53.043  1.00  0.00    -0.022 A 
HETATM   19  C10 UNL     1      29.354   0.314  53.558  1.00  0.00     0.012 A 
HETATM   20  C11 UNL     1      30.346  -0.567  53.899  1.00  0.00     0.001 A 
HETATM   21  C12 UNL     1      30.152  -1.913  53.747  1.00  0.00     0.001 A 
HETATM   22  C13 UNL     1      28.942  -2.313  53.246  1.00  0.00     0.007 A 
HETATM   23  C14 UNL     1      27.975  -1.392  52.917  1.00  0.00    -0.051 A 
HETATM   24  C15 UNL     1      26.714  -1.934  52.393  1.00  0.00     0.049 C 
ENDBRANCH  11  18
ENDBRANCH   7   9
ENDBRANCH   6   7
ENDBRANCH   5   6
TORSDOF 5
ENDMDL
MODEL 3
REMARK VINA RESULT:      -7.4      3.403      4.462
REMARK  5 active torsions:
REMARK  status: ('A' for Active; 'I' for Inactive)
REMARK    1  A    between atoms: C4_5  and  C5_6 
REMARK    2  A    between atoms: C5_6  and  N1_7 
REMARK    3  A    between atoms: N1_7  and  C6_8 
REMARK    4  A    between atoms: C6_8  and  N2_9 
REMARK    5  A    between atoms: C8_11  and  C9_12 
ROOT
HETATM    1  C1  UNL     1      29.032   6.842  47.699  1.00  0.00     0.018 C 
HETATM    2  C2  UNL     1      28.010   6.368  48.126  1.00  0.00    -0.070 C 
HETATM    3  C3  UNL     1      26.806   5.786  48.647  1.00  0.00     0.061 C 
HETATM    4 BR1  UNL     1      25.191   6.740  48.433  1.00  0.00    -0.042 Br
HETATM    5  C4  UNL     1      26.840   4.612  49.259  1.00  0.00     0.031 C 
ENDROOT
BRANCH   5   6
HETATM    6  C5  UNL     1      25.840   3.723  49.904  1.00  0.00     0.305 C 
BRANCH   6   7
HETATM    7  N1  UNL     1      26.384   2.459  50.337  1.00  0.00     0.162 N 
HETATM    8  H5  UNL     1      27.410   2.448  50.174  1.00  0.00     0.322 HD
BRANCH   7   9
HETATM    9  C6  UNL     1      26.127   2.350  51.762  1.00  0.00     0.552 C 
HETATM   10  C7  UNL     1      25.380   1.086  52.003  1.00  0.00     0.091 C 
HETATM   11  C8  UNL     1      24.360   1.267  52.806  1.00  0.00    -0.017 C 
HETATM   12  C16 UNL     1      24.351   2.701  53.188  1.00  0.00     0.315 C 
HETATM   13  N3  UNL     1      25.174   3.360  52.206  1.00  0.00     0.163 N 
HETATM   14  H18 UNL     1      25.709   4.098  52.732  1.00  0.00     0.322 HD
BRANCH   9  15
HETATM   15  N2  UNL     1      27.343   2.391  52.507  1.00  0.00     0.154 N 
HETATM   16  H6  UNL     1      27.270   2.859  53.433  1.00  0.00     0.319 HD
HETATM   17  H7  UNL     1      28.140   2.694  51.928  1.00  0.00     0.319 HD
ENDBRANCH   9  15
BRANCH  11  18
HETATM   18  C9  UNL     1      23.355   0.359  53.327  1.00  0.00    -0.022 A 
HETATM   19  C10 UNL     1      22.043   0.456  52.852  1.00  0.00     0.012 A 
HETATM   20  C11 UNL     1      20.994  -0.331  53.249  1.00  0.00     0.001 A 
HETATM   21  C12 UNL     1      21.185  -1.312  54.184  1.00  0.00     0.001 A 
HETATM   22  C13 UNL     1      22.451  -1.453  54.685  1.00  0.00     0.007 A 
HETATM   23  C14 UNL     1      23.474  -0.639  54.257  1.00  0.00    -0.051 A 
HETATM   24  C15 UNL     1      24.792  -0.884  54.859  1.00  0.00     0.049 C 
ENDBRANCH  11  18
ENDBRANCH   7   9
ENDBRANCH   6   7
ENDBRANCH   5   6
TORSDOF 5
ENDMDL
MODEL 4
REMARK VINA RESULT:      -7.4      3.480      4.247
REMARK  5 active torsions:
REMARK  status: ('A' for Active; 'I' for Inactive)
REMARK    1  A    between atoms: C4_5  and  C5_6 
REMARK    2  A    between atoms: C5_6  and  N1_7 
REMARK    3  A    between atoms: N1_7  and  C6_8 
REMARK    4  A    between atoms: C6_8  and  N2_9 
REMARK    5  A    between atoms: C8_11  and  C9_12 
ROOT
HETATM    1  C1  UNL     1      29.798   6.315  47.776  1.00  0.00     0.018 C 
HETATM    2  C2  UNL     1      28.697   5.982  48.135  1.00  0.00    -0.070 C 
HETATM    3  C3  UNL     1      27.395   5.565  48.574  1.00  0.00     0.061 C 
HETATM    4 BR1  UNL     1      25.967   6.790  48.417  1.00  0.00    -0.042 Br
HETATM    5  C4  UNL     1      27.214   4.352  49.075  1.00  0.00     0.031 C 
ENDROOT
BRANCH   5   6
HETATM    6  C5  UNL     1      26.059   3.589  49.614  1.00  0.00     0.305 C 
BRANCH   6   7
HETATM    7  N1  UNL     1      25.564   4.099  50.868  1.00  0.00     0.162 N 
HETATM    8  H5  UNL     1      25.654   5.134  50.883  1.00  0.00     0.322 HD
BRANCH   7   9
HETATM    9  C6  UNL     1      24.159   3.743  50.948  1.00  0.00     0.552 C 
HETATM   10  C7  UNL     1      23.935   3.018  52.228  1.00  0.00     0.091 C 
HETATM   11  C8  UNL     1      23.213   1.938  52.058  1.00  0.00    -0.017 C 
HETATM   12  C16 UNL     1      22.873   1.859  50.615  1.00  0.00     0.315 C 
HETATM   13  N3  UNL     1      23.813   2.731  49.957  1.00  0.00     0.163 N 
HETATM   14  H18 UNL     1      23.271   3.204  49.189  1.00  0.00     0.322 HD
BRANCH   9  15
HETATM   15  N2  UNL     1      23.330   4.900  50.849  1.00  0.00     0.154 N 
HETATM   16  H6  UNL     1      23.816   5.801  51.030  1.00  0.00     0.319 HD
HETATM   17  H7  UNL     1      22.437   4.778  51.349  1.00  0.00     0.319 HD
ENDBRANCH   9  15
BRANCH  11  18
HETATM   18  C9  UNL     1      22.739   0.925  52.983  1.00  0.00    -0.022 A 
HETATM   19  C10 UNL     1      21.408   0.966  53.409  1.00  0.00     0.012 A 
HETATM   20  C11 UNL     1      20.823   0.080  54.276  1.00  0.00     0.001 A 
HETATM   21  C12 UNL     1      21.552  -0.954  54.800  1.00  0.00     0.001 A 
HETATM   22  C13 UNL     1      22.864  -1.043  54.417  1.00  0.00     0.007 A 
HETATM   23  C14 UNL     1      23.409  -0.130  53.545  1.00  0.00    -0.051 A 
HETATM   24  C15 UNL     1      24.824  -0.327  53.200  1.00  0.00     0.049 C 
ENDBRANCH  11  18
ENDBRANCH   7   9
ENDBRANCH   6   7
ENDBRANCH   5   6
TORSDOF 5
ENDMDL
MODEL 5
REMARK VINA RESULT:      -7.2      0.942      1.672
REMARK  5 active torsions:
REMARK  status: ('A' for Active; 'I' for Inactive)
REMARK    1  A    between atoms: C4_5  and  C5_6 
REMARK    2  A    between atoms: C5_6  and  N1_7 
REMARK    3  A    between atoms: N1_7  and  C6_8 
REMARK    4  A    between atoms: C6_8  and  N2_9 
REMARK    5  A    between atoms: C8_11  and  C9_12 
ROOT
HETATM    1  C1  UNL     1      29.642  -1.338  53.445  1.00  0.00     0.018 C 
HETATM    2  C2  UNL     1      28.690  -0.619  53.616  1.00  0.00    -0.070 C 
HETATM    3  C3  UNL     1      27.563   0.251  53.799  1.00  0.00     0.061 C 
HETATM    4 BR1  UNL     1      26.193  -0.302  54.975  1.00  0.00    -0.042 Br
HETATM    5  C4  UNL     1      27.498   1.407  53.156  1.00  0.00     0.031 C 
ENDROOT
BRANCH   5   6
HETATM    6  C5  UNL     1      26.529   2.532  53.091  1.00  0.00     0.305 C 
BRANCH   6   7
HETATM    7  N1  UNL     1      26.288   3.011  51.753  1.00  0.00     0.162 N 
HETATM    8  H5  UNL     1      26.645   2.317  51.065  1.00  0.00     0.322 HD
BRANCH   7   9
HETATM    9  C6  UNL     1      24.850   3.136  51.597  1.00  0.00     0.552 C 
HETATM   10  C7  UNL     1      24.196   2.344  52.674  1.00  0.00     0.091 C 
HETATM   11  C8  UNL     1      23.218   1.605  52.211  1.00  0.00    -0.017 C 
HETATM   12  C16 UNL     1      23.127   1.860  50.752  1.00  0.00     0.315 C 
HETATM   13  N3  UNL     1      24.388   2.457  50.392  1.00  0.00     0.163 N 
HETATM   14  H18 UNL     1      24.160   3.192  49.675  1.00  0.00     0.322 HD
BRANCH   9  15
HETATM   15  N2  UNL     1      24.447   4.504  51.632  1.00  0.00     0.154 N 
HETATM   16  H6  UNL     1      24.346   4.903  52.587  1.00  0.00     0.319 HD
HETATM   17  H7  UNL     1      23.658   4.689  50.996  1.00  0.00     0.319 HD
ENDBRANCH   9  15
BRANCH  11  18
HETATM   18  C9  UNL     1      22.303   0.682  52.857  1.00  0.00    -0.022 A 
HETATM   19  C10 UNL     1      22.775  -0.571  53.256  1.00  0.00     0.012 A 
HETATM   20  C11 UNL     1      22.032  -1.542  53.876  1.00  0.00     0.001 A 
HETATM   21  C12 UNL     1      20.709  -1.322  54.154  1.00  0.00     0.001 A 
HETATM   22  C13 UNL     1      20.192  -0.109  53.784  1.00  0.00     0.007 A 
HETATM   23  C14 UNL     1      20.977   0.834  53.164  1.00  0.00    -0.051 A 
HETATM   24  C15 UNL     1      20.316   2.101  52.817  1.00  0.00     0.049 C 
ENDBRANCH  11  18
ENDBRANCH   7   9
ENDBRANCH   6   7
ENDBRANCH   5   6
TORSDOF 5
ENDMDL
MODEL 6
REMARK VINA RESULT:      -6.9      3.048      6.690
REMARK  5 active torsions:
REMARK  status: ('A' for Active; 'I' for Inactive)
REMARK    1  A    between atoms: C4_5  and  C5_6 
REMARK    2  A    between atoms: C5_6  and  N1_7 
REMARK    3  A    between atoms: N1_7  and  C6_8 
REMARK    4  A    between atoms: C6_8  and  N2_9 
REMARK    5  A    between atoms: C8_11  and  C9_12 
ROOT
HETATM    1  C1  UNL     1      21.726   3.848  45.650  1.00  0.00     0.018 C 
HETATM    2  C2  UNL     1      21.928   3.767  46.835  1.00  0.00    -0.070 C 
HETATM    3  C3  UNL     1      22.192   3.666  48.242  1.00  0.00     0.061 C 
HETATM    4 BR1  UNL     1      20.879   4.298  49.443  1.00  0.00    -0.042 Br
HETATM    5  C4  UNL     1      23.330   3.143  48.674  1.00  0.00     0.031 C 
ENDROOT
BRANCH   5   6
HETATM    6  C5  UNL     1      23.939   2.880  50.003  1.00  0.00     0.305 C 
BRANCH   6   7
HETATM    7  N1  UNL     1      23.373   1.741  50.683  1.00  0.00     0.162 N 
HETATM    8  H5  UNL     1      23.656   0.868  50.195  1.00  0.00     0.322 HD
BRANCH   7   9
HETATM    9  C6  UNL     1      23.920   1.732  52.028  1.00  0.00     0.552 C 
HETATM   10  C7  UNL     1      25.393   1.545  51.929  1.00  0.00     0.091 C 
HETATM   11  C8  UNL     1      25.829   0.645  52.776  1.00  0.00    -0.017 C 
HETATM   12  C16 UNL     1      24.655   0.155  53.539  1.00  0.00     0.315 C 
HETATM   13  N3  UNL     1      23.507   0.539  52.758  1.00  0.00     0.163 N 
HETATM   14  H18 UNL     1      22.772   0.826  53.454  1.00  0.00     0.322 HD
BRANCH   9  15
HETATM   15  N2  UNL     1      23.589   2.932  52.725  1.00  0.00     0.154 N 
HETATM   16  H6  UNL     1      23.236   2.789  53.693  1.00  0.00     0.319 HD
HETATM   17  H7  UNL     1      23.026   3.571  52.145  1.00  0.00     0.319 HD
ENDBRANCH   9  15
BRANCH  11  18
HETATM   18  C9  UNL     1      27.157   0.126  53.050  1.00  0.00    -0.022 A 
HETATM   19  C10 UNL     1      28.122   0.984  53.584  1.00  0.00     0.012 A 
HETATM   20  C11 UNL     1      29.411   0.636  53.894  1.00  0.00     0.001 A 
HETATM   21  C12 UNL     1      29.846  -0.646  53.687  1.00  0.00     0.001 A 
HETATM   22  C13 UNL     1      28.941  -1.531  53.164  1.00  0.00     0.007 A 
HETATM   23  C14 UNL     1      27.658  -1.136  52.868  1.00  0.00    -0.051 A 
HETATM   24  C15 UNL     1      26.772  -2.171  52.317  1.00  0.00     0.049 C 
ENDBRANCH  11  18
ENDBRANCH   7   9
ENDBRANCH   6   7
ENDBRANCH   5   6
TORSDOF 5
ENDMDL
MODEL 7
REMARK VINA RESULT:      -6.8      1.972      5.777
REMARK  5 active torsions:
REMARK  status: ('A' for Active; 'I' for Inactive)
REMARK    1  A    between atoms: C4_5  and  C5_6 
REMARK    2  A    between atoms: C5_6  and  N1_7 
REMARK    3  A    between atoms: N1_7  and  C6_8 
REMARK    4  A    between atoms: C6_8  and  N2_9 
REMARK    5  A    between atoms: C8_11  and  C9_12 
ROOT
HETATM    1  C1  UNL     1      21.169  -1.261  54.493  1.00  0.00     0.018 C 
HETATM    2  C2  UNL     1      21.294  -0.572  53.512  1.00  0.00    -0.070 C 
HETATM    3  C3  UNL     1      21.468   0.244  52.344  1.00  0.00     0.061 C 
HETATM    4 BR1  UNL     1      19.932   0.726  51.358  1.00  0.00    -0.042 Br
HETATM    5  C4  UNL     1      22.677   0.642  51.979  1.00  0.00     0.031 C 
ENDROOT
BRANCH   5   6
HETATM    6  C5  UNL     1      23.235   1.464  50.874  1.00  0.00     0.305 C 
BRANCH   6   7
HETATM    7  N1  UNL     1      23.172   2.883  51.120  1.00  0.00     0.162 N 
HETATM    8  H5  UNL     1      22.330   3.100  51.690  1.00  0.00     0.322 HD
BRANCH   7   9
HETATM    9  C6  UNL     1      24.360   3.239  51.873  1.00  0.00     0.552 C 
HETATM   10  C7  UNL     1      25.413   2.228  51.584  1.00  0.00     0.091 C 
HETATM   11  C8  UNL     1      26.010   1.818  52.677  1.00  0.00    -0.017 C 
HETATM   12  C16 UNL     1      25.398   2.551  53.813  1.00  0.00     0.315 C 
HETATM   13  N3  UNL     1      24.150   3.063  53.306  1.00  0.00     0.163 N 
HETATM   14  H18 UNL     1      24.040   4.018  53.734  1.00  0.00     0.322 HD
BRANCH   9  15
HETATM   15  N2  UNL     1      24.797   4.558  51.550  1.00  0.00     0.154 N 
HETATM   16  H6  UNL     1      24.197   5.060  50.865  1.00  0.00     0.319 HD
HETATM   17  H7  UNL     1      25.807   4.591  51.351  1.00  0.00     0.319 HD
ENDBRANCH   9  15
BRANCH  11  18
HETATM   18  C9  UNL     1      27.076   0.860  52.905  1.00  0.00    -0.022 A 
HETATM   19  C10 UNL     1      26.825  -0.498  52.687  1.00  0.00     0.012 A 
HETATM   20  C11 UNL     1      27.731  -1.511  52.859  1.00  0.00     0.001 A 
HETATM   21  C12 UNL     1      29.005  -1.232  53.276  1.00  0.00     0.001 A 
HETATM   22  C13 UNL     1      29.307   0.084  53.506  1.00  0.00     0.007 A 
HETATM   23  C14 UNL     1      28.365   1.068  53.321  1.00  0.00    -0.051 A 
HETATM   24  C15 UNL     1      28.802   2.444  53.593  1.00  0.00     0.049 C 
ENDBRANCH  11  18
ENDBRANCH   7   9
ENDBRANCH   6   7
ENDBRANCH   5   6
TORSDOF 5
ENDMDL
MODEL 8
REMARK VINA RESULT:      -6.8      1.869      6.239
REMARK  5 active torsions:
REMARK  status: ('A' for Active; 'I' for Inactive)
REMARK    1  A    between atoms: C4_5  and  C5_6 
REMARK    2  A    between atoms: C5_6  and  N1_7 
REMARK    3  A    between atoms: N1_7  and  C6_8 
REMARK    4  A    between atoms: C6_8  and  N2_9 
REMARK    5  A    between atoms: C8_11  and  C9_12 
ROOT
HETATM    1  C1  UNL     1      18.067  -1.380  53.273  1.00  0.00     0.018 C 
HETATM    2  C2  UNL     1      19.194  -0.992  53.458  1.00  0.00    -0.070 C 
HETATM    3  C3  UNL     1      20.528  -0.508  53.670  1.00  0.00     0.061 C 
HETATM    4 BR1  UNL     1      21.719  -1.587  54.662  1.00  0.00    -0.042 Br
HETATM    5  C4  UNL     1      20.901   0.664  53.179  1.00  0.00     0.031 C 
ENDROOT
BRANCH   5   6
HETATM    6  C5  UNL     1      22.150   1.469  53.190  1.00  0.00     0.305 C 
BRANCH   6   7
HETATM    7  N1  UNL     1      22.190   2.487  52.169  1.00  0.00     0.162 N 
HETATM    8  H5  UNL     1      22.290   3.421  52.614  1.00  0.00     0.322 HD
BRANCH   7   9
HETATM    9  C6  UNL     1      23.358   2.223  51.349  1.00  0.00     0.552 C 
HETATM   10  C7  UNL     1      24.296   1.377  52.136  1.00  0.00     0.091 C 
HETATM   11  C8  UNL     1      25.529   1.815  52.061  1.00  0.00    -0.017 C 
HETATM   12  C16 UNL     1      25.517   3.013  51.184  1.00  0.00     0.315 C 
HETATM   13  N3  UNL     1      24.141   3.436  51.139  1.00  0.00     0.163 N 
HETATM   14  H18 UNL     1      23.975   3.758  50.151  1.00  0.00     0.322 HD
BRANCH   9  15
HETATM   15  N2  UNL     1      22.992   1.598  50.120  1.00  0.00     0.154 N 
HETATM   16  H6  UNL     1      22.515   2.223  49.439  1.00  0.00     0.319 HD
HETATM   17  H7  UNL     1      22.532   0.688  50.273  1.00  0.00     0.319 HD
ENDBRANCH   9  15
BRANCH  11  18
HETATM   18  C9  UNL     1      26.771   1.339  52.642  1.00  0.00    -0.022 A 
HETATM   19  C10 UNL     1      27.644   2.262  53.223  1.00  0.00     0.012 A 
HETATM   20  C11 UNL     1      28.846   1.961  53.809  1.00  0.00     0.001 A 
HETATM   21  C12 UNL     1      29.279   0.663  53.861  1.00  0.00     0.001 A 
HETATM   22  C13 UNL     1      28.462  -0.286  53.307  1.00  0.00     0.007 A 
HETATM   23  C14 UNL     1      27.264   0.064  52.728  1.00  0.00    -0.051 A 
HETATM   24  C15 UNL     1      26.468  -1.037  52.170  1.00  0.00     0.049 C 
ENDBRANCH  11  18
ENDBRANCH   7   9
ENDBRANCH   6   7
ENDBRANCH   5   6
TORSDOF 5
ENDMDL
MODEL 9
REMARK VINA RESULT:      -6.8      3.401      6.885
REMARK  5 active torsions:
REMARK  status: ('A' for Active; 'I' for Inactive)
REMARK    1  A    between atoms: C4_5  and  C5_6 
REMARK    2  A    between atoms: C5_6  and  N1_7 
REMARK    3  A    between atoms: N1_7  and  C6_8 
REMARK    4  A    between atoms: C6_8  and  N2_9 
REMARK    5  A    between atoms: C8_11  and  C9_12 
ROOT
HETATM    1  C1  UNL     1      21.720  -1.281  54.597  1.00  0.00     0.018 C 
HETATM    2  C2  UNL     1      22.354  -0.612  53.819  1.00  0.00    -0.070 C 
HETATM    3  C3  UNL     1      23.086   0.195  52.886  1.00  0.00     0.061 C 
HETATM    4 BR1  UNL     1      24.967   0.251  53.042  1.00  0.00    -0.042 Br
HETATM    5  C4  UNL     1      22.450   0.877  51.946  1.00  0.00     0.031 C 
ENDROOT
BRANCH   5   6
HETATM    6  C5  UNL     1      22.849   1.787  50.841  1.00  0.00     0.305 C 
BRANCH   6   7
HETATM    7  N1  UNL     1      21.735   2.449  50.208  1.00  0.00     0.162 N 
HETATM    8  H5  UNL     1      20.889   2.353  50.803  1.00  0.00     0.322 HD
BRANCH   7   9
HETATM    9  C6  UNL     1      22.081   3.855  50.098  1.00  0.00     0.552 C 
HETATM   10  C7  UNL     1      23.247   3.975  49.180  1.00  0.00     0.091 C 
HETATM   11  C8  UNL     1      24.169   4.772  49.663  1.00  0.00    -0.017 C 
HETATM   12  C16 UNL     1      23.675   5.273  50.970  1.00  0.00     0.315 C 
HETATM   13  N3  UNL     1      22.624   4.365  51.352  1.00  0.00     0.163 N 
HETATM   14  H18 UNL     1      21.884   4.961  51.803  1.00  0.00     0.322 HD
BRANCH   9  15
HETATM   15  N2  UNL     1      20.970   4.623  49.639  1.00  0.00     0.154 N 
HETATM   16  H6  UNL     1      21.217   5.411  49.006  1.00  0.00     0.319 HD
HETATM   17  H7  UNL     1      20.327   4.865  50.406  1.00  0.00     0.319 HD
ENDBRANCH   9  15
BRANCH  11  18
HETATM   18  C9  UNL     1      25.458   5.196  49.150  1.00  0.00    -0.022 A 
HETATM   19  C10 UNL     1      25.576   6.469  48.584  1.00  0.00     0.012 A 
HETATM   20  C11 UNL     1      26.725   7.004  48.062  1.00  0.00     0.001 A 
HETATM   21  C12 UNL     1      27.886   6.279  48.069  1.00  0.00     0.001 A 
HETATM   22  C13 UNL     1      27.829   5.023  48.612  1.00  0.00     0.007 A 
HETATM   23  C14 UNL     1      26.653   4.527  49.124  1.00  0.00    -0.051 A 
HETATM   24  C15 UNL     1      26.711   3.171  49.686  1.00  0.00     0.049 C 
ENDBRANCH  11  18
ENDBRANCH   7   9
ENDBRANCH   6   7
ENDBRANCH   5   6
TORSDOF 5
ENDMDL
