MODEL 1
REMARK VINA RESULT:      -7.9      0.000      0.000
REMARK  5 active torsions:
REMARK  status: ('A' for Active; 'I' for Inactive)
REMARK    1  A    between atoms: C2_2  and  C3_3 
REMARK    2  A    between atoms: C6_7  and  C7_8 
REMARK    3  A    between atoms: C7_8  and  C8_9 
REMARK    4  A    between atoms: C20_24  and  S1_26 
REMARK    5  A    between atoms: S1_26  and  C22_27 
ROOT
HETATM    1  C8  UNL     1      24.728   0.816  52.610  1.00  0.00     0.039 C 
HETATM    2  C9  UNL     1      23.450   1.254  52.548  1.00  0.00     0.088 C 
HETATM    3  N2  UNL     1      23.748   2.569  53.002  1.00  0.00    -0.261 NA
HETATM    4  C10 UNL     1      24.928   2.933  53.289  1.00  0.00     0.115 C 
HETATM    5  C11 UNL     1      25.440   2.767  51.930  1.00  0.00     0.123 C 
HETATM    6  C12 UNL     1      24.937   3.801  50.994  1.00  0.00     0.050 C 
HETATM    7  C13 UNL     1      23.455   3.926  50.948  1.00  0.00     0.120 C 
HETATM    8  N3  UNL     1      22.816   2.718  50.634  1.00  0.00    -0.402 N 
HETATM    9  C14 UNL     1      22.932   2.175  49.344  1.00  0.00     0.143 C 
HETATM   10  C15 UNL     1      21.861   2.506  48.358  1.00  0.00     0.187 C 
HETATM   11  O1  UNL     1      20.825   1.618  48.346  1.00  0.00    -0.389 OA
HETATM   12  C16 UNL     1      20.396   1.152  49.573  1.00  0.00     0.170 C 
HETATM   13  C17 UNL     1      20.412   2.239  50.592  1.00  0.00     0.056 C 
HETATM   14  C18 UNL     1      21.647   2.358  51.384  1.00  0.00     0.118 C 
HETATM   15  C19 UNL     1      21.988   1.225  52.278  1.00  0.00     0.007 C 
HETATM   16  C20 UNL     1      21.217   0.293  52.787  1.00  0.00    -0.013 C 
HETATM   17  C21 UNL     1      21.768  -0.772  53.650  1.00  0.00     0.056 C 
HETATM   18  N4  UNL     1      25.179   1.419  51.378  1.00  0.00    -0.382 N 
HETATM   19  H31 UNL     1      25.144   0.713  50.646  1.00  0.00     0.160 HD
ENDROOT
BRANCH   1  20
HETATM   20  C7  UNL     1      25.187   0.005  53.762  1.00  0.00     0.099 C 
BRANCH  20  21
HETATM   21  C6  UNL     1      26.419  -0.749  53.483  1.00  0.00    -0.030 A 
HETATM   22  C3  UNL     1      27.799  -0.483  53.822  1.00  0.00     0.035 A 
HETATM   23  N1  UNL     1      28.591  -1.402  53.327  1.00  0.00    -0.290 NA
HETATM   24  C4  UNL     1      27.798  -2.372  52.613  1.00  0.00     0.177 A 
HETATM   25  C5  UNL     1      26.422  -1.882  52.755  1.00  0.00     0.004 A 
BRANCH  22  26
HETATM   26  C2  UNL     1      28.319   0.656  54.609  1.00  0.00     0.055 C 
HETATM   27  C1  UNL     1      28.545   1.858  53.679  1.00  0.00     0.011 C 
ENDBRANCH  22  26
ENDBRANCH  20  21
ENDBRANCH   1  20
BRANCH  16  28
HETATM   28  S1  UNL     1      19.486   0.172  52.528  1.00  0.00    -0.103 SA
BRANCH  28  29
HETATM   29  C22 UNL     1      18.735  -1.250  53.319  1.00  0.00     0.301 C 
HETATM   30  F1  UNL     1      17.680  -1.772  52.606  1.00  0.00    -0.244 F 
ENDBRANCH  28  29
ENDBRANCH  16  28
TORSDOF 5
ENDMDL
MODEL 2
REMARK VINA RESULT:      -7.7      3.897      5.522
REMARK  5 active torsions:
REMARK  status: ('A' for Active; 'I' for Inactive)
REMARK    1  A    between atoms: C2_2  and  C3_3 
REMARK    2  A    between atoms: C6_7  and  C7_8 
REMARK    3  A    between atoms: C7_8  and  C8_9 
REMARK    4  A    between atoms: C20_24  and  S1_26 
REMARK    5  A    between atoms: S1_26  and  C22_27 
ROOT
HETATM    1  C8  UNL     1      23.897   1.844  51.927  1.00  0.00     0.039 C 
HETATM    2  C9  UNL     1      23.966   2.678  50.864  1.00  0.00     0.088 C 
HETATM    3  N2  UNL     1      22.944   2.020  50.124  1.00  0.00    -0.261 NA
HETATM    4  C10 UNL     1      22.333   1.005  50.573  1.00  0.00     0.115 C 
HETATM    5  C11 UNL     1      21.727   1.715  51.697  1.00  0.00     0.123 C 
HETATM    6  C12 UNL     1      20.658   2.653  51.278  1.00  0.00     0.050 C 
HETATM    7  C13 UNL     1      21.068   3.636  50.240  1.00  0.00     0.120 C 
HETATM    8  N3  UNL     1      22.181   4.401  50.623  1.00  0.00    -0.402 N 
HETATM    9  C14 UNL     1      22.062   5.351  51.650  1.00  0.00     0.143 C 
HETATM   10  C15 UNL     1      21.765   6.759  51.255  1.00  0.00     0.187 C 
HETATM   11  O1  UNL     1      22.877   7.522  51.045  1.00  0.00    -0.389 OA
HETATM   12  C16 UNL     1      23.926   6.916  50.384  1.00  0.00     0.170 C 
HETATM   13  C17 UNL     1      23.431   6.034  49.290  1.00  0.00     0.056 C 
HETATM   14  C18 UNL     1      23.212   4.624  49.651  1.00  0.00     0.118 C 
HETATM   15  C19 UNL     1      24.406   3.832  50.037  1.00  0.00     0.007 C 
HETATM   16  C20 UNL     1      25.673   4.033  49.764  1.00  0.00    -0.013 C 
HETATM   17  C21 UNL     1      26.721   3.123  50.269  1.00  0.00     0.056 C 
HETATM   18  N4  UNL     1      22.722   2.427  52.531  1.00  0.00    -0.382 N 
HETATM   19  H31 UNL     1      23.024   3.068  53.260  1.00  0.00     0.160 HD
ENDROOT
BRANCH   1  20
HETATM   20  C7  UNL     1      24.884   0.750  52.086  1.00  0.00     0.099 C 
BRANCH  20  21
HETATM   21  C6  UNL     1      24.808   0.091  53.399  1.00  0.00    -0.030 A 
HETATM   22  C3  UNL     1      25.811  -0.129  54.417  1.00  0.00     0.035 A 
HETATM   23  N1  UNL     1      25.319  -0.811  55.422  1.00  0.00    -0.290 NA
HETATM   24  C4  UNL     1      23.931  -1.101  55.160  1.00  0.00     0.177 A 
HETATM   25  C5  UNL     1      23.681  -0.496  53.847  1.00  0.00     0.004 A 
BRANCH  22  26
HETATM   26  C2  UNL     1      27.220   0.316  54.389  1.00  0.00     0.055 C 
HETATM   27  C1  UNL     1      28.038  -0.630  53.496  1.00  0.00     0.011 C 
ENDBRANCH  22  26
ENDBRANCH  20  21
ENDBRANCH   1  20
BRANCH  16  28
HETATM   28  S1  UNL     1      26.292   5.363  48.799  1.00  0.00    -0.103 SA
BRANCH  28  29
HETATM   29  C22 UNL     1      28.058   5.278  48.504  1.00  0.00     0.301 C 
HETATM   30  F1  UNL     1      28.514   6.269  47.662  1.00  0.00    -0.244 F 
ENDBRANCH  28  29
ENDBRANCH  16  28
TORSDOF 5
ENDMDL
MODEL 3
REMARK VINA RESULT:      -7.3      2.762      6.451
REMARK  5 active torsions:
REMARK  status: ('A' for Active; 'I' for Inactive)
REMARK    1  A    between atoms: C2_2  and  C3_3 
REMARK    2  A    between atoms: C6_7  and  C7_8 
REMARK    3  A    between atoms: C7_8  and  C8_9 
REMARK    4  A    between atoms: C20_24  and  S1_26 
REMARK    5  A    between atoms: S1_26  and  C22_27 
ROOT
HETATM    1  C8  UNL     1      23.261   3.803  51.549  1.00  0.00     0.039 C 
HETATM    2  C9  UNL     1      23.595   2.500  51.683  1.00  0.00     0.088 C 
HETATM    3  N2  UNL     1      24.075   2.357  50.351  1.00  0.00    -0.261 NA
HETATM    4  C10 UNL     1      24.075   3.321  49.528  1.00  0.00     0.115 C 
HETATM    5  C11 UNL     1      25.019   4.134  50.292  1.00  0.00     0.123 C 
HETATM    6  C12 UNL     1      26.401   3.600  50.258  1.00  0.00     0.050 C 
HETATM    7  C13 UNL     1      26.525   2.178  50.679  1.00  0.00     0.120 C 
HETATM    8  N3  UNL     1      26.007   1.942  51.962  1.00  0.00    -0.402 N 
HETATM    9  C14 UNL     1      26.660   2.461  53.091  1.00  0.00     0.143 C 
HETATM   10  C15 UNL     1      27.640   1.576  53.788  1.00  0.00     0.187 C 
HETATM   11  O1  UNL     1      27.094   0.820  54.784  1.00  0.00    -0.389 OA
HETATM   12  C16 UNL     1      25.852   0.270  54.533  1.00  0.00     0.170 C 
HETATM   13  C17 UNL     1      25.752  -0.202  53.123  1.00  0.00     0.056 C 
HETATM   14  C18 UNL     1      25.207   0.768  52.159  1.00  0.00     0.118 C 
HETATM   15  C19 UNL     1      23.795   1.183  52.344  1.00  0.00     0.007 C 
HETATM   16  C20 UNL     1      22.815   0.579  52.975  1.00  0.00    -0.013 C 
HETATM   17  C21 UNL     1      21.470   1.182  53.059  1.00  0.00     0.056 C 
HETATM   18  N4  UNL     1      24.593   4.341  51.695  1.00  0.00    -0.382 N 
HETATM   19  H31 UNL     1      24.712   4.639  52.660  1.00  0.00     0.160 HD
ENDROOT
BRANCH   1  20
HETATM   20  C7  UNL     1      21.852   4.195  51.304  1.00  0.00     0.099 C 
BRANCH  20  21
HETATM   21  C6  UNL     1      21.725   5.490  50.619  1.00  0.00    -0.030 A 
HETATM   22  C3  UNL     1      21.343   5.820  49.264  1.00  0.00     0.035 A 
HETATM   23  N1  UNL     1      21.410   7.112  49.057  1.00  0.00    -0.290 NA
HETATM   24  C4  UNL     1      21.841   7.761  50.270  1.00  0.00     0.177 A 
HETATM   25  C5  UNL     1      22.026   6.658  51.219  1.00  0.00     0.004 A 
BRANCH  22  26
HETATM   26  C2  UNL     1      20.931   4.878  48.201  1.00  0.00     0.055 C 
HETATM   27  C1  UNL     1      21.883   5.011  47.003  1.00  0.00     0.011 C 
ENDBRANCH  22  26
ENDBRANCH  20  21
ENDBRANCH   1  20
BRANCH  16  28
HETATM   28  S1  UNL     1      22.951  -0.972  53.785  1.00  0.00    -0.103 SA
BRANCH  28  29
HETATM   29  C22 UNL     1      21.507  -1.409  54.753  1.00  0.00     0.301 C 
HETATM   30  F1  UNL     1      20.458  -1.863  53.986  1.00  0.00    -0.244 F 
ENDBRANCH  28  29
ENDBRANCH  16  28
TORSDOF 5
ENDMDL
MODEL 4
REMARK VINA RESULT:      -7.2      8.531     10.228
REMARK  5 active torsions:
REMARK  status: ('A' for Active; 'I' for Inactive)
REMARK    1  A    between atoms: C2_2  and  C3_3 
REMARK    2  A    between atoms: C6_7  and  C7_8 
REMARK    3  A    between atoms: C7_8  and  C8_9 
REMARK    4  A    between atoms: C20_24  and  S1_26 
REMARK    5  A    between atoms: S1_26  and  C22_27 
ROOT
HETATM    1  C8  UNL     1      31.046   6.683  47.728  1.00  0.00     0.039 C 
HETATM    2  C9  UNL     1      29.897   7.202  48.219  1.00  0.00     0.088 C 
HETATM    3  N2  UNL     1      30.536   8.017  49.194  1.00  0.00    -0.261 NA
HETATM    4  C10 UNL     1      31.796   8.050  49.326  1.00  0.00     0.115 C 
HETATM    5  C11 UNL     1      32.042   8.610  47.998  1.00  0.00     0.123 C 
HETATM    6  C12 UNL     1      31.630  10.030  47.886  1.00  0.00     0.050 C 
HETATM    7  C13 UNL     1      30.221  10.299  48.278  1.00  0.00     0.120 C 
HETATM    8  N3  UNL     1      29.297   9.528  47.556  1.00  0.00    -0.402 N 
HETATM    9  C14 UNL     1      29.092   9.773  46.189  1.00  0.00     0.143 C 
HETATM   10  C15 UNL     1      27.975  10.691  45.813  1.00  0.00     0.187 C 
HETATM   11  O1  UNL     1      26.785  10.057  45.603  1.00  0.00    -0.389 OA
HETATM   12  C16 UNL     1      26.464   9.038  46.477  1.00  0.00     0.170 C 
HETATM   13  C17 UNL     1      26.871   9.380  47.869  1.00  0.00     0.056 C 
HETATM   14  C18 UNL     1      28.211   8.928  48.276  1.00  0.00     0.118 C 
HETATM   15  C19 UNL     1      28.438   7.464  48.343  1.00  0.00     0.007 C 
HETATM   16  C20 UNL     1      27.577   6.483  48.472  1.00  0.00    -0.013 C 
HETATM   17  C21 UNL     1      28.016   5.073  48.497  1.00  0.00     0.056 C 
HETATM   18  N4  UNL     1      31.417   7.818  46.916  1.00  0.00    -0.382 N 
HETATM   19  H31 UNL     1      31.118   7.636  45.960  1.00  0.00     0.160 HD
ENDROOT
BRANCH   1  20
HETATM   20  C7  UNL     1      31.497   5.334  48.144  1.00  0.00     0.099 C 
BRANCH  20  21
HETATM   21  C6  UNL     1      32.684   4.871  47.411  1.00  0.00    -0.030 A 
HETATM   22  C3  UNL     1      34.095   5.008  47.695  1.00  0.00     0.035 A 
HETATM   23  N1  UNL     1      34.821   4.482  46.738  1.00  0.00    -0.290 NA
HETATM   24  C4  UNL     1      33.946   3.940  45.728  1.00  0.00     0.177 A 
HETATM   25  C5  UNL     1      32.598   4.232  46.228  1.00  0.00     0.004 A 
BRANCH  22  26
HETATM   26  C2  UNL     1      34.707   5.649  48.878  1.00  0.00     0.055 C 
HETATM   27  C1  UNL     1      35.351   6.980  48.461  1.00  0.00     0.011 C 
ENDBRANCH  22  26
ENDBRANCH  20  21
ENDBRANCH   1  20
BRANCH  16  28
HETATM   28  S1  UNL     1      25.840   6.688  48.624  1.00  0.00    -0.103 SA
BRANCH  28  29
HETATM   29  C22 UNL     1      25.297   7.020  50.300  1.00  0.00     0.301 C 
HETATM   30  F1  UNL     1      25.139   8.362  50.562  1.00  0.00    -0.244 F 
ENDBRANCH  28  29
ENDBRANCH  16  28
TORSDOF 5
ENDMDL
MODEL 5
REMARK VINA RESULT:      -7.1      2.080      3.128
REMARK  5 active torsions:
REMARK  status: ('A' for Active; 'I' for Inactive)
REMARK    1  A    between atoms: C2_2  and  C3_3 
REMARK    2  A    between atoms: C6_7  and  C7_8 
REMARK    3  A    between atoms: C7_8  and  C8_9 
REMARK    4  A    between atoms: C20_24  and  S1_26 
REMARK    5  A    between atoms: S1_26  and  C22_27 
ROOT
HETATM    1  C8  UNL     1      23.719   3.030  51.359  1.00  0.00     0.039 C 
HETATM    2  C9  UNL     1      22.475   3.528  51.173  1.00  0.00     0.088 C 
HETATM    3  N2  UNL     1      22.879   4.891  51.226  1.00  0.00    -0.261 NA
HETATM    4  C10 UNL     1      24.088   5.231  51.395  1.00  0.00     0.115 C 
HETATM    5  C11 UNL     1      24.557   4.641  50.143  1.00  0.00     0.123 C 
HETATM    6  C12 UNL     1      24.110   5.396  48.948  1.00  0.00     0.050 C 
HETATM    7  C13 UNL     1      22.641   5.615  48.867  1.00  0.00     0.120 C 
HETATM    8  N3  UNL     1      21.908   4.420  48.916  1.00  0.00    -0.402 N 
HETATM    9  C14 UNL     1      21.955   3.520  47.839  1.00  0.00     0.143 C 
HETATM   10  C15 UNL     1      20.890   3.633  46.800  1.00  0.00     0.187 C 
HETATM   11  O1  UNL     1      19.792   2.862  47.046  1.00  0.00    -0.389 OA
HETATM   12  C16 UNL     1      19.357   2.805  48.355  1.00  0.00     0.170 C 
HETATM   13  C17 UNL     1      19.475   4.136  49.015  1.00  0.00     0.056 C 
HETATM   14  C18 UNL     1      20.733   4.384  49.739  1.00  0.00     0.118 C 
HETATM   15  C19 UNL     1      21.009   3.534  50.923  1.00  0.00     0.007 C 
HETATM   16  C20 UNL     1      20.184   2.851  51.680  1.00  0.00    -0.013 C 
HETATM   17  C21 UNL     1      20.675   2.042  52.815  1.00  0.00     0.056 C 
HETATM   18  N4  UNL     1      24.186   3.215  50.005  1.00  0.00    -0.382 N 
HETATM   19  H31 UNL     1      24.083   2.332  49.510  1.00  0.00     0.160 HD
ENDROOT
BRANCH   1  20
HETATM   20  C7  UNL     1      24.143   2.554  52.698  1.00  0.00     0.099 C 
BRANCH  20  21
HETATM   21  C6  UNL     1      24.887   1.286  52.649  1.00  0.00    -0.030 A 
HETATM   22  C3  UNL     1      24.601  -0.011  53.219  1.00  0.00     0.035 A 
HETATM   23  N1  UNL     1      25.569  -0.859  52.970  1.00  0.00    -0.290 NA
HETATM   24  C4  UNL     1      26.590  -0.193  52.201  1.00  0.00     0.177 A 
HETATM   25  C5  UNL     1      26.084   1.174  52.041  1.00  0.00     0.004 A 
BRANCH  22  26
HETATM   26  C2  UNL     1      23.404  -0.398  53.997  1.00  0.00     0.055 C 
HETATM   27  C1  UNL     1      22.431  -1.166  53.089  1.00  0.00     0.011 C 
ENDBRANCH  22  26
ENDBRANCH  20  21
ENDBRANCH   1  20
BRANCH  16  28
HETATM   28  S1  UNL     1      18.443   2.793  51.467  1.00  0.00    -0.103 SA
BRANCH  28  29
HETATM   29  C22 UNL     1      17.786   1.130  51.343  1.00  0.00     0.301 C 
HETATM   30  F1  UNL     1      18.662   0.245  50.755  1.00  0.00    -0.244 F 
ENDBRANCH  28  29
ENDBRANCH  16  28
TORSDOF 5
ENDMDL
MODEL 6
REMARK VINA RESULT:      -7.0      4.169      6.180
REMARK  5 active torsions:
REMARK  status: ('A' for Active; 'I' for Inactive)
REMARK    1  A    between atoms: C2_2  and  C3_3 
REMARK    2  A    between atoms: C6_7  and  C7_8 
REMARK    3  A    between atoms: C7_8  and  C8_9 
REMARK    4  A    between atoms: C20_24  and  S1_26 
REMARK    5  A    between atoms: S1_26  and  C22_27 
ROOT
HETATM    1  C8  UNL     1      23.185   2.524  50.993  1.00  0.00     0.039 C 
HETATM    2  C9  UNL     1      23.623   3.375  50.038  1.00  0.00     0.088 C 
HETATM    3  N2  UNL     1      22.722   2.914  49.038  1.00  0.00    -0.261 NA
HETATM    4  C10 UNL     1      21.881   1.992  49.260  1.00  0.00     0.115 C 
HETATM    5  C11 UNL     1      21.136   2.748  50.265  1.00  0.00     0.123 C 
HETATM    6  C12 UNL     1      20.344   3.857  49.683  1.00  0.00     0.050 C 
HETATM    7  C13 UNL     1      21.126   4.801  48.841  1.00  0.00     0.120 C 
HETATM    8  N3  UNL     1      22.215   5.365  49.522  1.00  0.00    -0.402 N 
HETATM    9  C14 UNL     1      21.995   6.284  50.562  1.00  0.00     0.143 C 
HETATM   10  C15 UNL     1      22.007   7.735  50.213  1.00  0.00     0.187 C 
HETATM   11  O1  UNL     1      23.236   8.320  50.318  1.00  0.00    -0.389 OA
HETATM   12  C16 UNL     1      24.313   7.581  49.872  1.00  0.00     0.170 C 
HETATM   13  C17 UNL     1      23.968   6.829  48.632  1.00  0.00     0.056 C 
HETATM   14  C18 UNL     1      23.468   5.459  48.830  1.00  0.00     0.118 C 
HETATM   15  C19 UNL     1      24.410   4.475  49.419  1.00  0.00     0.007 C 
HETATM   16  C20 UNL     1      25.721   4.483  49.458  1.00  0.00    -0.013 C 
HETATM   17  C21 UNL     1      26.476   3.401  50.120  1.00  0.00     0.056 C 
HETATM   18  N4  UNL     1      21.997   3.261  51.353  1.00  0.00    -0.382 N 
HETATM   19  H31 UNL     1      22.208   3.820  52.177  1.00  0.00     0.160 HD
ENDROOT
BRANCH   1  20
HETATM   20  C7  UNL     1      23.938   1.282  51.293  1.00  0.00     0.099 C 
BRANCH  20  21
HETATM   21  C6  UNL     1      23.388   0.536  52.435  1.00  0.00    -0.030 A 
HETATM   22  C3  UNL     1      24.028  -0.040  53.597  1.00  0.00     0.035 A 
HETATM   23  N1  UNL     1      23.158  -0.667  54.350  1.00  0.00    -0.290 NA
HETATM   24  C4  UNL     1      21.851  -0.558  53.751  1.00  0.00     0.177 A 
HETATM   25  C5  UNL     1      22.082   0.221  52.529  1.00  0.00     0.004 A 
BRANCH  22  26
HETATM   26  C2  UNL     1      25.463   0.024  53.946  1.00  0.00     0.055 C 
HETATM   27  C1  UNL     1      26.244  -0.976  53.079  1.00  0.00     0.011 C 
ENDBRANCH  22  26
ENDBRANCH  20  21
ENDBRANCH   1  20
BRANCH  16  28
HETATM   28  S1  UNL     1      26.736   5.733  48.759  1.00  0.00    -0.103 SA
BRANCH  28  29
HETATM   29  C22 UNL     1      28.401   5.185  48.385  1.00  0.00     0.301 C 
HETATM   30  F1  UNL     1      29.354   6.151  48.618  1.00  0.00    -0.244 F 
ENDBRANCH  28  29
ENDBRANCH  16  28
TORSDOF 5
ENDMDL
MODEL 7
REMARK VINA RESULT:      -6.8      3.280      5.649
REMARK  5 active torsions:
REMARK  status: ('A' for Active; 'I' for Inactive)
REMARK    1  A    between atoms: C2_2  and  C3_3 
REMARK    2  A    between atoms: C6_7  and  C7_8 
REMARK    3  A    between atoms: C7_8  and  C8_9 
REMARK    4  A    between atoms: C20_24  and  S1_26 
REMARK    5  A    between atoms: S1_26  and  C22_27 
ROOT
HETATM    1  C8  UNL     1      24.516   4.077  50.209  1.00  0.00     0.039 C 
HETATM    2  C9  UNL     1      24.155   3.324  51.272  1.00  0.00     0.088 C 
HETATM    3  N2  UNL     1      23.777   4.430  52.084  1.00  0.00    -0.261 NA
HETATM    4  C10 UNL     1      23.853   5.626  51.673  1.00  0.00     0.115 C 
HETATM    5  C11 UNL     1      22.865   5.452  50.610  1.00  0.00     0.123 C 
HETATM    6  C12 UNL     1      21.482   5.310  51.125  1.00  0.00     0.050 C 
HETATM    7  C13 UNL     1      21.306   4.236  52.139  1.00  0.00     0.120 C 
HETATM    8  N3  UNL     1      21.721   2.977  51.677  1.00  0.00    -0.402 N 
HETATM    9  C14 UNL     1      20.990   2.319  50.675  1.00  0.00     0.143 C 
HETATM   10  C15 UNL     1      19.948   1.343  51.110  1.00  0.00     0.187 C 
HETATM   11  O1  UNL     1      20.406   0.064  51.239  1.00  0.00    -0.389 OA
HETATM   12  C16 UNL     1      21.656  -0.090  51.807  1.00  0.00     0.170 C 
HETATM   13  C17 UNL     1      21.857   0.873  52.926  1.00  0.00     0.056 C 
HETATM   14  C18 UNL     1      22.488   2.153  52.566  1.00  0.00     0.118 C 
HETATM   15  C19 UNL     1      23.887   2.102  52.076  1.00  0.00     0.007 C 
HETATM   16  C20 UNL     1      24.807   1.183  52.249  1.00  0.00    -0.013 C 
HETATM   17  C21 UNL     1      26.151   1.318  51.650  1.00  0.00     0.056 C 
HETATM   18  N4  UNL     1      23.184   4.323  49.708  1.00  0.00    -0.382 N 
HETATM   19  H31 UNL     1      22.996   3.654  48.965  1.00  0.00     0.160 HD
ENDROOT
BRANCH   1  20
HETATM   20  C7  UNL     1      25.945   4.384  49.957  1.00  0.00     0.099 C 
BRANCH  20  21
HETATM   21  C6  UNL     1      26.138   5.506  49.026  1.00  0.00    -0.030 A 
HETATM   22  C3  UNL     1      27.321   5.996  48.354  1.00  0.00     0.035 A 
HETATM   23  N1  UNL     1      27.050   7.063  47.644  1.00  0.00    -0.290 NA
HETATM   24  C4  UNL     1      25.649   7.375  47.778  1.00  0.00     0.177 A 
HETATM   25  C5  UNL     1      25.137   6.337  48.679  1.00  0.00     0.004 A 
BRANCH  22  26
HETATM   26  C2  UNL     1      28.684   5.427  48.423  1.00  0.00     0.055 C 
HETATM   27  C1  UNL     1      29.676   6.396  47.761  1.00  0.00     0.011 C 
ENDBRANCH  22  26
ENDBRANCH  20  21
ENDBRANCH   1  20
BRANCH  16  28
HETATM   28  S1  UNL     1      24.589  -0.291  53.177  1.00  0.00    -0.103 SA
BRANCH  28  29
HETATM   29  C22 UNL     1      25.622  -0.382  54.639  1.00  0.00     0.301 C 
HETATM   30  F1  UNL     1      25.004  -1.006  55.700  1.00  0.00    -0.244 F 
ENDBRANCH  28  29
ENDBRANCH  16  28
TORSDOF 5
ENDMDL
MODEL 8
REMARK VINA RESULT:      -6.5      3.193      6.881
REMARK  5 active torsions:
REMARK  status: ('A' for Active; 'I' for Inactive)
REMARK    1  A    between atoms: C2_2  and  C3_3 
REMARK    2  A    between atoms: C6_7  and  C7_8 
REMARK    3  A    between atoms: C7_8  and  C8_9 
REMARK    4  A    between atoms: C20_24  and  S1_26 
REMARK    5  A    between atoms: S1_26  and  C22_27 
ROOT
HETATM    1  C8  UNL     1      20.098   1.389  50.721  1.00  0.00     0.039 C 
HETATM    2  C9  UNL     1      21.431   1.319  50.940  1.00  0.00     0.088 C 
HETATM    3  N2  UNL     1      21.784   1.323  49.562  1.00  0.00    -0.261 NA
HETATM    4  C10 UNL     1      20.914   1.388  48.643  1.00  0.00     0.115 C 
HETATM    5  C11 UNL     1      20.438   2.718  49.019  1.00  0.00     0.123 C 
HETATM    6  C12 UNL     1      21.412   3.789  48.702  1.00  0.00     0.050 C 
HETATM    7  C13 UNL     1      22.772   3.577  49.265  1.00  0.00     0.120 C 
HETATM    8  N3  UNL     1      22.764   3.406  50.658  1.00  0.00    -0.402 N 
HETATM    9  C14 UNL     1      22.452   4.486  51.498  1.00  0.00     0.143 C 
HETATM   10  C15 UNL     1      23.587   5.296  52.032  1.00  0.00     0.187 C 
HETATM   11  O1  UNL     1      24.069   4.853  53.229  1.00  0.00    -0.389 OA
HETATM   12  C16 UNL     1      24.174   3.485  53.385  1.00  0.00     0.170 C 
HETATM   13  C17 UNL     1      24.642   2.837  52.127  1.00  0.00     0.056 C 
HETATM   14  C18 UNL     1      23.587   2.370  51.215  1.00  0.00     0.118 C 
HETATM   15  C19 UNL     1      22.709   1.277  51.700  1.00  0.00     0.007 C 
HETATM   16  C20 UNL     1      22.916   0.385  52.639  1.00  0.00    -0.013 C 
HETATM   17  C21 UNL     1      21.888  -0.618  52.986  1.00  0.00     0.056 C 
HETATM   18  N4  UNL     1      20.040   2.804  50.442  1.00  0.00    -0.382 N 
HETATM   19  H31 UNL     1      19.761   3.285  51.294  1.00  0.00     0.160 HD
ENDROOT
BRANCH   1  20
HETATM   20  C7  UNL     1      19.261   0.168  50.798  1.00  0.00     0.099 C 
BRANCH  20  21
HETATM   21  C6  UNL     1      17.928   0.417  51.368  1.00  0.00    -0.030 A 
HETATM   22  C3  UNL     1      17.051  -0.425  52.150  1.00  0.00     0.035 A 
HETATM   23  N1  UNL     1      15.922   0.187  52.411  1.00  0.00    -0.290 NA
HETATM   24  C4  UNL     1      15.952   1.503  51.824  1.00  0.00     0.177 A 
HETATM   25  C5  UNL     1      17.265   1.573  51.171  1.00  0.00     0.004 A 
BRANCH  22  26
HETATM   26  C2  UNL     1      17.323  -1.800  52.619  1.00  0.00     0.055 C 
HETATM   27  C1  UNL     1      18.362  -1.759  53.750  1.00  0.00     0.011 C 
ENDBRANCH  22  26
ENDBRANCH  20  21
ENDBRANCH   1  20
BRANCH  16  28
HETATM   28  S1  UNL     1      24.385   0.254  53.591  1.00  0.00    -0.103 SA
BRANCH  28  29
HETATM   29  C22 UNL     1      25.664  -0.730  52.811  1.00  0.00     0.301 C 
HETATM   30  F1  UNL     1      26.287  -0.081  51.769  1.00  0.00    -0.244 F 
ENDBRANCH  28  29
ENDBRANCH  16  28
TORSDOF 5
ENDMDL
MODEL 9
REMARK VINA RESULT:      -6.5      9.749     11.714
REMARK  5 active torsions:
REMARK  status: ('A' for Active; 'I' for Inactive)
REMARK    1  A    between atoms: C2_2  and  C3_3 
REMARK    2  A    between atoms: C6_7  and  C7_8 
REMARK    3  A    between atoms: C7_8  and  C8_9 
REMARK    4  A    between atoms: C20_24  and  S1_26 
REMARK    5  A    between atoms: S1_26  and  C22_27 
ROOT
HETATM    1  C8  UNL     1      28.843   7.225  48.313  1.00  0.00     0.039 C 
HETATM    2  C9  UNL     1      28.689   8.172  47.360  1.00  0.00     0.088 C 
HETATM    3  N2  UNL     1      27.283   7.993  47.234  1.00  0.00    -0.261 NA
HETATM    4  C10 UNL     1      26.646   7.148  47.931  1.00  0.00     0.115 C 
HETATM    5  C11 UNL     1      26.934   7.800  49.207  1.00  0.00     0.123 C 
HETATM    6  C12 UNL     1      26.198   9.074  49.383  1.00  0.00     0.050 C 
HETATM    7  C13 UNL     1      26.384  10.054  48.279  1.00  0.00     0.120 C 
HETATM    8  N3  UNL     1      27.733  10.367  48.049  1.00  0.00    -0.402 N 
HETATM    9  C14 UNL     1      28.453  11.113  48.996  1.00  0.00     0.143 C 
HETATM   10  C15 UNL     1      28.518  12.592  48.804  1.00  0.00     0.187 C 
HETATM   11  O1  UNL     1      29.585  13.008  48.062  1.00  0.00    -0.389 OA
HETATM   12  C16 UNL     1      29.911  12.239  46.963  1.00  0.00     0.170 C 
HETATM   13  C17 UNL     1      28.686  11.754  46.267  1.00  0.00     0.056 C 
HETATM   14  C18 UNL     1      28.187  10.436  46.690  1.00  0.00     0.118 C 
HETATM   15  C19 UNL     1      29.058   9.266  46.422  1.00  0.00     0.007 C 
HETATM   16  C20 UNL     1      30.026   9.119  45.549  1.00  0.00    -0.013 C 
HETATM   17  C21 UNL     1      30.794   7.861  45.458  1.00  0.00     0.056 C 
HETATM   18  N4  UNL     1      28.381   8.019  49.426  1.00  0.00    -0.382 N 
HETATM   19  H31 UNL     1      29.194   8.401  49.904  1.00  0.00     0.160 HD
ENDROOT
BRANCH   1  20
HETATM   20  C7  UNL     1      29.336   5.873  47.953  1.00  0.00     0.099 C 
BRANCH  20  21
HETATM   21  C6  UNL     1      30.776   5.701  48.197  1.00  0.00    -0.030 A 
HETATM   22  C3  UNL     1      31.722   4.734  47.686  1.00  0.00     0.035 A 
HETATM   23  N1  UNL     1      32.910   4.918  48.208  1.00  0.00    -0.290 NA
HETATM   24  C4  UNL     1      32.858   6.036  49.116  1.00  0.00     0.177 A 
HETATM   25  C5  UNL     1      31.461   6.479  49.057  1.00  0.00     0.004 A 
BRANCH  22  26
HETATM   26  C2  UNL     1      31.453   3.654  46.714  1.00  0.00     0.055 C 
HETATM   27  C1  UNL     1      32.563   2.596  46.806  1.00  0.00     0.011 C 
ENDBRANCH  22  26
ENDBRANCH  20  21
ENDBRANCH   1  20
BRANCH  16  28
HETATM   28  S1  UNL     1      30.536  10.347  44.403  1.00  0.00    -0.103 SA
BRANCH  28  29
HETATM   29  C22 UNL     1      32.299  10.669  44.428  1.00  0.00     0.301 C 
HETATM   30  F1  UNL     1      32.767  11.019  45.675  1.00  0.00    -0.244 F 
ENDBRANCH  28  29
ENDBRANCH  16  28
TORSDOF 5
ENDMDL
