MODEL 1
REMARK VINA RESULT:     -10.5      0.000      0.000
REMARK  1 active torsions:
REMARK  status: ('A' for Active; 'I' for Inactive)
REMARK    1  A    between atoms: O1_2  and  C2_3 
ROOT
HETATM    1  C2  UNL     1      20.097   2.676  51.906  1.00  0.00     0.046 C 
HETATM    2  C3  UNL     1      20.849   3.764  52.175  1.00  0.00     0.030 C 
HETATM    3  C4  UNL     1      22.140   4.464  52.065  1.00  0.00     0.003 C 
HETATM    4  C5  UNL     1      23.355   4.879  51.836  1.00  0.00     0.138 C 
HETATM    5  N1  UNL     1      24.544   4.477  51.184  1.00  0.00    -0.343 N 
HETATM    6  P1  UNL     1      24.617   6.145  50.505  1.00  0.00     0.005 P 
HETATM    7  C6  UNL     1      25.939   5.708  49.303  1.00  0.00    -0.027 C 
HETATM    8  C7  UNL     1      26.339   4.560  49.638  1.00  0.00    -0.023 C 
HETATM    9  C8  UNL     1      27.411   4.394  48.582  1.00  0.00     0.041 C 
HETATM   10  C9  UNL     1      28.424   5.484  48.664  1.00  0.00     0.005 C 
HETATM   11  C10 UNL     1      27.851   6.857  48.425  1.00  0.00     0.005 C 
HETATM   12  C11 UNL     1      26.346   6.622  48.207  1.00  0.00     0.041 C 
HETATM   13  C12 UNL     1      25.658   3.817  50.662  1.00  0.00     0.041 C 
HETATM   14  C13 UNL     1      26.245   2.701  50.976  1.00  0.00     0.031 C 
HETATM   15  C14 UNL     1      26.501   1.483  51.672  1.00  0.00     0.019 C 
HETATM   16  C15 UNL     1      26.042   0.729  52.636  1.00  0.00     0.027 A 
HETATM   17  C16 UNL     1      25.455  -0.061  53.732  1.00  0.00     0.190 A 
HETATM   18  O2  UNL     1      26.581  -0.365  54.314  1.00  0.00    -0.171 OA
HETATM   19  N2  UNL     1      24.104  -0.335  53.979  1.00  0.00    -0.337 N 
HETATM   20  C17 UNL     1      23.503   0.324  52.929  1.00  0.00     0.025 A 
HETATM   21  C18 UNL     1      22.232   0.494  52.471  1.00  0.00     0.061 A 
HETATM   22  C19 UNL     1      21.895   1.185  51.313  1.00  0.00     0.001 A 
HETATM   23  C20 UNL     1      22.893   1.728  50.558  1.00  0.00    -0.031 A 
HETATM   24  C21 UNL     1      23.450   1.121  51.644  1.00  0.00     0.053 A 
HETATM   25  C22 UNL     1      24.617   0.861  52.257  1.00  0.00    -0.012 A 
HETATM   26  C23 UNL     1      20.389   1.345  51.193  1.00  0.00     0.079 C 
HETATM   27  H7  UNL     1      25.353   6.985  51.495  1.00  0.00     0.085 HD
HETATM   28  H18 UNL     1      23.781  -0.890  54.764  1.00  0.00     0.168 HD
ENDROOT
BRANCH   1  29
HETATM   29  O1  UNL     1      18.796   2.629  52.322  1.00  0.00    -0.360 OA
HETATM   30  C1  UNL     1      17.734   3.181  51.583  1.00  0.00     0.209 C 
ENDBRANCH   1  29
TORSDOF 1
ENDMDL
MODEL 2
REMARK VINA RESULT:     -10.3      2.070      3.127
REMARK  1 active torsions:
REMARK  status: ('A' for Active; 'I' for Inactive)
REMARK    1  A    between atoms: O1_2  and  C2_3 
ROOT
HETATM    1  C2  UNL     1      17.318   1.890  51.235  1.00  0.00     0.046 C 
HETATM    2  C3  UNL     1      18.064   2.959  51.587  1.00  0.00     0.030 C 
HETATM    3  C4  UNL     1      19.394   3.570  51.751  1.00  0.00     0.003 C 
HETATM    4  C5  UNL     1      20.657   3.890  51.808  1.00  0.00     0.138 C 
HETATM    5  N1  UNL     1      21.935   3.353  51.528  1.00  0.00    -0.343 N 
HETATM    6  P1  UNL     1      22.314   4.928  50.738  1.00  0.00     0.005 P 
HETATM    7  C6  UNL     1      23.856   4.287  49.967  1.00  0.00    -0.027 C 
HETATM    8  C7  UNL     1      24.063   3.164  50.501  1.00  0.00    -0.023 C 
HETATM    9  C8  UNL     1      25.350   2.823  49.780  1.00  0.00     0.041 C 
HETATM   10  C9  UNL     1      26.396   3.858  50.020  1.00  0.00     0.005 C 
HETATM   11  C10 UNL     1      26.015   5.224  49.513  1.00  0.00     0.005 C 
HETATM   12  C11 UNL     1      24.600   5.050  48.935  1.00  0.00     0.041 C 
HETATM   13  C12 UNL     1      23.086   2.578  51.377  1.00  0.00     0.041 C 
HETATM   14  C13 UNL     1      23.483   1.473  51.936  1.00  0.00     0.031 C 
HETATM   15  C14 UNL     1      23.454   0.328  52.785  1.00  0.00     0.019 C 
HETATM   16  C15 UNL     1      22.705  -0.287  53.663  1.00  0.00     0.027 A 
HETATM   17  C16 UNL     1      21.798  -0.918  54.637  1.00  0.00     0.190 A 
HETATM   18  O2  UNL     1      22.711  -1.216  55.518  1.00  0.00    -0.171 OA
HETATM   19  N2  UNL     1      20.411  -1.087  54.549  1.00  0.00    -0.337 N 
HETATM   20  C17 UNL     1      20.151  -0.517  53.323  1.00  0.00     0.025 A 
HETATM   21  C18 UNL     1      19.055  -0.329  52.536  1.00  0.00     0.061 A 
HETATM   22  C19 UNL     1      19.079   0.246  51.271  1.00  0.00     0.001 A 
HETATM   23  C20 UNL     1      20.276   0.646  50.754  1.00  0.00    -0.031 A 
HETATM   24  C21 UNL     1      20.490   0.134  51.999  1.00  0.00     0.053 A 
HETATM   25  C22 UNL     1      21.438  -0.120  52.915  1.00  0.00    -0.012 A 
HETATM   26  C23 UNL     1      17.671   0.475  50.750  1.00  0.00     0.079 C 
HETATM   27  H7  UNL     1      22.842   5.830  51.802  1.00  0.00     0.085 HD
HETATM   28  H18 UNL     1      19.855  -1.533  55.272  1.00  0.00     0.168 HD
ENDROOT
BRANCH   1  29
HETATM   29  O1  UNL     1      15.955   1.962  51.300  1.00  0.00    -0.360 OA
HETATM   30  C1  UNL     1      15.197   1.294  52.279  1.00  0.00     0.209 C 
ENDBRANCH   1  29
TORSDOF 1
ENDMDL
MODEL 3
REMARK VINA RESULT:      -9.8      2.906      6.643
REMARK  1 active torsions:
REMARK  status: ('A' for Active; 'I' for Inactive)
REMARK    1  A    between atoms: O1_2  and  C2_3 
ROOT
HETATM    1  C2  UNL     1      24.273   4.512  49.442  1.00  0.00     0.046 C 
HETATM    2  C3  UNL     1      23.495   3.545  48.911  1.00  0.00     0.030 C 
HETATM    3  C4  UNL     1      22.630   2.370  49.109  1.00  0.00     0.003 C 
HETATM    4  C5  UNL     1      21.910   1.368  49.531  1.00  0.00     0.138 C 
HETATM    5  N1  UNL     1      21.508   0.739  50.733  1.00  0.00    -0.343 N 
HETATM    6  P1  UNL     1      19.843   0.712  50.045  1.00  0.00     0.005 P 
HETATM    7  C6  UNL     1      19.077   0.243  51.650  1.00  0.00    -0.027 C 
HETATM    8  C7  UNL     1      20.036  -0.059  52.411  1.00  0.00    -0.023 C 
HETATM    9  C8  UNL     1      19.226  -0.433  53.633  1.00  0.00     0.041 C 
HETATM   10  C9  UNL     1      18.266  -1.534  53.331  1.00  0.00     0.005 C 
HETATM   11  C10 UNL     1      17.246  -1.169  52.284  1.00  0.00     0.005 C 
HETATM   12  C11 UNL     1      17.609   0.266  51.863  1.00  0.00     0.041 C 
HETATM   13  C12 UNL     1      21.396   0.158  51.997  1.00  0.00     0.041 C 
HETATM   14  C13 UNL     1      22.276  -0.300  52.837  1.00  0.00     0.031 C 
HETATM   15  C14 UNL     1      23.554  -0.642  53.368  1.00  0.00     0.019 C 
HETATM   16  C15 UNL     1      24.832  -0.584  53.100  1.00  0.00     0.027 A 
HETATM   17  C16 UNL     1      26.251  -0.475  52.721  1.00  0.00     0.190 A 
HETATM   18  O2  UNL     1      26.601  -1.667  53.113  1.00  0.00    -0.171 OA
HETATM   19  N2  UNL     1      26.912   0.610  52.129  1.00  0.00    -0.337 N 
HETATM   20  C17 UNL     1      25.882   1.517  52.015  1.00  0.00     0.025 A 
HETATM   21  C18 UNL     1      25.742   2.798  51.572  1.00  0.00     0.061 A 
HETATM   22  C19 UNL     1      24.560   3.527  51.622  1.00  0.00     0.001 A 
HETATM   23  C20 UNL     1      23.452   2.944  52.162  1.00  0.00    -0.031 A 
HETATM   24  C21 UNL     1      24.476   2.046  52.201  1.00  0.00     0.053 A 
HETATM   25  C22 UNL     1      24.806   0.797  52.565  1.00  0.00    -0.012 A 
HETATM   26  C23 UNL     1      24.701   4.845  50.880  1.00  0.00     0.079 C 
HETATM   27  H7  UNL     1      19.721  -0.548  49.255  1.00  0.00     0.085 HD
HETATM   28  H18 UNL     1      27.899   0.603  51.895  1.00  0.00     0.168 HD
ENDROOT
BRANCH   1  29
HETATM   29  O1  UNL     1      24.868   5.431  48.625  1.00  0.00    -0.360 OA
HETATM   30  C1  UNL     1      26.138   5.978  48.882  1.00  0.00     0.209 C 
ENDBRANCH   1  29
TORSDOF 1
ENDMDL
MODEL 4
REMARK VINA RESULT:      -9.5      2.033      5.211
REMARK  1 active torsions:
REMARK  status: ('A' for Active; 'I' for Inactive)
REMARK    1  A    between atoms: O1_2  and  C2_3 
ROOT
HETATM    1  C2  UNL     1      27.182   1.170  52.917  1.00  0.00     0.046 C 
HETATM    2  C3  UNL     1      27.112   1.733  51.692  1.00  0.00     0.030 C 
HETATM    3  C4  UNL     1      26.415   2.628  50.752  1.00  0.00     0.003 C 
HETATM    4  C5  UNL     1      25.641   3.460  50.114  1.00  0.00     0.138 C 
HETATM    5  N1  UNL     1      24.487   4.254  50.315  1.00  0.00    -0.343 N 
HETATM    6  P1  UNL     1      25.384   5.587  49.498  1.00  0.00     0.005 P 
HETATM    7  C6  UNL     1      24.150   6.858  49.992  1.00  0.00    -0.027 C 
HETATM    8  C7  UNL     1      23.167   6.218  50.455  1.00  0.00    -0.023 C 
HETATM    9  C8  UNL     1      22.276   7.400  50.769  1.00  0.00     0.041 C 
HETATM   10  C9  UNL     1      22.004   8.213  49.549  1.00  0.00     0.005 C 
HETATM   11  C10 UNL     1      23.245   8.812  48.939  1.00  0.00     0.005 C 
HETATM   12  C11 UNL     1      24.400   8.311  49.823  1.00  0.00     0.041 C 
HETATM   13  C12 UNL     1      23.246   4.797  50.652  1.00  0.00     0.041 C 
HETATM   14  C13 UNL     1      22.125   4.260  51.031  1.00  0.00     0.031 C 
HETATM   15  C14 UNL     1      21.193   3.242  51.390  1.00  0.00     0.019 C 
HETATM   16  C15 UNL     1      21.085   1.948  51.542  1.00  0.00     0.027 A 
HETATM   17  C16 UNL     1      21.052   0.483  51.694  1.00  0.00     0.190 A 
HETATM   18  O2  UNL     1      19.893   0.302  51.128  1.00  0.00    -0.171 OA
HETATM   19  N2  UNL     1      22.016  -0.352  52.275  1.00  0.00    -0.337 N 
HETATM   20  C17 UNL     1      22.969   0.567  52.655  1.00  0.00     0.025 A 
HETATM   21  C18 UNL     1      24.168   0.533  53.300  1.00  0.00     0.061 A 
HETATM   22  C19 UNL     1      24.927   1.653  53.618  1.00  0.00     0.001 A 
HETATM   23  C20 UNL     1      24.451   2.885  53.282  1.00  0.00    -0.031 A 
HETATM   24  C21 UNL     1      23.558   1.946  52.860  1.00  0.00     0.053 A 
HETATM   25  C22 UNL     1      22.385   1.775  52.229  1.00  0.00    -0.012 A 
HETATM   26  C23 UNL     1      26.287   1.252  54.164  1.00  0.00     0.079 C 
HETATM   27  H7  UNL     1      25.128   5.448  48.034  1.00  0.00     0.085 HD
HETATM   28  H18 UNL     1      21.917  -1.359  52.337  1.00  0.00     0.168 HD
ENDROOT
BRANCH   1  29
HETATM   29  O1  UNL     1      28.209   0.322  53.218  1.00  0.00    -0.360 OA
HETATM   30  C1  UNL     1      28.552  -0.032  54.535  1.00  0.00     0.209 C 
ENDBRANCH   1  29
TORSDOF 1
ENDMDL
MODEL 5
REMARK VINA RESULT:      -9.0      3.411      4.942
REMARK  1 active torsions:
REMARK  status: ('A' for Active; 'I' for Inactive)
REMARK    1  A    between atoms: O1_2  and  C2_3 
ROOT
HETATM    1  C2  UNL     1      22.034   4.777  50.677  1.00  0.00     0.046 C 
HETATM    2  C3  UNL     1      22.842   4.754  51.759  1.00  0.00     0.030 C 
HETATM    3  C4  UNL     1      23.743   3.997  52.645  1.00  0.00     0.003 C 
HETATM    4  C5  UNL     1      24.493   3.135  53.272  1.00  0.00     0.138 C 
HETATM    5  N1  UNL     1      24.913   1.787  53.190  1.00  0.00    -0.343 N 
HETATM    6  P1  UNL     1      26.579   2.390  53.519  1.00  0.00     0.005 P 
HETATM    7  C6  UNL     1      27.358   0.782  53.084  1.00  0.00    -0.027 C 
HETATM    8  C7  UNL     1      26.408  -0.041  52.982  1.00  0.00    -0.023 C 
HETATM    9  C8  UNL     1      27.229  -1.271  52.659  1.00  0.00     0.041 C 
HETATM   10  C9  UNL     1      28.222  -1.557  53.734  1.00  0.00     0.005 C 
HETATM   11  C10 UNL     1      29.231  -0.454  53.926  1.00  0.00     0.005 C 
HETATM   12  C11 UNL     1      28.825   0.633  52.916  1.00  0.00     0.041 C 
HETATM   13  C12 UNL     1      25.043   0.405  53.043  1.00  0.00     0.041 C 
HETATM   14  C13 UNL     1      24.177  -0.564  53.033  1.00  0.00     0.031 C 
HETATM   15  C14 UNL     1      22.909  -1.215  53.091  1.00  0.00     0.019 C 
HETATM   16  C15 UNL     1      21.630  -0.974  53.213  1.00  0.00     0.027 A 
HETATM   17  C16 UNL     1      20.209  -0.614  53.351  1.00  0.00     0.190 A 
HETATM   18  O2  UNL     1      19.896  -1.563  54.186  1.00  0.00    -0.171 OA
HETATM   19  N2  UNL     1      19.515   0.438  52.737  1.00  0.00    -0.337 N 
HETATM   20  C17 UNL     1      20.516   1.014  51.986  1.00  0.00     0.025 A 
HETATM   21  C18 UNL     1      20.617   2.048  51.107  1.00  0.00     0.061 A 
HETATM   22  C19 UNL     1      21.776   2.395  50.422  1.00  0.00     0.001 A 
HETATM   23  C20 UNL     1      22.901   1.650  50.618  1.00  0.00    -0.031 A 
HETATM   24  C21 UNL     1      21.905   1.144  51.398  1.00  0.00     0.053 A 
HETATM   25  C22 UNL     1      21.614   0.190  52.297  1.00  0.00    -0.012 A 
HETATM   26  C23 UNL     1      21.594   3.702  49.670  1.00  0.00     0.079 C 
HETATM   27  H7  UNL     1      26.741   2.430  55.002  1.00  0.00     0.085 HD
HETATM   28  H18 UNL     1      18.529   0.620  52.889  1.00  0.00     0.168 HD
ENDROOT
BRANCH   1  29
HETATM   29  O1  UNL     1      21.411   5.939  50.319  1.00  0.00    -0.360 OA
HETATM   30  C1  UNL     1      21.760   7.193  50.852  1.00  0.00     0.209 C 
ENDBRANCH   1  29
TORSDOF 1
ENDMDL
MODEL 6
REMARK VINA RESULT:      -8.6      3.215      6.281
REMARK  1 active torsions:
REMARK  status: ('A' for Active; 'I' for Inactive)
REMARK    1  A    between atoms: O1_2  and  C2_3 
ROOT
HETATM    1  C2  UNL     1      21.394   7.453  49.272  1.00  0.00     0.046 C 
HETATM    2  C3  UNL     1      21.122   6.171  48.946  1.00  0.00     0.030 C 
HETATM    3  C4  UNL     1      21.399   4.736  49.128  1.00  0.00     0.003 C 
HETATM    4  C5  UNL     1      21.813   3.546  49.461  1.00  0.00     0.138 C 
HETATM    5  N1  UNL     1      22.726   2.910  50.334  1.00  0.00    -0.343 N 
HETATM    6  P1  UNL     1      21.390   1.772  50.743  1.00  0.00     0.005 P 
HETATM    7  C6  UNL     1      22.295   1.061  52.178  1.00  0.00    -0.027 C 
HETATM    8  C7  UNL     1      23.473   1.503  52.091  1.00  0.00    -0.023 C 
HETATM    9  C8  UNL     1      24.049   0.805  53.304  1.00  0.00     0.041 C 
HETATM   10  C9  UNL     1      23.902  -0.675  53.197  1.00  0.00     0.005 C 
HETATM   11  C10 UNL     1      22.468  -1.132  53.129  1.00  0.00     0.005 C 
HETATM   12  C11 UNL     1      21.639   0.164  53.161  1.00  0.00     0.041 C 
HETATM   13  C12 UNL     1      23.811   2.498  51.111  1.00  0.00     0.041 C 
HETATM   14  C13 UNL     1      25.080   2.777  51.067  1.00  0.00     0.031 C 
HETATM   15  C14 UNL     1      26.296   3.372  50.618  1.00  0.00     0.019 C 
HETATM   16  C15 UNL     1      26.771   4.205  49.730  1.00  0.00     0.027 A 
HETATM   17  C16 UNL     1      27.220   5.159  48.701  1.00  0.00     0.190 A 
HETATM   18  O2  UNL     1      28.285   4.499  48.344  1.00  0.00    -0.171 OA
HETATM   19  N2  UNL     1      26.618   6.361  48.308  1.00  0.00    -0.337 N 
HETATM   20  C17 UNL     1      25.522   6.394  49.141  1.00  0.00     0.025 A 
HETATM   21  C18 UNL     1      24.490   7.250  49.378  1.00  0.00     0.061 A 
HETATM   22  C19 UNL     1      23.514   7.063  50.350  1.00  0.00     0.001 A 
HETATM   23  C20 UNL     1      23.583   5.957  51.144  1.00  0.00    -0.031 A 
HETATM   24  C21 UNL     1      24.621   5.923  50.262  1.00  0.00     0.053 A 
HETATM   25  C22 UNL     1      25.686   5.203  49.873  1.00  0.00    -0.012 A 
HETATM   26  C23 UNL     1      22.413   8.102  50.223  1.00  0.00     0.079 C 
HETATM   27  H7  UNL     1      21.447   0.660  49.750  1.00  0.00     0.085 HD
HETATM   28  H18 UNL     1      26.994   6.963  47.583  1.00  0.00     0.168 HD
ENDROOT
BRANCH   1  29
HETATM   29  O1  UNL     1      20.692   8.467  48.686  1.00  0.00    -0.360 OA
HETATM   30  C1  UNL     1      19.813   9.304  49.397  1.00  0.00     0.209 C 
ENDBRANCH   1  29
TORSDOF 1
ENDMDL
MODEL 7
REMARK VINA RESULT:      -8.6      2.015      2.314
REMARK  1 active torsions:
REMARK  status: ('A' for Active; 'I' for Inactive)
REMARK    1  A    between atoms: O1_2  and  C2_3 
ROOT
HETATM    1  C2  UNL     1      20.336   4.061  48.857  1.00  0.00     0.046 C 
HETATM    2  C3  UNL     1      21.034   5.123  49.314  1.00  0.00     0.030 C 
HETATM    3  C4  UNL     1      22.335   5.739  49.625  1.00  0.00     0.003 C 
HETATM    4  C5  UNL     1      23.582   6.067  49.813  1.00  0.00     0.138 C 
HETATM    5  N1  UNL     1      24.888   5.550  49.638  1.00  0.00    -0.343 N 
HETATM    6  P1  UNL     1      25.322   7.155  48.941  1.00  0.00     0.005 P 
HETATM    7  C6  UNL     1      26.938   6.554  48.300  1.00  0.00    -0.027 C 
HETATM    8  C7  UNL     1      27.106   5.415  48.813  1.00  0.00    -0.023 C 
HETATM    9  C8  UNL     1      28.459   5.109  48.208  1.00  0.00     0.041 C 
HETATM   10  C9  UNL     1      29.465   6.144  48.581  1.00  0.00     0.005 C 
HETATM   11  C10 UNL     1      29.119   7.524  48.085  1.00  0.00     0.005 C 
HETATM   12  C11 UNL     1      27.767   7.358  47.369  1.00  0.00     0.041 C 
HETATM   13  C12 UNL     1      26.057   4.791  49.573  1.00  0.00     0.041 C 
HETATM   14  C13 UNL     1      26.411   3.671  50.129  1.00  0.00     0.031 C 
HETATM   15  C14 UNL     1      26.315   2.497  50.933  1.00  0.00     0.019 C 
HETATM   16  C15 UNL     1      25.494   1.846  51.714  1.00  0.00     0.027 A 
HETATM   17  C16 UNL     1      24.505   1.175  52.576  1.00  0.00     0.190 A 
HETATM   18  O2  UNL     1      25.334   0.854  53.529  1.00  0.00    -0.171 OA
HETATM   19  N2  UNL     1      23.134   0.997  52.350  1.00  0.00    -0.337 N 
HETATM   20  C17 UNL     1      22.986   1.606  51.124  1.00  0.00     0.025 A 
HETATM   21  C18 UNL     1      21.968   1.812  50.243  1.00  0.00     0.061 A 
HETATM   22  C19 UNL     1      22.105   2.431  49.006  1.00  0.00     0.001 A 
HETATM   23  C20 UNL     1      23.342   2.858  48.620  1.00  0.00    -0.031 A 
HETATM   24  C21 UNL     1      23.442   2.305  49.861  1.00  0.00     0.053 A 
HETATM   25  C22 UNL     1      24.301   2.028  50.855  1.00  0.00    -0.012 A 
HETATM   26  C23 UNL     1      20.750   2.666  48.361  1.00  0.00     0.079 C 
HETATM   27  H7  UNL     1      25.736   8.025  50.081  1.00  0.00     0.085 HD
HETATM   28  H18 UNL     1      22.518   0.522  53.001  1.00  0.00     0.168 HD
ENDROOT
BRANCH   1  29
HETATM   29  O1  UNL     1      18.973   4.119  48.795  1.00  0.00    -0.360 OA
HETATM   30  C1  UNL     1      18.256   4.037  47.588  1.00  0.00     0.209 C 
ENDBRANCH   1  29
TORSDOF 1
ENDMDL
MODEL 8
REMARK VINA RESULT:      -8.5      3.097      4.632
REMARK  1 active torsions:
REMARK  status: ('A' for Active; 'I' for Inactive)
REMARK    1  A    between atoms: O1_2  and  C2_3 
ROOT
HETATM    1  C2  UNL     1      15.697   1.550  50.737  1.00  0.00     0.046 C 
HETATM    2  C3  UNL     1      16.418   2.638  51.082  1.00  0.00     0.030 C 
HETATM    3  C4  UNL     1      17.733   3.283  51.240  1.00  0.00     0.003 C 
HETATM    4  C5  UNL     1      18.987   3.633  51.293  1.00  0.00     0.138 C 
HETATM    5  N1  UNL     1      20.278   3.127  51.011  1.00  0.00    -0.343 N 
HETATM    6  P1  UNL     1      20.616   4.707  50.214  1.00  0.00     0.005 P 
HETATM    7  C6  UNL     1      22.171   4.102  49.441  1.00  0.00    -0.027 C 
HETATM    8  C7  UNL     1      22.407   2.986  49.979  1.00  0.00    -0.023 C 
HETATM    9  C8  UNL     1      23.700   2.674  49.256  1.00  0.00     0.041 C 
HETATM   10  C9  UNL     1      24.720   3.735  49.489  1.00  0.00     0.005 C 
HETATM   11  C10 UNL     1      24.305   5.089  48.977  1.00  0.00     0.005 C 
HETATM   12  C11 UNL     1      22.893   4.878  48.404  1.00  0.00     0.041 C 
HETATM   13  C12 UNL     1      21.447   2.380  50.861  1.00  0.00     0.041 C 
HETATM   14  C13 UNL     1      21.872   1.288  51.422  1.00  0.00     0.031 C 
HETATM   15  C14 UNL     1      21.874   0.146  52.277  1.00  0.00     0.019 C 
HETATM   16  C15 UNL     1      21.143  -0.484  53.159  1.00  0.00     0.027 A 
HETATM   17  C16 UNL     1      20.254  -1.133  54.138  1.00  0.00     0.190 A 
HETATM   18  O2  UNL     1      21.177  -1.404  55.018  1.00  0.00    -0.171 OA
HETATM   19  N2  UNL     1      18.871  -1.337  54.055  1.00  0.00    -0.337 N 
HETATM   20  C17 UNL     1      18.594  -0.778  52.826  1.00  0.00     0.025 A 
HETATM   21  C18 UNL     1      17.492  -0.620  52.042  1.00  0.00     0.061 A 
HETATM   22  C19 UNL     1      17.498  -0.050  50.774  1.00  0.00     0.001 A 
HETATM   23  C20 UNL     1      18.684   0.377  50.253  1.00  0.00    -0.031 A 
HETATM   24  C21 UNL     1      18.913  -0.125  51.499  1.00  0.00     0.053 A 
HETATM   25  C22 UNL     1      19.870  -0.351  52.414  1.00  0.00    -0.012 A 
HETATM   26  C23 UNL     1      16.083   0.142  50.256  1.00  0.00     0.079 C 
HETATM   27  H7  UNL     1      21.124   5.627  51.273  1.00  0.00     0.085 HD
HETATM   28  H18 UNL     1      18.328  -1.793  54.781  1.00  0.00     0.168 HD
ENDROOT
BRANCH   1  29
HETATM   29  O1  UNL     1      14.334   1.589  50.805  1.00  0.00    -0.360 OA
HETATM   30  C1  UNL     1      13.618   2.720  51.238  1.00  0.00     0.209 C 
ENDBRANCH   1  29
TORSDOF 1
ENDMDL
MODEL 9
REMARK VINA RESULT:      -8.5      5.577      9.948
REMARK  1 active torsions:
REMARK  status: ('A' for Active; 'I' for Inactive)
REMARK    1  A    between atoms: O1_2  and  C2_3 
ROOT
HETATM    1  C2  UNL     1      29.640  11.862  48.070  1.00  0.00     0.046 C 
HETATM    2  C3  UNL     1      28.648  11.260  47.379  1.00  0.00     0.030 C 
HETATM    3  C4  UNL     1      27.854  10.051  47.106  1.00  0.00     0.003 C 
HETATM    4  C5  UNL     1      27.293   8.875  47.045  1.00  0.00     0.138 C 
HETATM    5  N1  UNL     1      27.361   7.599  47.650  1.00  0.00    -0.343 N 
HETATM    6  P1  UNL     1      25.562   7.655  47.740  1.00  0.00     0.005 P 
HETATM    7  C6  UNL     1      25.469   6.197  48.857  1.00  0.00    -0.027 C 
HETATM    8  C7  UNL     1      26.628   5.701  48.868  1.00  0.00    -0.023 C 
HETATM    9  C8  UNL     1      26.349   4.533  49.788  1.00  0.00     0.041 C 
HETATM   10  C9  UNL     1      25.273   3.657  49.241  1.00  0.00     0.005 C 
HETATM   11  C10 UNL     1      23.948   4.359  49.089  1.00  0.00     0.005 C 
HETATM   12  C11 UNL     1      24.213   5.805  49.543  1.00  0.00     0.041 C 
HETATM   13  C12 UNL     1      27.721   6.378  48.225  1.00  0.00     0.041 C 
HETATM   14  C13 UNL     1      28.828   5.698  48.224  1.00  0.00     0.031 C 
HETATM   15  C14 UNL     1      30.185   5.367  47.935  1.00  0.00     0.019 C 
HETATM   16  C15 UNL     1      31.250   5.819  47.327  1.00  0.00     0.027 A 
HETATM   17  C16 UNL     1      32.404   6.403  46.622  1.00  0.00     0.190 A 
HETATM   18  O2  UNL     1      32.796   5.303  46.043  1.00  0.00    -0.171 OA
HETATM   19  N2  UNL     1      32.849   7.731  46.635  1.00  0.00    -0.337 N 
HETATM   20  C17 UNL     1      31.926   8.312  47.477  1.00  0.00     0.025 A 
HETATM   21  C18 UNL     1      31.712   9.551  47.999  1.00  0.00     0.061 A 
HETATM   22  C19 UNL     1      30.703   9.865  48.902  1.00  0.00     0.001 A 
HETATM   23  C20 UNL     1      29.864   8.874  49.319  1.00  0.00    -0.031 A 
HETATM   24  C21 UNL     1      30.753   8.345  48.432  1.00  0.00     0.053 A 
HETATM   25  C22 UNL     1      31.110   7.213  47.805  1.00  0.00    -0.012 A 
HETATM   26  C23 UNL     1      30.629  11.364  49.137  1.00  0.00     0.079 C 
HETATM   27  H7  UNL     1      25.046   7.103  46.454  1.00  0.00     0.085 HD
HETATM   28  H18 UNL     1      33.657   8.055  46.115  1.00  0.00     0.168 HD
ENDROOT
BRANCH   1  29
HETATM   29  O1  UNL     1      29.923  13.179  47.846  1.00  0.00    -0.360 OA
HETATM   30  C1  UNL     1      29.260  13.952  46.876  1.00  0.00     0.209 C 
ENDBRANCH   1  29
TORSDOF 1
ENDMDL
