MODEL 1
REMARK VINA RESULT:      -6.7      0.000      0.000
REMARK  7 active torsions:
REMARK  status: ('A' for Active; 'I' for Inactive)
REMARK    1  A    between atoms: C9_9  and  O1_10 
REMARK    2  A    between atoms: O1_10  and  C10_11 
REMARK    3  A    between atoms: C10_11  and  C11_12 
REMARK    4  A    between atoms: C11_12  and  O2_13 
REMARK    5  A    between atoms: C13_15  and  C14_16 
REMARK    6  A    between atoms: C14_16  and  C15_17 
REMARK    7  A    between atoms: C15_17  and  O3_18 
ROOT
HETATM    1  C1  UNL     1      29.483  -0.960  53.899  1.00  0.00     0.017 C 
HETATM    2  C2  UNL     1      28.539  -0.203  54.110  1.00  0.00    -0.080 C 
HETATM    3  C3  UNL     1      27.420   0.683  54.360  1.00  0.00     0.014 C 
HETATM    4  C4  UNL     1      27.377   1.880  53.745  1.00  0.00    -0.062 C 
HETATM    5  C5  UNL     1      28.507   2.219  52.839  1.00  0.00     0.045 C 
HETATM    6  C6  UNL     1      26.202   2.752  53.974  1.00  0.00     0.094 C 
HETATM    7  C7  UNL     1      25.114   2.396  52.969  1.00  0.00     0.042 C 
HETATM    8  C8  UNL     1      23.760   2.399  52.786  1.00  0.00     0.065 C 
HETATM    9  C9  UNL     1      22.925   1.177  53.118  1.00  0.00     0.081 C 
HETATM   10  C13 UNL     1      23.322  -0.135  53.265  1.00  0.00     0.023 C 
HETATM   11  C17 UNL     1      24.719  -0.548  53.719  1.00  0.00     0.134 C 
HETATM   12  N1  UNL     1      25.638  -0.650  52.742  1.00  0.00    -0.224 NA
HETATM   13  C18 UNL     1      26.078   0.427  51.824  1.00  0.00     0.235 C 
HETATM   14  N2  UNL     1      25.772   1.753  51.794  1.00  0.00    -0.246 NA
HETATM   15  N3  UNL     1      25.648  -0.913  54.800  1.00  0.00    -0.369 N 
HETATM   16  C19 UNL     1      26.453   0.173  55.331  1.00  0.00     0.169 C 
HETATM   17  H23 UNL     1      25.585  -1.931  55.028  1.00  0.00     0.161 HD
ENDROOT
BRANCH  10  18
HETATM   18  C14 UNL     1      22.382  -1.197  52.966  1.00  0.00     0.071 C 
BRANCH  18  19
HETATM   19  C15 UNL     1      22.067  -2.027  54.193  1.00  0.00     0.171 C 
BRANCH  19  20
HETATM   20  O3  UNL     1      20.830  -1.766  54.749  1.00  0.00    -0.396 OA
HETATM   21  C16 UNL     1      19.822  -1.573  53.849  1.00  0.00     0.201 C 
ENDBRANCH  19  20
ENDBRANCH  18  19
ENDBRANCH  10  18
BRANCH   9  22
HETATM   22  O1  UNL     1      21.575   1.311  53.316  1.00  0.00    -0.348 OA
BRANCH  22  23
HETATM   23  C10 UNL     1      20.827   2.170  52.497  1.00  0.00     0.201 C 
BRANCH  23  24
HETATM   24  C11 UNL     1      20.674   1.628  51.090  1.00  0.00     0.193 C 
BRANCH  24  25
HETATM   25  O2  UNL     1      19.852   0.504  51.068  1.00  0.00    -0.394 OA
HETATM   26  C12 UNL     1      18.550   0.916  51.328  1.00  0.00     0.201 C 
ENDBRANCH  24  25
ENDBRANCH  23  24
ENDBRANCH  22  23
ENDBRANCH   9  22
TORSDOF 7
ENDMDL
MODEL 2
REMARK VINA RESULT:      -6.6      2.906      6.059
REMARK  7 active torsions:
REMARK  status: ('A' for Active; 'I' for Inactive)
REMARK    1  A    between atoms: C9_9  and  O1_10 
REMARK    2  A    between atoms: O1_10  and  C10_11 
REMARK    3  A    between atoms: C10_11  and  C11_12 
REMARK    4  A    between atoms: C11_12  and  O2_13 
REMARK    5  A    between atoms: C13_15  and  C14_16 
REMARK    6  A    between atoms: C14_16  and  C15_17 
REMARK    7  A    between atoms: C15_17  and  O3_18 
ROOT
HETATM    1  C1  UNL     1      19.880   4.355  49.755  1.00  0.00     0.017 C 
HETATM    2  C2  UNL     1      20.988   3.840  49.642  1.00  0.00    -0.080 C 
HETATM    3  C3  UNL     1      22.295   3.224  49.512  1.00  0.00     0.014 C 
HETATM    4  C4  UNL     1      23.390   4.005  49.460  1.00  0.00    -0.062 C 
HETATM    5  C5  UNL     1      23.178   5.476  49.533  1.00  0.00     0.045 C 
HETATM    6  C6  UNL     1      24.718   3.357  49.377  1.00  0.00     0.094 C 
HETATM    7  C7  UNL     1      25.216   3.060  50.786  1.00  0.00     0.042 C 
HETATM    8  C8  UNL     1      26.015   2.213  51.501  1.00  0.00     0.065 C 
HETATM    9  C9  UNL     1      25.443   0.970  52.158  1.00  0.00     0.081 C 
HETATM   10  C13 UNL     1      24.135   0.679  52.478  1.00  0.00     0.023 C 
HETATM   11  C17 UNL     1      22.935   1.242  51.722  1.00  0.00     0.134 C 
HETATM   12  N1  UNL     1      22.499   2.443  52.143  1.00  0.00    -0.224 NA
HETATM   13  C18 UNL     1      23.276   3.705  52.177  1.00  0.00     0.235 C 
HETATM   14  N2  UNL     1      24.524   3.996  51.720  1.00  0.00    -0.246 NA
HETATM   15  N3  UNL     1      21.932   1.114  50.653  1.00  0.00    -0.369 N 
HETATM   16  C19 UNL     1      22.264   1.766  49.399  1.00  0.00     0.169 C 
HETATM   17  H23 UNL     1      21.107   0.557  50.971  1.00  0.00     0.161 HD
ENDROOT
BRANCH  10  18
HETATM   18  C14 UNL     1      23.859  -0.200  53.598  1.00  0.00     0.071 C 
BRANCH  18  19
HETATM   19  C15 UNL     1      22.624  -1.041  53.359  1.00  0.00     0.171 C 
BRANCH  19  20
HETATM   20  O3  UNL     1      21.617  -0.841  54.282  1.00  0.00    -0.396 OA
HETATM   21  C16 UNL     1      20.402  -0.518  53.750  1.00  0.00     0.201 C 
ENDBRANCH  19  20
ENDBRANCH  18  19
ENDBRANCH  10  18
BRANCH   9  22
HETATM   22  O1  UNL     1      26.281  -0.055  52.513  1.00  0.00    -0.348 OA
BRANCH  22  23
HETATM   23  C10 UNL     1      27.588   0.221  52.940  1.00  0.00     0.201 C 
BRANCH  23  24
HETATM   24  C11 UNL     1      27.716   0.177  54.450  1.00  0.00     0.193 C 
BRANCH  24  25
HETATM   25  O2  UNL     1      28.579   1.167  54.913  1.00  0.00    -0.394 OA
HETATM   26  C12 UNL     1      28.842   2.037  53.861  1.00  0.00     0.201 C 
ENDBRANCH  24  25
ENDBRANCH  23  24
ENDBRANCH  22  23
ENDBRANCH   9  22
TORSDOF 7
ENDMDL
MODEL 3
REMARK VINA RESULT:      -6.5      2.988      5.584
REMARK  7 active torsions:
REMARK  status: ('A' for Active; 'I' for Inactive)
REMARK    1  A    between atoms: C9_9  and  O1_10 
REMARK    2  A    between atoms: O1_10  and  C10_11 
REMARK    3  A    between atoms: C10_11  and  C11_12 
REMARK    4  A    between atoms: C11_12  and  O2_13 
REMARK    5  A    between atoms: C13_15  and  C14_16 
REMARK    6  A    between atoms: C14_16  and  C15_17 
REMARK    7  A    between atoms: C15_17  and  O3_18 
ROOT
HETATM    1  C1  UNL     1      25.253   7.343  50.532  1.00  0.00     0.017 C 
HETATM    2  C2  UNL     1      24.361   6.516  50.701  1.00  0.00    -0.080 C 
HETATM    3  C3  UNL     1      23.312   5.536  50.909  1.00  0.00     0.014 C 
HETATM    4  C4  UNL     1      22.636   5.061  49.847  1.00  0.00    -0.062 C 
HETATM    5  C5  UNL     1      23.014   5.590  48.508  1.00  0.00     0.045 C 
HETATM    6  C6  UNL     1      21.601   4.026  50.072  1.00  0.00     0.094 C 
HETATM    7  C7  UNL     1      22.259   2.652  50.044  1.00  0.00     0.042 C 
HETATM    8  C8  UNL     1      22.138   1.379  50.525  1.00  0.00     0.065 C 
HETATM    9  C9  UNL     1      22.847   0.956  51.799  1.00  0.00     0.081 C 
HETATM   10  C13 UNL     1      23.924   1.540  52.429  1.00  0.00     0.023 C 
HETATM   11  C17 UNL     1      24.249   3.029  52.342  1.00  0.00     0.134 C 
HETATM   12  N1  UNL     1      24.998   3.395  51.286  1.00  0.00    -0.224 NA
HETATM   13  C18 UNL     1      24.658   3.219  49.855  1.00  0.00     0.235 C 
HETATM   14  N2  UNL     1      23.522   2.767  49.258  1.00  0.00    -0.246 NA
HETATM   15  N3  UNL     1      24.127   4.391  52.885  1.00  0.00    -0.369 N 
HETATM   16  C19 UNL     1      23.069   5.203  52.312  1.00  0.00     0.169 C 
HETATM   17  H23 UNL     1      24.844   4.571  53.624  1.00  0.00     0.161 HD
ENDROOT
BRANCH  10  18
HETATM   18  C14 UNL     1      24.817   0.713  53.216  1.00  0.00     0.071 C 
BRANCH  18  19
HETATM   19  C15 UNL     1      25.978   0.199  52.391  1.00  0.00     0.171 C 
BRANCH  19  20
HETATM   20  O3  UNL     1      27.216   0.625  52.831  1.00  0.00    -0.396 OA
HETATM   21  C16 UNL     1      27.506   0.315  54.127  1.00  0.00     0.201 C 
ENDBRANCH  19  20
ENDBRANCH  18  19
ENDBRANCH  10  18
BRANCH   9  22
HETATM   22  O1  UNL     1      22.416  -0.153  52.479  1.00  0.00    -0.348 OA
BRANCH  22  23
HETATM   23  C10 UNL     1      21.174  -0.139  53.132  1.00  0.00     0.201 C 
BRANCH  23  24
HETATM   24  C11 UNL     1      21.322  -0.202  54.639  1.00  0.00     0.193 C 
BRANCH  24  25
HETATM   25  O2  UNL     1      21.644  -1.489  55.061  1.00  0.00    -0.394 OA
HETATM   26  C12 UNL     1      22.967  -1.485  55.489  1.00  0.00     0.201 C 
ENDBRANCH  24  25
ENDBRANCH  23  24
ENDBRANCH  22  23
ENDBRANCH   9  22
TORSDOF 7
ENDMDL
MODEL 4
REMARK VINA RESULT:      -6.4      3.192      6.092
REMARK  7 active torsions:
REMARK  status: ('A' for Active; 'I' for Inactive)
REMARK    1  A    between atoms: C9_9  and  O1_10 
REMARK    2  A    between atoms: O1_10  and  C10_11 
REMARK    3  A    between atoms: C10_11  and  C11_12 
REMARK    4  A    between atoms: C11_12  and  O2_13 
REMARK    5  A    between atoms: C13_15  and  C14_16 
REMARK    6  A    between atoms: C14_16  and  C15_17 
REMARK    7  A    between atoms: C15_17  and  O3_18 
ROOT
HETATM    1  C1  UNL     1      20.915   5.291  47.802  1.00  0.00     0.017 C 
HETATM    2  C2  UNL     1      21.883   4.712  48.288  1.00  0.00    -0.080 C 
HETATM    3  C3  UNL     1      23.021   4.021  48.863  1.00  0.00     0.014 C 
HETATM    4  C4  UNL     1      23.917   4.716  49.587  1.00  0.00    -0.062 C 
HETATM    5  C5  UNL     1      23.677   6.176  49.744  1.00  0.00     0.045 C 
HETATM    6  C6  UNL     1      25.046   3.986  50.207  1.00  0.00     0.094 C 
HETATM    7  C7  UNL     1      24.613   3.466  51.572  1.00  0.00     0.042 C 
HETATM    8  C8  UNL     1      24.846   2.472  52.481  1.00  0.00     0.065 C 
HETATM    9  C9  UNL     1      24.018   1.200  52.474  1.00  0.00     0.081 C 
HETATM   10  C13 UNL     1      22.781   0.970  51.912  1.00  0.00     0.023 C 
HETATM   11  C17 UNL     1      22.256   1.719  50.690  1.00  0.00     0.134 C 
HETATM   12  N1  UNL     1      21.634   2.883  50.950  1.00  0.00    -0.224 NA
HETATM   13  C18 UNL     1      22.215   4.066  51.628  1.00  0.00     0.235 C 
HETATM   14  N2  UNL     1      23.484   4.319  52.047  1.00  0.00    -0.246 NA
HETATM   15  N3  UNL     1      22.089   1.812  49.231  1.00  0.00    -0.369 N 
HETATM   16  C19 UNL     1      23.090   2.597  48.533  1.00  0.00     0.169 C 
HETATM   17  H23 UNL     1      21.247   1.282  48.911  1.00  0.00     0.161 HD
ENDROOT
BRANCH  10  18
HETATM   18  C14 UNL     1      21.910  -0.026  52.502  1.00  0.00     0.071 C 
BRANCH  18  19
HETATM   19  C15 UNL     1      21.129   0.534  53.673  1.00  0.00     0.171 C 
BRANCH  19  20
HETATM   20  O3  UNL     1      21.369  -0.109  54.871  1.00  0.00    -0.396 OA
HETATM   21  C16 UNL     1      21.793  -1.401  54.757  1.00  0.00     0.201 C 
ENDBRANCH  19  20
ENDBRANCH  18  19
ENDBRANCH  10  18
BRANCH   9  22
HETATM   22  O1  UNL     1      24.499   0.076  53.094  1.00  0.00    -0.348 OA
BRANCH  22  23
HETATM   23  C10 UNL     1      25.881  -0.157  53.154  1.00  0.00     0.201 C 
BRANCH  23  24
HETATM   24  C11 UNL     1      26.412  -0.074  54.572  1.00  0.00     0.193 C 
BRANCH  24  25
HETATM   25  O2  UNL     1      27.677  -0.646  54.671  1.00  0.00    -0.394 OA
HETATM   26  C12 UNL     1      28.606   0.380  54.806  1.00  0.00     0.201 C 
ENDBRANCH  24  25
ENDBRANCH  23  24
ENDBRANCH  22  23
ENDBRANCH   9  22
TORSDOF 7
ENDMDL
MODEL 5
REMARK VINA RESULT:      -6.1      3.028      7.366
REMARK  7 active torsions:
REMARK  status: ('A' for Active; 'I' for Inactive)
REMARK    1  A    between atoms: C9_9  and  O1_10 
REMARK    2  A    between atoms: O1_10  and  C10_11 
REMARK    3  A    between atoms: C10_11  and  C11_12 
REMARK    4  A    between atoms: C11_12  and  O2_13 
REMARK    5  A    between atoms: C13_15  and  C14_16 
REMARK    6  A    between atoms: C14_16  and  C15_17 
REMARK    7  A    between atoms: C15_17  and  O3_18 
ROOT
HETATM    1  C1  UNL     1      18.270   3.290  49.691  1.00  0.00     0.017 C 
HETATM    2  C2  UNL     1      18.966   2.939  50.640  1.00  0.00    -0.080 C 
HETATM    3  C3  UNL     1      19.796   2.530  51.757  1.00  0.00     0.014 C 
HETATM    4  C4  UNL     1      19.670   1.284  52.249  1.00  0.00    -0.062 C 
HETATM    5  C5  UNL     1      18.663   0.398  51.605  1.00  0.00     0.045 C 
HETATM    6  C6  UNL     1      20.558   0.868  53.358  1.00  0.00     0.094 C 
HETATM    7  C7  UNL     1      21.853   0.315  52.777  1.00  0.00     0.042 C 
HETATM    8  C8  UNL     1      23.182   0.147  53.048  1.00  0.00     0.065 C 
HETATM    9  C9  UNL     1      24.205   1.179  52.608  1.00  0.00     0.081 C 
HETATM   10  C13 UNL     1      24.097   2.151  51.637  1.00  0.00     0.023 C 
HETATM   11  C17 UNL     1      22.774   2.793  51.227  1.00  0.00     0.134 C 
HETATM   12  N1  UNL     1      22.083   2.134  50.279  1.00  0.00    -0.224 NA
HETATM   13  C18 UNL     1      21.572   0.746  50.358  1.00  0.00     0.235 C 
HETATM   14  N2  UNL     1      21.569  -0.145  51.386  1.00  0.00    -0.246 NA
HETATM   15  N3  UNL     1      21.782   3.869  51.379  1.00  0.00    -0.369 N 
HETATM   16  C19 UNL     1      20.674   3.581  52.271  1.00  0.00     0.169 C 
HETATM   17  H23 UNL     1      22.036   4.703  50.802  1.00  0.00     0.161 HD
ENDROOT
BRANCH  10  18
HETATM   18  C14 UNL     1      25.291   2.597  50.947  1.00  0.00     0.071 C 
BRANCH  18  19
HETATM   19  C15 UNL     1      25.181   4.045  50.516  1.00  0.00     0.171 C 
BRANCH  19  20
HETATM   20  O3  UNL     1      25.650   4.292  49.241  1.00  0.00    -0.396 OA
HETATM   21  C16 UNL     1      27.008   4.356  49.128  1.00  0.00     0.201 C 
ENDBRANCH  19  20
ENDBRANCH  18  19
ENDBRANCH  10  18
BRANCH   9  22
HETATM   22  O1  UNL     1      25.434   1.215  53.212  1.00  0.00    -0.348 OA
BRANCH  22  23
HETATM   23  C10 UNL     1      26.015   0.033  53.696  1.00  0.00     0.201 C 
BRANCH  23  24
HETATM   24  C11 UNL     1      26.912   0.287  54.892  1.00  0.00     0.193 C 
BRANCH  24  25
HETATM   25  O2  UNL     1      28.080  -0.467  54.815  1.00  0.00    -0.394 OA
HETATM   26  C12 UNL     1      28.937   0.154  53.913  1.00  0.00     0.201 C 
ENDBRANCH  24  25
ENDBRANCH  23  24
ENDBRANCH  22  23
ENDBRANCH   9  22
TORSDOF 7
ENDMDL
MODEL 6
REMARK VINA RESULT:      -5.8      9.386     11.965
REMARK  7 active torsions:
REMARK  status: ('A' for Active; 'I' for Inactive)
REMARK    1  A    between atoms: C9_9  and  O1_10 
REMARK    2  A    between atoms: O1_10  and  C10_11 
REMARK    3  A    between atoms: C10_11  and  C11_12 
REMARK    4  A    between atoms: C11_12  and  O2_13 
REMARK    5  A    between atoms: C13_15  and  C14_16 
REMARK    6  A    between atoms: C14_16  and  C15_17 
REMARK    7  A    between atoms: C15_17  and  O3_18 
ROOT
HETATM    1  C1  UNL     1      31.863   3.385  46.855  1.00  0.00     0.017 C 
HETATM    2  C2  UNL     1      32.220   4.468  47.312  1.00  0.00    -0.080 C 
HETATM    3  C3  UNL     1      32.635   5.746  47.856  1.00  0.00     0.014 C 
HETATM    4  C4  UNL     1      33.345   6.592  47.086  1.00  0.00    -0.062 C 
HETATM    5  C5  UNL     1      33.668   6.143  45.705  1.00  0.00     0.045 C 
HETATM    6  C6  UNL     1      33.718   7.912  47.642  1.00  0.00     0.094 C 
HETATM    7  C7  UNL     1      32.590   8.900  47.376  1.00  0.00     0.042 C 
HETATM    8  C8  UNL     1      32.005  10.038  47.857  1.00  0.00     0.065 C 
HETATM    9  C9  UNL     1      30.823   9.966  48.806  1.00  0.00     0.081 C 
HETATM   10  C13 UNL     1      29.953   8.921  49.034  1.00  0.00     0.023 C 
HETATM   11  C17 UNL     1      30.331   7.453  48.856  1.00  0.00     0.134 C 
HETATM   12  N1  UNL     1      30.181   6.966  47.611  1.00  0.00    -0.224 NA
HETATM   13  C18 UNL     1      30.847   7.456  46.381  1.00  0.00     0.235 C 
HETATM   14  N2  UNL     1      31.811   8.399  46.206  1.00  0.00    -0.246 NA
HETATM   15  N3  UNL     1      30.837   6.193  49.422  1.00  0.00    -0.369 N 
HETATM   16  C19 UNL     1      32.260   5.955  49.254  1.00  0.00     0.169 C 
HETATM   17  H23 UNL     1      30.070   5.643  49.872  1.00  0.00     0.161 HD
ENDROOT
BRANCH  10  18
HETATM   18  C14 UNL     1      28.598   9.209  49.459  1.00  0.00     0.071 C 
BRANCH  18  19
HETATM   19  C15 UNL     1      27.669   9.398  48.278  1.00  0.00     0.171 C 
BRANCH  19  20
HETATM   20  O3  UNL     1      26.558   8.578  48.296  1.00  0.00    -0.396 OA
HETATM   21  C16 UNL     1      26.551   7.638  49.284  1.00  0.00     0.201 C 
ENDBRANCH  19  20
ENDBRANCH  18  19
ENDBRANCH  10  18
BRANCH   9  22
HETATM   22  O1  UNL     1      30.508  11.052  49.581  1.00  0.00    -0.348 OA
BRANCH  22  23
HETATM   23  C10 UNL     1      30.657  12.349  49.068  1.00  0.00     0.201 C 
BRANCH  23  24
HETATM   24  C11 UNL     1      29.420  12.813  48.323  1.00  0.00     0.193 C 
BRANCH  24  25
HETATM   25  O2  UNL     1      28.352  13.012  49.194  1.00  0.00    -0.394 OA
HETATM   26  C12 UNL     1      27.353  13.690  48.505  1.00  0.00     0.201 C 
ENDBRANCH  24  25
ENDBRANCH  23  24
ENDBRANCH  22  23
ENDBRANCH   9  22
TORSDOF 7
ENDMDL
MODEL 7
REMARK VINA RESULT:      -5.5     10.712     13.065
REMARK  7 active torsions:
REMARK  status: ('A' for Active; 'I' for Inactive)
REMARK    1  A    between atoms: C9_9  and  O1_10 
REMARK    2  A    between atoms: O1_10  and  C10_11 
REMARK    3  A    between atoms: C10_11  and  C11_12 
REMARK    4  A    between atoms: C11_12  and  O2_13 
REMARK    5  A    between atoms: C13_15  and  C14_16 
REMARK    6  A    between atoms: C14_16  and  C15_17 
REMARK    7  A    between atoms: C15_17  and  O3_18 
ROOT
HETATM    1  C1  UNL     1      35.239   3.606  45.229  1.00  0.00     0.017 C 
HETATM    2  C2  UNL     1      34.208   4.156  45.607  1.00  0.00    -0.080 C 
HETATM    3  C3  UNL     1      32.994   4.812  46.050  1.00  0.00     0.014 C 
HETATM    4  C4  UNL     1      32.358   4.354  47.144  1.00  0.00    -0.062 C 
HETATM    5  C5  UNL     1      32.953   3.176  47.832  1.00  0.00     0.045 C 
HETATM    6  C6  UNL     1      31.146   5.066  47.610  1.00  0.00     0.094 C 
HETATM    7  C7  UNL     1      31.562   6.196  48.544  1.00  0.00     0.042 C 
HETATM    8  C8  UNL     1      31.180   7.427  48.998  1.00  0.00     0.065 C 
HETATM    9  C9  UNL     1      31.675   8.694  48.327  1.00  0.00     0.081 C 
HETATM   10  C13 UNL     1      32.766   8.873  47.504  1.00  0.00     0.023 C 
HETATM   11  C17 UNL     1      33.344   7.775  46.616  1.00  0.00     0.134 C 
HETATM   12  N1  UNL     1      34.247   6.972  47.206  1.00  0.00    -0.224 NA
HETATM   13  C18 UNL     1      34.029   6.119  48.398  1.00  0.00     0.235 C 
HETATM   14  N2  UNL     1      32.900   5.851  49.108  1.00  0.00    -0.246 NA
HETATM   15  N3  UNL     1      33.399   7.088  45.316  1.00  0.00    -0.369 N 
HETATM   16  C19 UNL     1      32.556   5.912  45.191  1.00  0.00     0.169 C 
HETATM   17  H23 UNL     1      34.057   7.567  44.660  1.00  0.00     0.161 HD
ENDROOT
BRANCH  10  18
HETATM   18  C14 UNL     1      33.422  10.165  47.470  1.00  0.00     0.071 C 
BRANCH  18  19
HETATM   19  C15 UNL     1      33.190  10.878  46.154  1.00  0.00     0.171 C 
BRANCH  19  20
HETATM   20  O3  UNL     1      32.199  11.838  46.199  1.00  0.00    -0.396 OA
HETATM   21  C16 UNL     1      31.145  11.619  45.360  1.00  0.00     0.201 C 
ENDBRANCH  19  20
ENDBRANCH  18  19
ENDBRANCH  10  18
BRANCH   9  22
HETATM   22  O1  UNL     1      30.996   9.870  48.514  1.00  0.00    -0.348 OA
BRANCH  22  23
HETATM   23  C10 UNL     1      29.608   9.920  48.317  1.00  0.00     0.201 C 
BRANCH  23  24
HETATM   24  C11 UNL     1      29.036  11.287  48.634  1.00  0.00     0.193 C 
BRANCH  24  25
HETATM   25  O2  UNL     1      27.836  11.182  49.333  1.00  0.00    -0.394 OA
HETATM   26  C12 UNL     1      27.538   9.832  49.479  1.00  0.00     0.201 C 
ENDBRANCH  24  25
ENDBRANCH  23  24
ENDBRANCH  22  23
ENDBRANCH   9  22
TORSDOF 7
ENDMDL
MODEL 8
REMARK VINA RESULT:      -5.3      3.378      4.966
REMARK  7 active torsions:
REMARK  status: ('A' for Active; 'I' for Inactive)
REMARK    1  A    between atoms: C9_9  and  O1_10 
REMARK    2  A    between atoms: O1_10  and  C10_11 
REMARK    3  A    between atoms: C10_11  and  C11_12 
REMARK    4  A    between atoms: C11_12  and  O2_13 
REMARK    5  A    between atoms: C13_15  and  C14_16 
REMARK    6  A    between atoms: C14_16  and  C15_17 
REMARK    7  A    between atoms: C15_17  and  O3_18 
ROOT
HETATM    1  C1  UNL     1      26.476   3.285  49.855  1.00  0.00     0.017 C 
HETATM    2  C2  UNL     1      25.465   3.853  50.256  1.00  0.00    -0.080 C 
HETATM    3  C3  UNL     1      24.267   4.517  50.734  1.00  0.00     0.014 C 
HETATM    4  C4  UNL     1      23.625   5.380  49.926  1.00  0.00    -0.062 C 
HETATM    5  C5  UNL     1      24.203   5.602  48.573  1.00  0.00     0.045 C 
HETATM    6  C6  UNL     1      22.378   6.012  50.413  1.00  0.00     0.094 C 
HETATM    7  C7  UNL     1      21.199   5.104  50.085  1.00  0.00     0.042 C 
HETATM    8  C8  UNL     1      19.943   4.761  50.500  1.00  0.00     0.065 C 
HETATM    9  C9  UNL     1      19.725   3.591  51.442  1.00  0.00     0.081 C 
HETATM   10  C13 UNL     1      20.561   2.531  51.719  1.00  0.00     0.023 C 
HETATM   11  C17 UNL     1      22.082   2.606  51.623  1.00  0.00     0.134 C 
HETATM   12  N1  UNL     1      22.596   2.357  50.404  1.00  0.00    -0.224 NA
HETATM   13  C18 UNL     1      22.317   3.104  49.156  1.00  0.00     0.235 C 
HETATM   14  N2  UNL     1      21.597   4.238  48.937  1.00  0.00    -0.246 NA
HETATM   15  N3  UNL     1      23.386   2.850  52.259  1.00  0.00    -0.369 N 
HETATM   16  C19 UNL     1      23.912   4.196  52.116  1.00  0.00     0.169 C 
HETATM   17  H23 UNL     1      23.745   1.990  52.732  1.00  0.00     0.161 HD
ENDROOT
BRANCH  10  18
HETATM   18  C14 UNL     1      19.985   1.261  52.117  1.00  0.00     0.071 C 
BRANCH  18  19
HETATM   19  C15 UNL     1      20.583   0.756  53.413  1.00  0.00     0.171 C 
BRANCH  19  20
HETATM   20  O3  UNL     1      20.957  -0.572  53.382  1.00  0.00    -0.396 OA
HETATM   21  C16 UNL     1      22.268  -0.796  53.078  1.00  0.00     0.201 C 
ENDBRANCH  19  20
ENDBRANCH  18  19
ENDBRANCH  10  18
BRANCH   9  22
HETATM   22  O1  UNL     1      18.558   3.503  52.155  1.00  0.00    -0.348 OA
BRANCH  22  23
HETATM   23  C10 UNL     1      17.334   3.806  51.540  1.00  0.00     0.201 C 
BRANCH  23  24
HETATM   24  C11 UNL     1      16.658   2.571  50.977  1.00  0.00     0.193 C 
BRANCH  24  25
HETATM   25  O2  UNL     1      16.283   2.762  49.650  1.00  0.00    -0.394 OA
HETATM   26  C12 UNL     1      17.359   2.412  48.842  1.00  0.00     0.201 C 
ENDBRANCH  24  25
ENDBRANCH  23  24
ENDBRANCH  22  23
ENDBRANCH   9  22
TORSDOF 7
ENDMDL
MODEL 9
REMARK VINA RESULT:      -5.3      4.311      6.576
REMARK  7 active torsions:
REMARK  status: ('A' for Active; 'I' for Inactive)
REMARK    1  A    between atoms: C9_9  and  O1_10 
REMARK    2  A    between atoms: O1_10  and  C10_11 
REMARK    3  A    between atoms: C10_11  and  C11_12 
REMARK    4  A    between atoms: C11_12  and  O2_13 
REMARK    5  A    between atoms: C13_15  and  C14_16 
REMARK    6  A    between atoms: C14_16  and  C15_17 
REMARK    7  A    between atoms: C15_17  and  O3_18 
ROOT
HETATM    1  C1  UNL     1      26.337   8.517  48.746  1.00  0.00     0.017 C 
HETATM    2  C2  UNL     1      25.235   8.087  49.076  1.00  0.00    -0.080 C 
HETATM    3  C3  UNL     1      23.937   7.576  49.472  1.00  0.00     0.014 C 
HETATM    4  C4  UNL     1      23.091   7.121  48.529  1.00  0.00    -0.062 C 
HETATM    5  C5  UNL     1      23.554   7.180  47.117  1.00  0.00     0.045 C 
HETATM    6  C6  UNL     1      21.790   6.559  48.956  1.00  0.00     0.094 C 
HETATM    7  C7  UNL     1      21.965   5.077  49.263  1.00  0.00     0.042 C 
HETATM    8  C8  UNL     1      21.462   4.057  50.020  1.00  0.00     0.065 C 
HETATM    9  C9  UNL     1      22.057   3.725  51.377  1.00  0.00     0.081 C 
HETATM   10  C13 UNL     1      23.295   4.052  51.886  1.00  0.00     0.023 C 
HETATM   11  C17 UNL     1      24.080   5.293  51.469  1.00  0.00     0.134 C 
HETATM   12  N1  UNL     1      24.855   5.146  50.379  1.00  0.00    -0.224 NA
HETATM   13  C18 UNL     1      24.406   4.772  49.017  1.00  0.00     0.235 C 
HETATM   14  N2  UNL     1      23.157   4.593  48.508  1.00  0.00    -0.246 NA
HETATM   15  N3  UNL     1      24.432   6.706  51.681  1.00  0.00    -0.369 N 
HETATM   16  C19 UNL     1      23.667   7.667  50.907  1.00  0.00     0.169 C 
HETATM   17  H23 UNL     1      25.203   6.804  52.379  1.00  0.00     0.161 HD
ENDROOT
BRANCH  10  18
HETATM   18  C14 UNL     1      23.910   3.180  52.867  1.00  0.00     0.071 C 
BRANCH  18  19
HETATM   19  C15 UNL     1      24.415   1.898  52.238  1.00  0.00     0.171 C 
BRANCH  19  20
HETATM   20  O3  UNL     1      25.730   1.603  52.537  1.00  0.00    -0.396 OA
HETATM   21  C16 UNL     1      26.656   2.359  51.878  1.00  0.00     0.201 C 
ENDBRANCH  19  20
ENDBRANCH  18  19
ENDBRANCH  10  18
BRANCH   9  22
HETATM   22  O1  UNL     1      21.324   3.001  52.280  1.00  0.00    -0.348 OA
BRANCH  22  23
HETATM   23  C10 UNL     1      20.669   1.828  51.875  1.00  0.00     0.201 C 
BRANCH  23  24
HETATM   24  C11 UNL     1      20.365   0.912  53.044  1.00  0.00     0.193 C 
BRANCH  24  25
HETATM   25  O2  UNL     1      21.178  -0.218  53.024  1.00  0.00    -0.394 OA
HETATM   26  C12 UNL     1      22.015  -0.169  54.133  1.00  0.00     0.201 C 
ENDBRANCH  24  25
ENDBRANCH  23  24
ENDBRANCH  22  23
ENDBRANCH   9  22
TORSDOF 7
ENDMDL
