MODEL 1
REMARK VINA RESULT:      -8.5      0.000      0.000
REMARK  6 active torsions:
REMARK  status: ('A' for Active; 'I' for Inactive)
REMARK    1  A    between atoms: O1_2  and  C2_3 
REMARK    2  A    between atoms: C8_11  and  N3_12 
REMARK    3  A    between atoms: N3_12  and  C9_13 
REMARK    4  A    between atoms: C9_13  and  C10_14 
REMARK    5  A    between atoms: C18_24  and  C19_25 
REMARK    6  A    between atoms: C19_25  and  N4_26 
ROOT
HETATM    1  C2  UNL     1      27.461  -0.036  53.870  1.00  0.00     0.078 A 
HETATM    2  C3  UNL     1      26.170  -0.524  53.850  1.00  0.00     0.069 A 
HETATM    3  C4  UNL     1      25.062   0.190  53.474  1.00  0.00     0.071 A 
HETATM    4  N1  UNL     1      23.845  -0.407  53.506  1.00  0.00    -0.259 NA
HETATM    5  C5  UNL     1      22.735   0.297  53.142  1.00  0.00     0.142 A 
HETATM    6  C6  UNL     1      22.840   1.609  52.741  1.00  0.00     0.089 A 
HETATM    7  C7  UNL     1      21.752   2.429  52.343  1.00  0.00     0.103 C 
HETATM    8  N2  UNL     1      20.838   3.097  52.023  1.00  0.00    -0.191 NA
HETATM    9  C8  UNL     1      24.091   2.230  52.705  1.00  0.00     0.067 A 
HETATM   10  C16 UNL     1      25.204   1.511  53.074  1.00  0.00     0.022 A 
HETATM   11  C17 UNL     1      26.475   2.030  53.082  1.00  0.00     0.027 A 
HETATM   12  C18 UNL     1      27.599   1.296  53.468  1.00  0.00     0.004 A 
ENDROOT
BRANCH   9  13
HETATM   13  N3  UNL     1      24.300   3.569  52.319  1.00  0.00    -0.363 N 
HETATM   14  H6  UNL     1      24.375   4.495  52.836  1.00  0.00     0.165 HD
BRANCH  13  15
HETATM   15  C9  UNL     1      24.474   4.099  51.062  1.00  0.00     0.100 C 
BRANCH  15  16
HETATM   16  C10 UNL     1      25.172   4.886  50.282  1.00  0.00    -0.017 A 
HETATM   17  C11 UNL     1      26.313   4.189  49.696  1.00  0.00     0.050 A 
HETATM   18  C12 UNL     1      27.169   4.796  48.869  1.00  0.00     0.099 A 
HETATM   19  F1  UNL     1      28.288   4.330  48.221  1.00  0.00    -0.210 F 
HETATM   20  C13 UNL     1      26.968   6.221  48.527  1.00  0.00     0.121 A 
HETATM   21  C14 UNL     1      25.802   6.817  49.161  1.00  0.00     0.019 A 
HETATM   22 CL1  UNL     1      25.578   8.493  48.745  1.00  0.00    -0.089 Cl
HETATM   23  C15 UNL     1      24.935   6.277  49.972  1.00  0.00     0.032 A 
ENDBRANCH  15  16
ENDBRANCH  13  15
ENDBRANCH   9  13
BRANCH  12  24
HETATM   24  C19 UNL     1      28.931   2.003  53.441  1.00  0.00     0.308 C 
BRANCH  24  25
HETATM   25  N4  UNL     1      29.430   2.059  54.792  1.00  0.00     0.082 N 
HETATM   26  H15 UNL     1      29.797   1.116  55.049  1.00  0.00     0.313 HD
HETATM   27  H16 UNL     1      30.121   2.829  54.846  1.00  0.00     0.313 HD
ENDBRANCH  24  25
ENDBRANCH  12  24
BRANCH   1  28
HETATM   28  O1  UNL     1      28.656  -0.598  54.206  1.00  0.00    -0.355 OA
HETATM   29  C1  UNL     1      29.281  -1.580  53.427  1.00  0.00     0.210 C 
ENDBRANCH   1  28
TORSDOF 6
ENDMDL
MODEL 2
REMARK VINA RESULT:      -8.3      2.791      5.461
REMARK  6 active torsions:
REMARK  status: ('A' for Active; 'I' for Inactive)
REMARK    1  A    between atoms: O1_2  and  C2_3 
REMARK    2  A    between atoms: C8_11  and  N3_12 
REMARK    3  A    between atoms: N3_12  and  C9_13 
REMARK    4  A    between atoms: C9_13  and  C10_14 
REMARK    5  A    between atoms: C18_24  and  C19_25 
REMARK    6  A    between atoms: C19_25  and  N4_26 
ROOT
HETATM    1  C2  UNL     1      20.239  -0.534  53.338  1.00  0.00     0.078 A 
HETATM    2  C3  UNL     1      21.032  -0.984  54.375  1.00  0.00     0.069 A 
HETATM    3  C4  UNL     1      22.395  -0.857  54.437  1.00  0.00     0.071 A 
HETATM    4  N1  UNL     1      23.058  -1.349  55.513  1.00  0.00    -0.259 NA
HETATM    5  C5  UNL     1      24.416  -1.235  55.582  1.00  0.00     0.142 A 
HETATM    6  C6  UNL     1      25.118  -0.624  54.569  1.00  0.00     0.089 A 
HETATM    7  C7  UNL     1      26.527  -0.454  54.542  1.00  0.00     0.103 C 
HETATM    8  N2  UNL     1      27.697  -0.328  54.532  1.00  0.00    -0.191 NA
HETATM    9  C8  UNL     1      24.441  -0.114  53.459  1.00  0.00     0.067 A 
HETATM   10  C16 UNL     1      23.072  -0.233  53.399  1.00  0.00     0.022 A 
HETATM   11  C17 UNL     1      22.314   0.226  52.350  1.00  0.00     0.027 A 
HETATM   12  C18 UNL     1      20.926   0.092  52.293  1.00  0.00     0.004 A 
ENDROOT
BRANCH   9  13
HETATM   13  N3  UNL     1      25.071   0.520  52.369  1.00  0.00    -0.363 N 
HETATM   14  H6  UNL     1      25.502   0.187  51.456  1.00  0.00     0.165 HD
BRANCH  13  15
HETATM   15  C9  UNL     1      25.330   1.855  52.165  1.00  0.00     0.100 C 
BRANCH  15  16
HETATM   16  C10 UNL     1      25.283   2.877  51.348  1.00  0.00    -0.017 A 
HETATM   17  C11 UNL     1      26.442   2.912  50.462  1.00  0.00     0.050 A 
HETATM   18  C12 UNL     1      26.608   3.870  49.546  1.00  0.00     0.099 A 
HETATM   19  F1  UNL     1      27.610   4.084  48.629  1.00  0.00    -0.210 F 
HETATM   20  C13 UNL     1      25.594   4.938  49.414  1.00  0.00     0.121 A 
HETATM   21  C14 UNL     1      24.481   4.807  50.341  1.00  0.00     0.019 A 
HETATM   22 CL1  UNL     1      23.294   6.071  50.171  1.00  0.00    -0.089 Cl
HETATM   23  C15 UNL     1      24.266   3.898  51.252  1.00  0.00     0.032 A 
ENDBRANCH  15  16
ENDBRANCH  13  15
ENDBRANCH   9  13
BRANCH  12  24
HETATM   24  C19 UNL     1      20.227   0.632  51.070  1.00  0.00     0.308 C 
BRANCH  24  25
HETATM   25  N4  UNL     1      19.516   1.825  51.457  1.00  0.00     0.082 N 
HETATM   26  H15 UNL     1      19.768   2.591  50.793  1.00  0.00     0.313 HD
HETATM   27  H16 UNL     1      18.506   1.595  51.500  1.00  0.00     0.313 HD
ENDBRANCH  24  25
ENDBRANCH  12  24
BRANCH   1  28
HETATM   28  O1  UNL     1      18.894  -0.573  53.118  1.00  0.00    -0.355 OA
HETATM   29  C1  UNL     1      18.106  -1.690  53.425  1.00  0.00     0.210 C 
ENDBRANCH   1  28
TORSDOF 6
ENDMDL
MODEL 3
REMARK VINA RESULT:      -8.2      4.145      7.190
REMARK  6 active torsions:
REMARK  status: ('A' for Active; 'I' for Inactive)
REMARK    1  A    between atoms: O1_2  and  C2_3 
REMARK    2  A    between atoms: C8_11  and  N3_12 
REMARK    3  A    between atoms: N3_12  and  C9_13 
REMARK    4  A    between atoms: C9_13  and  C10_14 
REMARK    5  A    between atoms: C18_24  and  C19_25 
REMARK    6  A    between atoms: C19_25  and  N4_26 
ROOT
HETATM    1  C2  UNL     1      27.853   7.157  47.851  1.00  0.00     0.078 A 
HETATM    2  C3  UNL     1      26.486   7.264  48.017  1.00  0.00     0.069 A 
HETATM    3  C4  UNL     1      25.679   6.294  48.552  1.00  0.00     0.071 A 
HETATM    4  N1  UNL     1      24.346   6.523  48.655  1.00  0.00    -0.259 NA
HETATM    5  C5  UNL     1      23.531   5.562  49.179  1.00  0.00     0.142 A 
HETATM    6  C6  UNL     1      24.052   4.361  49.603  1.00  0.00     0.089 A 
HETATM    7  C7  UNL     1      23.296   3.297  50.161  1.00  0.00     0.103 C 
HETATM    8  N2  UNL     1      22.653   2.423  50.614  1.00  0.00    -0.191 NA
HETATM    9  C8  UNL     1      25.424   4.119  49.501  1.00  0.00     0.067 A 
HETATM   10  C16 UNL     1      26.236   5.095  48.973  1.00  0.00     0.022 A 
HETATM   11  C17 UNL     1      27.594   4.954  48.821  1.00  0.00     0.027 A 
HETATM   12  C18 UNL     1      28.410   5.946  48.274  1.00  0.00     0.004 A 
ENDROOT
BRANCH   9  13
HETATM   13  N3  UNL     1      26.049   2.921  49.900  1.00  0.00    -0.363 N 
HETATM   14  H6  UNL     1      26.310   2.014  49.411  1.00  0.00     0.165 HD
BRANCH  13  15
HETATM   15  C9  UNL     1      26.532   2.556  51.135  1.00  0.00     0.100 C 
BRANCH  15  16
HETATM   16  C10 UNL     1      27.002   1.602  51.899  1.00  0.00    -0.017 A 
HETATM   17  C11 UNL     1      27.905   2.124  52.919  1.00  0.00     0.050 A 
HETATM   18  C12 UNL     1      28.507   1.332  53.810  1.00  0.00     0.099 A 
HETATM   19  F1  UNL     1      29.379   1.616  54.834  1.00  0.00    -0.210 F 
HETATM   20  C13 UNL     1      28.260  -0.126  53.774  1.00  0.00     0.121 A 
HETATM   21  C14 UNL     1      27.343  -0.540  52.723  1.00  0.00     0.019 A 
HETATM   22 CL1  UNL     1      27.061  -2.258  52.696  1.00  0.00    -0.089 Cl
HETATM   23  C15 UNL     1      26.729   0.185  51.830  1.00  0.00     0.032 A 
ENDBRANCH  15  16
ENDBRANCH  13  15
ENDBRANCH   9  13
BRANCH  12  24
HETATM   24  C19 UNL     1      29.882   5.645  48.155  1.00  0.00     0.308 C 
BRANCH  24  25
HETATM   25  N4  UNL     1      30.544   6.206  49.307  1.00  0.00     0.082 N 
HETATM   26  H15 UNL     1      29.817   6.485  50.003  1.00  0.00     0.313 HD
HETATM   27  H16 UNL     1      31.235   5.513  49.647  1.00  0.00     0.313 HD
ENDBRANCH  24  25
ENDBRANCH  12  24
BRANCH   1  28
HETATM   28  O1  UNL     1      28.792   8.008  47.349  1.00  0.00    -0.355 OA
HETATM   29  C1  UNL     1      28.566   9.382  47.190  1.00  0.00     0.210 C 
ENDBRANCH   1  28
TORSDOF 6
ENDMDL
MODEL 4
REMARK VINA RESULT:      -8.1      3.743      6.399
REMARK  6 active torsions:
REMARK  status: ('A' for Active; 'I' for Inactive)
REMARK    1  A    between atoms: O1_2  and  C2_3 
REMARK    2  A    between atoms: C8_11  and  N3_12 
REMARK    3  A    between atoms: N3_12  and  C9_13 
REMARK    4  A    between atoms: C9_13  and  C10_14 
REMARK    5  A    between atoms: C18_24  and  C19_25 
REMARK    6  A    between atoms: C19_25  and  N4_26 
ROOT
HETATM    1  C2  UNL     1      20.668   0.660  53.190  1.00  0.00     0.078 A 
HETATM    2  C3  UNL     1      20.521   1.954  52.733  1.00  0.00     0.069 A 
HETATM    3  C4  UNL     1      21.519   2.713  52.179  1.00  0.00     0.071 A 
HETATM    4  N1  UNL     1      21.244   3.978  51.774  1.00  0.00    -0.259 NA
HETATM    5  C5  UNL     1      22.231   4.745  51.228  1.00  0.00     0.142 A 
HETATM    6  C6  UNL     1      23.505   4.245  51.086  1.00  0.00     0.089 A 
HETATM    7  C7  UNL     1      24.602   4.956  50.533  1.00  0.00     0.103 C 
HETATM    8  N2  UNL     1      25.502   5.563  50.079  1.00  0.00    -0.191 NA
HETATM    9  C8  UNL     1      23.795   2.943  51.500  1.00  0.00     0.067 A 
HETATM   10  C16 UNL     1      22.792   2.177  52.047  1.00  0.00     0.022 A 
HETATM   11  C17 UNL     1      22.974   0.892  52.494  1.00  0.00     0.027 A 
HETATM   12  C18 UNL     1      21.953   0.125  53.058  1.00  0.00     0.004 A 
ENDROOT
BRANCH   9  13
HETATM   13  N3  UNL     1      25.068   2.346  51.404  1.00  0.00    -0.363 N 
HETATM   14  H6  UNL     1      25.611   1.860  50.629  1.00  0.00     0.165 HD
BRANCH  13  15
HETATM   15  C9  UNL     1      26.044   2.208  52.363  1.00  0.00     0.100 C 
BRANCH  15  16
HETATM   16  C10 UNL     1      27.043   1.500  52.828  1.00  0.00    -0.017 A 
HETATM   17  C11 UNL     1      27.987   2.326  53.573  1.00  0.00     0.050 A 
HETATM   18  C12 UNL     1      29.086   1.818  54.137  1.00  0.00     0.099 A 
HETATM   19  F1  UNL     1      30.088   2.412  54.868  1.00  0.00    -0.210 F 
HETATM   20  C13 UNL     1      29.371   0.372  54.009  1.00  0.00     0.121 A 
HETATM   21  C14 UNL     1      28.366  -0.358  53.251  1.00  0.00     0.019 A 
HETATM   22 CL1  UNL     1      28.715  -2.058  53.112  1.00  0.00    -0.089 Cl
HETATM   23  C15 UNL     1      27.279   0.083  52.681  1.00  0.00     0.032 A 
ENDBRANCH  15  16
ENDBRANCH  13  15
ENDBRANCH   9  13
BRANCH  12  24
HETATM   24  C19 UNL     1      22.305  -1.267  53.517  1.00  0.00     0.308 C 
BRANCH  24  25
HETATM   25  N4  UNL     1      22.326  -1.267  54.959  1.00  0.00     0.082 N 
HETATM   26  H15 UNL     1      23.266  -1.594  55.276  1.00  0.00     0.313 HD
HETATM   27  H16 UNL     1      22.059  -0.319  55.282  1.00  0.00     0.313 HD
ENDBRANCH  24  25
ENDBRANCH  12  24
BRANCH   1  28
HETATM   28  O1  UNL     1      19.798  -0.225  53.755  1.00  0.00    -0.355 OA
HETATM   29  C1  UNL     1      18.700  -0.757  53.067  1.00  0.00     0.210 C 
ENDBRANCH   1  28
TORSDOF 6
ENDMDL
MODEL 5
REMARK VINA RESULT:      -8.0      4.753      7.179
REMARK  6 active torsions:
REMARK  status: ('A' for Active; 'I' for Inactive)
REMARK    1  A    between atoms: O1_2  and  C2_3 
REMARK    2  A    between atoms: C8_11  and  N3_12 
REMARK    3  A    between atoms: N3_12  and  C9_13 
REMARK    4  A    between atoms: C9_13  and  C10_14 
REMARK    5  A    between atoms: C18_24  and  C19_25 
REMARK    6  A    between atoms: C19_25  and  N4_26 
ROOT
HETATM    1  C2  UNL     1      19.321   0.521  51.204  1.00  0.00     0.078 A 
HETATM    2  C3  UNL     1      19.410  -0.347  52.274  1.00  0.00     0.069 A 
HETATM    3  C4  UNL     1      20.529  -0.541  53.041  1.00  0.00     0.071 A 
HETATM    4  N1  UNL     1      20.487  -1.431  54.063  1.00  0.00    -0.259 NA
HETATM    5  C5  UNL     1      21.597  -1.637  54.829  1.00  0.00     0.142 A 
HETATM    6  C6  UNL     1      22.760  -0.949  54.572  1.00  0.00     0.089 A 
HETATM    7  C7  UNL     1      23.968  -1.088  55.305  1.00  0.00     0.103 C 
HETATM    8  N2  UNL     1      24.962  -1.222  55.919  1.00  0.00    -0.191 NA
HETATM    9  C8  UNL     1      22.811  -0.030  53.522  1.00  0.00     0.067 A 
HETATM   10  C16 UNL     1      21.685   0.172  52.756  1.00  0.00     0.022 A 
HETATM   11  C17 UNL     1      21.633   1.044  51.697  1.00  0.00     0.027 A 
HETATM   12  C18 UNL     1      20.489   1.235  50.919  1.00  0.00     0.004 A 
ENDROOT
BRANCH   9  13
HETATM   13  N3  UNL     1      23.955   0.715  53.175  1.00  0.00    -0.363 N 
HETATM   14  H6  UNL     1      24.189   1.751  53.133  1.00  0.00     0.165 HD
BRANCH  13  15
HETATM   15  C9  UNL     1      25.190   0.278  52.757  1.00  0.00     0.100 C 
BRANCH  15  16
HETATM   16  C10 UNL     1      26.476   0.210  52.994  1.00  0.00    -0.017 A 
HETATM   17  C11 UNL     1      27.058   1.532  53.194  1.00  0.00     0.050 A 
HETATM   18  C12 UNL     1      28.358   1.707  53.446  1.00  0.00     0.099 A 
HETATM   19  F1  UNL     1      29.096   2.847  53.661  1.00  0.00    -0.210 F 
HETATM   20  C13 UNL     1      29.251   0.530  53.527  1.00  0.00     0.121 A 
HETATM   21  C14 UNL     1      28.569  -0.738  53.316  1.00  0.00     0.019 A 
HETATM   22 CL1  UNL     1      29.633  -2.113  53.417  1.00  0.00    -0.089 Cl
HETATM   23  C15 UNL     1      27.310  -0.968  53.068  1.00  0.00     0.032 A 
ENDBRANCH  15  16
ENDBRANCH  13  15
ENDBRANCH   9  13
BRANCH  12  24
HETATM   24  C19 UNL     1      20.584   2.216  49.778  1.00  0.00     0.308 C 
BRANCH  24  25
HETATM   25  N4  UNL     1      19.959   3.445  50.198  1.00  0.00     0.082 N 
HETATM   26  H15 UNL     1      20.345   3.711  51.131  1.00  0.00     0.313 HD
HETATM   27  H16 UNL     1      20.100   4.147  49.448  1.00  0.00     0.313 HD
ENDBRANCH  24  25
ENDBRANCH  12  24
BRANCH   1  28
HETATM   28  O1  UNL     1      18.306   0.834  50.350  1.00  0.00    -0.355 OA
HETATM   29  C1  UNL     1      17.195   0.003  50.151  1.00  0.00     0.210 C 
ENDBRANCH   1  28
TORSDOF 6
ENDMDL
MODEL 6
REMARK VINA RESULT:      -7.9      2.372      2.668
REMARK  6 active torsions:
REMARK  status: ('A' for Active; 'I' for Inactive)
REMARK    1  A    between atoms: O1_2  and  C2_3 
REMARK    2  A    between atoms: C8_11  and  N3_12 
REMARK    3  A    between atoms: N3_12  and  C9_13 
REMARK    4  A    between atoms: C9_13  and  C10_14 
REMARK    5  A    between atoms: C18_24  and  C19_25 
REMARK    6  A    between atoms: C19_25  and  N4_26 
ROOT
HETATM    1  C2  UNL     1      26.955  -0.217  53.773  1.00  0.00     0.078 A 
HETATM    2  C3  UNL     1      25.691  -0.764  53.860  1.00  0.00     0.069 A 
HETATM    3  C4  UNL     1      24.523  -0.099  53.590  1.00  0.00     0.071 A 
HETATM    4  N1  UNL     1      23.342  -0.753  53.721  1.00  0.00    -0.259 NA
HETATM    5  C5  UNL     1      22.173  -0.099  53.462  1.00  0.00     0.142 A 
HETATM    6  C6  UNL     1      22.183   1.220  53.069  1.00  0.00     0.089 A 
HETATM    7  C7  UNL     1      21.028   1.991  52.775  1.00  0.00     0.103 C 
HETATM    8  N2  UNL     1      20.060   2.618  52.544  1.00  0.00    -0.191 NA
HETATM    9  C8  UNL     1      23.396   1.899  52.931  1.00  0.00     0.067 A 
HETATM   10  C16 UNL     1      24.569   1.229  53.193  1.00  0.00     0.022 A 
HETATM   11  C17 UNL     1      25.811   1.806  53.096  1.00  0.00     0.027 A 
HETATM   12  C18 UNL     1      26.997   1.123  53.375  1.00  0.00     0.004 A 
ENDROOT
BRANCH   9  13
HETATM   13  N3  UNL     1      23.509   3.248  52.542  1.00  0.00    -0.363 N 
HETATM   14  H6  UNL     1      23.544   4.176  53.060  1.00  0.00     0.165 HD
BRANCH  13  15
HETATM   15  C9  UNL     1      23.610   3.790  51.282  1.00  0.00     0.100 C 
BRANCH  15  16
HETATM   16  C10 UNL     1      23.201   3.776  50.038  1.00  0.00    -0.017 A 
HETATM   17  C11 UNL     1      22.854   2.429  49.599  1.00  0.00     0.050 A 
HETATM   18  C12 UNL     1      22.415   2.174  48.363  1.00  0.00     0.099 A 
HETATM   19  F1  UNL     1      22.041   0.997  47.758  1.00  0.00    -0.210 F 
HETATM   20  C13 UNL     1      22.272   3.283  47.396  1.00  0.00     0.121 A 
HETATM   21  C14 UNL     1      22.641   4.583  47.936  1.00  0.00     0.019 A 
HETATM   22 CL1  UNL     1      22.465   5.878  46.785  1.00  0.00    -0.089 Cl
HETATM   23  C15 UNL     1      23.073   4.890  49.127  1.00  0.00     0.032 A 
ENDBRANCH  15  16
ENDBRANCH  13  15
ENDBRANCH   9  13
BRANCH  12  24
HETATM   24  C19 UNL     1      28.287   1.891  53.239  1.00  0.00     0.308 C 
BRANCH  24  25
HETATM   25  N4  UNL     1      28.823   2.094  54.563  1.00  0.00     0.082 N 
HETATM   26  H15 UNL     1      29.201   1.184  54.910  1.00  0.00     0.313 HD
HETATM   27  H16 UNL     1      29.512   2.866  54.513  1.00  0.00     0.313 HD
ENDBRANCH  24  25
ENDBRANCH  12  24
BRANCH   1  28
HETATM   28  O1  UNL     1      28.200  -0.725  53.997  1.00  0.00    -0.355 OA
HETATM   29  C1  UNL     1      28.737  -1.780  53.249  1.00  0.00     0.210 C 
ENDBRANCH   1  28
TORSDOF 6
ENDMDL
MODEL 7
REMARK VINA RESULT:      -7.9      3.762      5.983
REMARK  6 active torsions:
REMARK  status: ('A' for Active; 'I' for Inactive)
REMARK    1  A    between atoms: O1_2  and  C2_3 
REMARK    2  A    between atoms: C8_11  and  N3_12 
REMARK    3  A    between atoms: N3_12  and  C9_13 
REMARK    4  A    between atoms: C9_13  and  C10_14 
REMARK    5  A    between atoms: C18_24  and  C19_25 
REMARK    6  A    between atoms: C19_25  and  N4_26 
ROOT
HETATM    1  C2  UNL     1      26.861  -0.076  52.929  1.00  0.00     0.078 A 
HETATM    2  C3  UNL     1      27.167   0.862  51.963  1.00  0.00     0.069 A 
HETATM    3  C4  UNL     1      26.334   1.868  51.548  1.00  0.00     0.071 A 
HETATM    4  N1  UNL     1      26.755   2.722  50.582  1.00  0.00    -0.259 NA
HETATM    5  C5  UNL     1      25.931   3.723  50.156  1.00  0.00     0.142 A 
HETATM    6  C6  UNL     1      24.675   3.871  50.697  1.00  0.00     0.089 A 
HETATM    7  C7  UNL     1      23.741   4.874  50.327  1.00  0.00     0.103 C 
HETATM    8  N2  UNL     1      22.977   5.707  50.002  1.00  0.00    -0.191 NA
HETATM    9  C8  UNL     1      24.235   2.995  51.692  1.00  0.00     0.067 A 
HETATM   10  C16 UNL     1      25.074   1.991  52.117  1.00  0.00     0.022 A 
HETATM   11  C17 UNL     1      24.736   1.074  53.080  1.00  0.00     0.027 A 
HETATM   12  C18 UNL     1      25.589   0.051  53.497  1.00  0.00     0.004 A 
ENDROOT
BRANCH   9  13
HETATM   13  N3  UNL     1      22.966   3.060  52.301  1.00  0.00    -0.363 N 
HETATM   14  H6  UNL     1      22.549   3.617  53.105  1.00  0.00     0.165 HD
BRANCH  13  15
HETATM   15  C9  UNL     1      21.818   2.363  52.006  1.00  0.00     0.100 C 
BRANCH  15  16
HETATM   16  C10 UNL     1      21.009   1.383  52.321  1.00  0.00    -0.017 A 
HETATM   17  C11 UNL     1      21.523   0.598  53.438  1.00  0.00     0.050 A 
HETATM   18  C12 UNL     1      20.865  -0.456  53.929  1.00  0.00     0.099 A 
HETATM   19  F1  UNL     1      21.170  -1.316  54.958  1.00  0.00    -0.210 F 
HETATM   20  C13 UNL     1      19.573  -0.854  53.331  1.00  0.00     0.121 A 
HETATM   21  C14 UNL     1      19.151  -0.004  52.227  1.00  0.00     0.019 A 
HETATM   22 CL1  UNL     1      17.627  -0.485  51.536  1.00  0.00    -0.089 Cl
HETATM   23  C15 UNL     1      19.749   1.032  51.708  1.00  0.00     0.032 A 
ENDBRANCH  15  16
ENDBRANCH  13  15
ENDBRANCH   9  13
BRANCH  12  24
HETATM   24  C19 UNL     1      25.076  -0.893  54.555  1.00  0.00     0.308 C 
BRANCH  24  25
HETATM   25  N4  UNL     1      25.800  -0.629  55.774  1.00  0.00     0.082 N 
HETATM   26  H15 UNL     1      25.153  -0.166  56.451  1.00  0.00     0.313 HD
HETATM   27  H16 UNL     1      26.212  -1.522  56.100  1.00  0.00     0.313 HD
ENDBRANCH  24  25
ENDBRANCH  12  24
BRANCH   1  28
HETATM   28  O1  UNL     1      27.558  -1.122  53.455  1.00  0.00    -0.355 OA
HETATM   29  C1  UNL     1      28.958  -1.178  53.459  1.00  0.00     0.210 C 
ENDBRANCH   1  28
TORSDOF 6
ENDMDL
MODEL 8
REMARK VINA RESULT:      -7.6      2.306      5.005
REMARK  6 active torsions:
REMARK  status: ('A' for Active; 'I' for Inactive)
REMARK    1  A    between atoms: O1_2  and  C2_3 
REMARK    2  A    between atoms: C8_11  and  N3_12 
REMARK    3  A    between atoms: N3_12  and  C9_13 
REMARK    4  A    between atoms: C9_13  and  C10_14 
REMARK    5  A    between atoms: C18_24  and  C19_25 
REMARK    6  A    between atoms: C19_25  and  N4_26 
ROOT
HETATM    1  C2  UNL     1      20.626   0.737  52.919  1.00  0.00     0.078 A 
HETATM    2  C3  UNL     1      21.759   0.021  53.251  1.00  0.00     0.069 A 
HETATM    3  C4  UNL     1      23.045   0.475  53.119  1.00  0.00     0.071 A 
HETATM    4  N1  UNL     1      24.074  -0.334  53.477  1.00  0.00    -0.259 NA
HETATM    5  C5  UNL     1      25.359   0.105  53.343  1.00  0.00     0.142 A 
HETATM    6  C6  UNL     1      25.619   1.362  52.847  1.00  0.00     0.089 A 
HETATM    7  C7  UNL     1      26.915   1.915  52.668  1.00  0.00     0.103 C 
HETATM    8  N2  UNL     1      27.995   2.353  52.518  1.00  0.00    -0.191 NA
HETATM    9  C8  UNL     1      24.565   2.200  52.477  1.00  0.00     0.067 A 
HETATM   10  C16 UNL     1      23.273   1.748  52.618  1.00  0.00     0.022 A 
HETATM   11  C17 UNL     1      22.168   2.488  52.276  1.00  0.00     0.027 A 
HETATM   12  C18 UNL     1      20.860   2.019  52.412  1.00  0.00     0.004 A 
ENDROOT
BRANCH   9  13
HETATM   13  N3  UNL     1      24.730   3.497  51.953  1.00  0.00    -0.363 N 
HETATM   14  H6  UNL     1      24.633   4.481  52.344  1.00  0.00     0.165 HD
BRANCH  13  15
HETATM   15  C9  UNL     1      25.088   3.888  50.684  1.00  0.00     0.100 C 
BRANCH  15  16
HETATM   16  C10 UNL     1      25.713   4.759  49.932  1.00  0.00    -0.017 A 
HETATM   17  C11 UNL     1      26.953   4.211  49.391  1.00  0.00     0.050 A 
HETATM   18  C12 UNL     1      27.759   4.922  48.598  1.00  0.00     0.099 A 
HETATM   19  F1  UNL     1      28.951   4.601  47.994  1.00  0.00    -0.210 F 
HETATM   20  C13 UNL     1      27.397   6.313  48.248  1.00  0.00     0.121 A 
HETATM   21  C14 UNL     1      26.143   6.758  48.836  1.00  0.00     0.019 A 
HETATM   22 CL1  UNL     1      25.730   8.396  48.412  1.00  0.00    -0.089 Cl
HETATM   23  C15 UNL     1      25.319   6.111  49.613  1.00  0.00     0.032 A 
ENDBRANCH  15  16
ENDBRANCH  13  15
ENDBRANCH   9  13
BRANCH  12  24
HETATM   24  C19 UNL     1      19.746   2.938  51.982  1.00  0.00     0.308 C 
BRANCH  24  25
HETATM   25  N4  UNL     1      19.108   2.352  50.829  1.00  0.00     0.082 N 
HETATM   26  H15 UNL     1      18.112   2.147  51.069  1.00  0.00     0.313 HD
HETATM   27  H16 UNL     1      19.243   2.995  50.028  1.00  0.00     0.313 HD
ENDBRANCH  24  25
ENDBRANCH  12  24
BRANCH   1  28
HETATM   28  O1  UNL     1      19.296   0.446  52.987  1.00  0.00    -0.355 OA
HETATM   29  C1  UNL     1      18.803  -0.866  52.992  1.00  0.00     0.210 C 
ENDBRANCH   1  28
TORSDOF 6
ENDMDL
MODEL 9
REMARK VINA RESULT:      -7.5      4.715      7.412
REMARK  6 active torsions:
REMARK  status: ('A' for Active; 'I' for Inactive)
REMARK    1  A    between atoms: O1_2  and  C2_3 
REMARK    2  A    between atoms: C8_11  and  N3_12 
REMARK    3  A    between atoms: N3_12  and  C9_13 
REMARK    4  A    between atoms: C9_13  and  C10_14 
REMARK    5  A    between atoms: C18_24  and  C19_25 
REMARK    6  A    between atoms: C19_25  and  N4_26 
ROOT
HETATM    1  C2  UNL     1      25.341   3.423  50.753  1.00  0.00     0.078 A 
HETATM    2  C3  UNL     1      25.810   2.256  51.323  1.00  0.00     0.069 A 
HETATM    3  C4  UNL     1      25.068   1.404  52.100  1.00  0.00     0.071 A 
HETATM    4  N1  UNL     1      25.652   0.290  52.607  1.00  0.00    -0.259 NA
HETATM    5  C5  UNL     1      24.926  -0.560  53.388  1.00  0.00     0.142 A 
HETATM    6  C6  UNL     1      23.604  -0.297  53.666  1.00  0.00     0.089 A 
HETATM    7  C7  UNL     1      22.761  -1.113  54.464  1.00  0.00     0.103 C 
HETATM    8  N2  UNL     1      22.079  -1.797  55.135  1.00  0.00    -0.191 NA
HETATM    9  C8  UNL     1      22.996   0.848  53.146  1.00  0.00     0.067 A 
HETATM   10  C16 UNL     1      23.737   1.699  52.358  1.00  0.00     0.022 A 
HETATM   11  C17 UNL     1      23.238   2.853  51.807  1.00  0.00     0.027 A 
HETATM   12  C18 UNL     1      23.999   3.716  51.018  1.00  0.00     0.004 A 
ENDROOT
BRANCH   9  13
HETATM   13  N3  UNL     1      21.654   1.208  53.380  1.00  0.00    -0.363 N 
HETATM   14  H6  UNL     1      21.130   1.664  54.184  1.00  0.00     0.165 HD
BRANCH  13  15
HETATM   15  C9  UNL     1      20.554   1.054  52.570  1.00  0.00     0.100 C 
BRANCH  15  16
HETATM   16  C10 UNL     1      19.479   0.361  52.286  1.00  0.00    -0.017 A 
HETATM   17  C11 UNL     1      19.183  -0.623  53.322  1.00  0.00     0.050 A 
HETATM   18  C12 UNL     1      18.133  -1.446  53.243  1.00  0.00     0.099 A 
HETATM   19  F1  UNL     1      17.685  -2.428  54.093  1.00  0.00    -0.210 F 
HETATM   20  C13 UNL     1      17.232  -1.370  52.072  1.00  0.00     0.121 A 
HETATM   21  C14 UNL     1      17.615  -0.354  51.103  1.00  0.00     0.019 A 
HETATM   22 CL1  UNL     1      16.543  -0.276  49.733  1.00  0.00    -0.089 Cl
HETATM   23  C15 UNL     1      18.624   0.473  51.127  1.00  0.00     0.032 A 
ENDBRANCH  15  16
ENDBRANCH  13  15
ENDBRANCH   9  13
BRANCH  12  24
HETATM   24  C19 UNL     1      23.320   4.955  50.492  1.00  0.00     0.308 C 
BRANCH  24  25
HETATM   25  N4  UNL     1      23.188   4.816  49.063  1.00  0.00     0.082 N 
HETATM   26  H15 UNL     1      23.033   3.807  48.842  1.00  0.00     0.313 HD
HETATM   27  H16 UNL     1      22.436   5.455  48.748  1.00  0.00     0.313 HD
ENDBRANCH  24  25
ENDBRANCH  12  24
BRANCH   1  28
HETATM   28  O1  UNL     1      25.928   4.367  49.965  1.00  0.00    -0.355 OA
HETATM   29  C1  UNL     1      27.010   4.087  49.120  1.00  0.00     0.210 C 
ENDBRANCH   1  28
TORSDOF 6
ENDMDL
