MODEL 1
REMARK VINA RESULT:      -9.5      0.000      0.000
REMARK  6 active torsions:
REMARK  status: ('A' for Active; 'I' for Inactive)
REMARK    1  A    between atoms: C2_2  and  O1_5 
REMARK    2  A    between atoms: O1_5  and  C5_6 
REMARK       I    between atoms: C5_6  and  N1_8 
REMARK    3  A    between atoms: N1_8  and  C6_9 
REMARK    4  A    between atoms: C12_18  and  C13_19 
REMARK    5  A    between atoms: C16_24  and  N7_25 
REMARK    6  A    between atoms: N7_25  and  C17_26 
ROOT
HETATM    1  C6  UNL     1      26.453   7.263  49.305  1.00  0.00     0.034 C 
HETATM    2  C7  UNL     1      25.526   6.905  50.198  1.00  0.00     0.024 C 
HETATM    3  C8  UNL     1      24.570   5.750  50.480  1.00  0.00     0.182 C 
HETATM    4  N2  UNL     1      25.097   4.484  50.441  1.00  0.00    -0.248 N 
HETATM    5  N3  UNL     1      26.062   4.732  49.703  1.00  0.00    -0.152 NA
HETATM    6  C9  UNL     1      26.989   4.035  49.255  1.00  0.00     0.149 A 
HETATM    7  C10 UNL     1      27.534   5.156  48.566  1.00  0.00     0.054 C 
HETATM    8  C11 UNL     1      27.438   6.519  48.437  1.00  0.00     0.033 C 
HETATM    9  N4  UNL     1      26.464   2.950  49.923  1.00  0.00    -0.324 N 
HETATM   10  C12 UNL     1      25.306   3.183  50.661  1.00  0.00     0.137 A 
HETATM   11  H16 UNL     1      27.203   2.367  49.562  1.00  0.00     0.169 HD
ENDROOT
BRANCH  10  12
HETATM   12  C13 UNL     1      24.604   2.432  51.256  1.00  0.00     0.053 A 
HETATM   13  C14 UNL     1      23.314   2.256  50.486  1.00  0.00     0.196 A 
HETATM   14  N5  UNL     1      22.488   1.336  51.078  1.00  0.00    -0.278 NA
HETATM   15  C15 UNL     1      22.420   0.628  52.092  1.00  0.00     0.229 A 
HETATM   16  N6  UNL     1      23.577   0.880  52.818  1.00  0.00    -0.224 NA
HETATM   17  C16 UNL     1      24.495   1.669  52.440  1.00  0.00     0.141 A 
BRANCH  17  18
HETATM   18  N7  UNL     1      25.506   1.927  53.386  1.00  0.00    -0.340 N 
HETATM   19  H20 UNL     1      25.278   2.493  54.194  1.00  0.00     0.167 HD
BRANCH  18  20
HETATM   20  C17 UNL     1      26.832   1.482  53.473  1.00  0.00     0.035 A 
HETATM   21  C18 UNL     1      27.914   2.302  53.790  1.00  0.00     0.029 A 
HETATM   22  C19 UNL     1      29.218   1.905  53.931  1.00  0.00     0.004 A 
HETATM   23  C20 UNL     1      29.422   0.564  53.729  1.00  0.00     0.024 A 
HETATM   24  C21 UNL     1      28.425  -0.337  53.412  1.00  0.00     0.036 A 
HETATM   25 CL1  UNL     1      28.935  -2.008  53.211  1.00  0.00    -0.084 Cl
HETATM   26  C22 UNL     1      27.151   0.157  53.293  1.00  0.00     0.053 A 
ENDBRANCH  18  20
ENDBRANCH  17  18
ENDBRANCH  10  12
BRANCH   1  27
HETATM   27  N1  UNL     1      26.751   8.575  48.985  1.00  0.00    -0.303 N 
HETATM   28  C5  UNL     1      27.178   9.660  49.760  1.00  0.00     0.365 C 
HETATM   29  O2  UNL     1      27.351   9.521  50.986  1.00  0.00    -0.238 OA
HETATM   30  H10 UNL     1      26.689   8.961  48.023  1.00  0.00     0.171 HD
BRANCH  28  31
HETATM   31  O1  UNL     1      27.462  10.948  49.370  1.00  0.00    -0.294 OA
BRANCH  31  32
HETATM   32  C2  UNL     1      28.646  11.292  48.666  1.00  0.00     0.061 C 
HETATM   33  C1  UNL     1      28.367  11.266  47.154  1.00  0.00     0.046 C 
HETATM   34  C3  UNL     1      29.060  12.710  48.997  1.00  0.00     0.046 C 
HETATM   35  C4  UNL     1      29.810  10.379  48.970  1.00  0.00     0.046 C 
ENDBRANCH  31  32
ENDBRANCH  28  31
ENDBRANCH   1  27
TORSDOF 6
ENDMDL
MODEL 2
REMARK VINA RESULT:      -9.2      2.061      2.732
REMARK  6 active torsions:
REMARK  status: ('A' for Active; 'I' for Inactive)
REMARK    1  A    between atoms: C2_2  and  O1_5 
REMARK    2  A    between atoms: O1_5  and  C5_6 
REMARK       I    between atoms: C5_6  and  N1_8 
REMARK    3  A    between atoms: N1_8  and  C6_9 
REMARK    4  A    between atoms: C12_18  and  C13_19 
REMARK    5  A    between atoms: C16_24  and  N7_25 
REMARK    6  A    between atoms: N7_25  and  C17_26 
ROOT
HETATM    1  C6  UNL     1      26.625   5.197  49.127  1.00  0.00     0.034 C 
HETATM    2  C7  UNL     1      26.746   3.893  49.387  1.00  0.00     0.024 C 
HETATM    3  C8  UNL     1      26.448   2.899  50.505  1.00  0.00     0.182 C 
HETATM    4  N2  UNL     1      25.196   2.949  51.063  1.00  0.00    -0.248 N 
HETATM    5  N3  UNL     1      24.934   4.125  50.772  1.00  0.00    -0.152 NA
HETATM    6  C9  UNL     1      23.938   4.845  50.961  1.00  0.00     0.149 A 
HETATM    7  C10 UNL     1      24.571   5.938  50.304  1.00  0.00     0.054 C 
HETATM    8  C11 UNL     1      25.658   6.280  49.539  1.00  0.00     0.033 C 
HETATM    9  N4  UNL     1      23.324   3.786  51.596  1.00  0.00    -0.324 N 
HETATM   10  C12 UNL     1      24.061   2.607  51.679  1.00  0.00     0.137 A 
HETATM   11  H16 UNL     1      22.511   4.358  51.767  1.00  0.00     0.169 HD
ENDROOT
BRANCH  10  12
HETATM   12  C13 UNL     1      23.822   1.583  52.230  1.00  0.00     0.053 A 
HETATM   13  C14 UNL     1      22.451   1.107  51.803  1.00  0.00     0.196 A 
HETATM   14  N5  UNL     1      22.145  -0.115  52.343  1.00  0.00    -0.278 NA
HETATM   15  C15 UNL     1      22.604  -0.953  53.132  1.00  0.00     0.229 A 
HETATM   16  N6  UNL     1      23.820  -0.444  53.570  1.00  0.00    -0.224 NA
HETATM   17  C16 UNL     1      24.315   0.654  53.174  1.00  0.00     0.141 A 
BRANCH  17  18
HETATM   18  N7  UNL     1      25.468   1.086  53.858  1.00  0.00    -0.340 N 
HETATM   19  H20 UNL     1      25.357   1.724  54.635  1.00  0.00     0.167 HD
BRANCH  18  20
HETATM   20  C17 UNL     1      26.818   0.742  53.711  1.00  0.00     0.035 A 
HETATM   21  C18 UNL     1      27.872   1.652  53.800  1.00  0.00     0.029 A 
HETATM   22  C19 UNL     1      29.206   1.356  53.707  1.00  0.00     0.004 A 
HETATM   23  C20 UNL     1      29.476   0.026  53.508  1.00  0.00     0.024 A 
HETATM   24  C21 UNL     1      28.512  -0.957  53.406  1.00  0.00     0.036 A 
HETATM   25 CL1  UNL     1      29.108  -2.594  53.159  1.00  0.00    -0.084 Cl
HETATM   26  C22 UNL     1      27.203  -0.563  53.511  1.00  0.00     0.053 A 
ENDBRANCH  18  20
ENDBRANCH  17  18
ENDBRANCH  10  12
BRANCH   1  27
HETATM   27  N1  UNL     1      27.467   5.899  48.283  1.00  0.00    -0.303 N 
HETATM   28  C5  UNL     1      28.860   5.903  48.132  1.00  0.00     0.365 C 
HETATM   29  O2  UNL     1      29.567   5.170  48.851  1.00  0.00    -0.238 OA
HETATM   30  H10 UNL     1      27.135   6.585  47.579  1.00  0.00     0.171 HD
BRANCH  28  31
HETATM   31  O1  UNL     1      29.637   6.630  47.262  1.00  0.00    -0.294 OA
BRANCH  31  32
HETATM   32  C2  UNL     1      29.784   8.039  47.360  1.00  0.00     0.061 C 
HETATM   33  C1  UNL     1      31.135   8.455  46.756  1.00  0.00     0.046 C 
HETATM   34  C3  UNL     1      28.719   8.736  46.540  1.00  0.00     0.046 C 
HETATM   35  C4  UNL     1      29.698   8.552  48.778  1.00  0.00     0.046 C 
ENDBRANCH  31  32
ENDBRANCH  28  31
ENDBRANCH   1  27
TORSDOF 6
ENDMDL
MODEL 3
REMARK VINA RESULT:      -9.0      1.379      2.061
REMARK  6 active torsions:
REMARK  status: ('A' for Active; 'I' for Inactive)
REMARK    1  A    between atoms: C2_2  and  O1_5 
REMARK    2  A    between atoms: O1_5  and  C5_6 
REMARK       I    between atoms: C5_6  and  N1_8 
REMARK    3  A    between atoms: N1_8  and  C6_9 
REMARK    4  A    between atoms: C12_18  and  C13_19 
REMARK    5  A    between atoms: C16_24  and  N7_25 
REMARK    6  A    between atoms: N7_25  and  C17_26 
ROOT
HETATM    1  C6  UNL     1      26.653   7.435  48.774  1.00  0.00     0.034 C 
HETATM    2  C7  UNL     1      25.409   7.151  49.170  1.00  0.00     0.024 C 
HETATM    3  C8  UNL     1      24.369   6.044  49.029  1.00  0.00     0.182 C 
HETATM    4  N2  UNL     1      24.794   4.761  49.263  1.00  0.00    -0.248 N 
HETATM    5  N3  UNL     1      25.997   4.940  49.025  1.00  0.00    -0.152 NA
HETATM    6  C9  UNL     1      26.989   4.192  49.056  1.00  0.00     0.149 A 
HETATM    7  C10 UNL     1      27.840   5.260  48.650  1.00  0.00     0.054 C 
HETATM    8  C11 UNL     1      27.881   6.618  48.456  1.00  0.00     0.033 C 
HETATM    9  N4  UNL     1      26.167   3.158  49.449  1.00  0.00    -0.324 N 
HETATM   10  C12 UNL     1      24.816   3.465  49.589  1.00  0.00     0.137 A 
HETATM   11  H16 UNL     1      26.959   2.534  49.471  1.00  0.00     0.169 HD
ENDROOT
BRANCH  10  12
HETATM   12  C13 UNL     1      23.885   2.768  49.829  1.00  0.00     0.053 A 
HETATM   13  C14 UNL     1      23.037   2.639  48.584  1.00  0.00     0.196 A 
HETATM   14  N5  UNL     1      21.986   1.779  48.770  1.00  0.00    -0.278 NA
HETATM   15  C15 UNL     1      21.452   1.102  49.659  1.00  0.00     0.229 A 
HETATM   16  N6  UNL     1      22.204   1.312  50.808  1.00  0.00    -0.224 NA
HETATM   17  C16 UNL     1      23.240   2.042  50.855  1.00  0.00     0.141 A 
BRANCH  17  18
HETATM   18  N7  UNL     1      23.766   2.272  52.141  1.00  0.00    -0.340 N 
HETATM   19  H20 UNL     1      23.309   2.952  52.735  1.00  0.00     0.167 HD
BRANCH  18  20
HETATM   20  C17 UNL     1      24.825   1.668  52.833  1.00  0.00     0.035 A 
HETATM   21  C18 UNL     1      24.771   0.387  53.382  1.00  0.00     0.029 A 
HETATM   22  C19 UNL     1      25.791  -0.261  54.027  1.00  0.00     0.004 A 
HETATM   23  C20 UNL     1      26.953   0.463  54.111  1.00  0.00     0.024 A 
HETATM   24  C21 UNL     1      27.117   1.736  53.602  1.00  0.00     0.036 A 
HETATM   25 CL1  UNL     1      28.705   2.456  53.830  1.00  0.00    -0.084 Cl
HETATM   26  C22 UNL     1      26.036   2.302  52.975  1.00  0.00     0.053 A 
ENDBRANCH  18  20
ENDBRANCH  17  18
ENDBRANCH  10  12
BRANCH   1  27
HETATM   27  N1  UNL     1      27.129   8.719  48.584  1.00  0.00    -0.303 N 
HETATM   28  C5  UNL     1      27.456   9.745  49.480  1.00  0.00     0.365 C 
HETATM   29  O2  UNL     1      27.325   9.567  50.707  1.00  0.00    -0.238 OA
HETATM   30  H10 UNL     1      27.326   9.128  47.651  1.00  0.00     0.171 HD
BRANCH  28  31
HETATM   31  O1  UNL     1      27.932  11.008  49.219  1.00  0.00    -0.294 OA
BRANCH  31  32
HETATM   32  C2  UNL     1      29.193  11.240  48.608  1.00  0.00     0.061 C 
HETATM   33  C1  UNL     1      29.715  12.626  49.023  1.00  0.00     0.046 C 
HETATM   34  C3  UNL     1      30.211  10.236  49.107  1.00  0.00     0.046 C 
HETATM   35  C4  UNL     1      29.151  11.159  47.101  1.00  0.00     0.046 C 
ENDBRANCH  31  32
ENDBRANCH  28  31
ENDBRANCH   1  27
TORSDOF 6
ENDMDL
MODEL 4
REMARK VINA RESULT:      -9.0      5.807      8.751
REMARK  6 active torsions:
REMARK  status: ('A' for Active; 'I' for Inactive)
REMARK    1  A    between atoms: C2_2  and  O1_5 
REMARK    2  A    between atoms: O1_5  and  C5_6 
REMARK       I    between atoms: C5_6  and  N1_8 
REMARK    3  A    between atoms: N1_8  and  C6_9 
REMARK    4  A    between atoms: C12_18  and  C13_19 
REMARK    5  A    between atoms: C16_24  and  N7_25 
REMARK    6  A    between atoms: N7_25  and  C17_26 
ROOT
HETATM    1  C6  UNL     1      24.134  -0.454  53.783  1.00  0.00     0.034 C 
HETATM    2  C7  UNL     1      23.671   0.323  52.800  1.00  0.00     0.024 C 
HETATM    3  C8  UNL     1      22.460   0.431  51.878  1.00  0.00     0.182 C 
HETATM    4  N2  UNL     1      21.223   0.344  52.464  1.00  0.00    -0.248 N 
HETATM    5  N3  UNL     1      21.566  -0.284  53.477  1.00  0.00    -0.152 NA
HETATM    6  C9  UNL     1      20.943  -0.698  54.470  1.00  0.00     0.149 A 
HETATM    7  C10 UNL     1      22.136  -1.250  55.019  1.00  0.00     0.054 C 
HETATM    8  C11 UNL     1      23.500  -1.284  54.872  1.00  0.00     0.033 C 
HETATM    9  N4  UNL     1      19.789  -0.164  53.939  1.00  0.00    -0.324 N 
HETATM   10  C12 UNL     1      19.918   0.483  52.712  1.00  0.00     0.137 A 
HETATM   11  H16 UNL     1      19.266  -0.500  54.732  1.00  0.00     0.169 HD
ENDROOT
BRANCH  10  12
HETATM   12  C13 UNL     1      19.096   0.955  51.997  1.00  0.00     0.053 A 
HETATM   13  C14 UNL     1      18.340  -0.164  51.317  1.00  0.00     0.196 A 
HETATM   14  N5  UNL     1      17.319   0.311  50.535  1.00  0.00    -0.278 NA
HETATM   15  C15 UNL     1      16.836   1.382  50.144  1.00  0.00     0.229 A 
HETATM   16  N6  UNL     1      17.606   2.385  50.717  1.00  0.00    -0.224 NA
HETATM   17  C16 UNL     1      18.579   2.173  51.502  1.00  0.00     0.141 A 
BRANCH  17  18
HETATM   18  N7  UNL     1      19.346   3.304  51.843  1.00  0.00    -0.340 N 
HETATM   19  H20 UNL     1      18.970   3.957  52.518  1.00  0.00     0.167 HD
BRANCH  18  20
HETATM   20  C17 UNL     1      20.634   3.703  51.459  1.00  0.00     0.035 A 
HETATM   21  C18 UNL     1      21.646   4.046  52.355  1.00  0.00     0.029 A 
HETATM   22  C19 UNL     1      22.930   4.399  52.030  1.00  0.00     0.004 A 
HETATM   23  C20 UNL     1      23.190   4.398  50.683  1.00  0.00     0.024 A 
HETATM   24  C21 UNL     1      22.264   4.075  49.711  1.00  0.00     0.036 A 
HETATM   25 CL1  UNL     1      22.840   4.140  48.050  1.00  0.00    -0.084 Cl
HETATM   26  C22 UNL     1      21.004   3.736  50.136  1.00  0.00     0.053 A 
ENDBRANCH  18  20
ENDBRANCH  17  18
ENDBRANCH  10  12
BRANCH   1  27
HETATM   27  N1  UNL     1      25.477  -0.647  54.048  1.00  0.00    -0.303 N 
HETATM   28  C5  UNL     1      26.427   0.134  54.718  1.00  0.00     0.365 C 
HETATM   29  O2  UNL     1      26.099   1.234  55.204  1.00  0.00    -0.238 OA
HETATM   30  H10 UNL     1      26.008  -1.488  53.749  1.00  0.00     0.171 HD
BRANCH  28  31
HETATM   31  O1  UNL     1      27.758  -0.124  54.948  1.00  0.00    -0.294 OA
BRANCH  31  32
HETATM   32  C2  UNL     1      28.782   0.270  54.048  1.00  0.00     0.061 C 
HETATM   33  C1  UNL     1      28.154   0.687  52.709  1.00  0.00     0.046 C 
HETATM   34  C3  UNL     1      29.505   1.491  54.577  1.00  0.00     0.046 C 
HETATM   35  C4  UNL     1      29.807  -0.811  53.798  1.00  0.00     0.046 C 
ENDBRANCH  31  32
ENDBRANCH  28  31
ENDBRANCH   1  27
TORSDOF 6
ENDMDL
MODEL 5
REMARK VINA RESULT:      -8.7      4.844      9.696
REMARK  6 active torsions:
REMARK  status: ('A' for Active; 'I' for Inactive)
REMARK    1  A    between atoms: C2_2  and  O1_5 
REMARK    2  A    between atoms: O1_5  and  C5_6 
REMARK       I    between atoms: C5_6  and  N1_8 
REMARK    3  A    between atoms: N1_8  and  C6_9 
REMARK    4  A    between atoms: C12_18  and  C13_19 
REMARK    5  A    between atoms: C16_24  and  N7_25 
REMARK    6  A    between atoms: N7_25  and  C17_26 
ROOT
HETATM    1  C6  UNL     1      20.388   0.833  52.614  1.00  0.00     0.034 C 
HETATM    2  C7  UNL     1      21.281   1.736  52.200  1.00  0.00     0.024 C 
HETATM    3  C8  UNL     1      22.644   2.291  52.603  1.00  0.00     0.182 C 
HETATM    4  N2  UNL     1      23.624   1.377  52.895  1.00  0.00    -0.248 N 
HETATM    5  N3  UNL     1      22.882   0.430  53.194  1.00  0.00    -0.152 NA
HETATM    6  C9  UNL     1      23.101  -0.740  53.551  1.00  0.00     0.149 A 
HETATM    7  C10 UNL     1      21.704  -1.000  53.646  1.00  0.00     0.054 C 
HETATM    8  C11 UNL     1      20.468  -0.484  53.346  1.00  0.00     0.033 C 
HETATM    9  N4  UNL     1      24.453  -0.490  53.458  1.00  0.00    -0.324 N 
HETATM   10  C12 UNL     1      24.815   0.794  53.058  1.00  0.00     0.137 A 
HETATM   11  H16 UNL     1      24.650  -1.433  53.755  1.00  0.00     0.169 HD
ENDROOT
BRANCH  10  12
HETATM   12  C13 UNL     1      25.884   1.306  52.974  1.00  0.00     0.053 A 
HETATM   13  C14 UNL     1      26.492   1.396  54.355  1.00  0.00     0.196 A 
HETATM   14  N5  UNL     1      27.765   1.904  54.319  1.00  0.00    -0.278 NA
HETATM   15  C15 UNL     1      28.580   2.383  53.519  1.00  0.00     0.229 A 
HETATM   16  N6  UNL     1      27.957   2.364  52.277  1.00  0.00    -0.224 NA
HETATM   17  C16 UNL     1      26.793   1.905  52.073  1.00  0.00     0.141 A 
BRANCH  17  18
HETATM   18  N7  UNL     1      26.264   2.131  50.787  1.00  0.00    -0.340 N 
HETATM   19  H20 UNL     1      25.969   1.332  50.240  1.00  0.00     0.167 HD
BRANCH  18  20
HETATM   20  C17 UNL     1      25.989   3.315  50.091  1.00  0.00     0.035 A 
HETATM   21  C18 UNL     1      24.719   3.885  49.988  1.00  0.00     0.029 A 
HETATM   22  C19 UNL     1      24.409   5.061  49.358  1.00  0.00     0.004 A 
HETATM   23  C20 UNL     1      25.484   5.697  48.792  1.00  0.00     0.024 A 
HETATM   24  C21 UNL     1      26.781   5.223  48.834  1.00  0.00     0.036 A 
HETATM   25 CL1  UNL     1      27.990   6.223  48.040  1.00  0.00    -0.084 Cl
HETATM   26  C22 UNL     1      26.991   4.036  49.488  1.00  0.00     0.053 A 
ENDBRANCH  18  20
ENDBRANCH  17  18
ENDBRANCH  10  12
BRANCH   1  27
HETATM   27  N1  UNL     1      19.027   0.931  52.388  1.00  0.00    -0.303 N 
HETATM   28  C5  UNL     1      18.245   0.729  51.244  1.00  0.00     0.365 C 
HETATM   29  O2  UNL     1      18.785   0.397  50.170  1.00  0.00    -0.238 OA
HETATM   30  H10 UNL     1      18.340   1.196  53.119  1.00  0.00     0.171 HD
BRANCH  28  31
HETATM   31  O1  UNL     1      16.884   0.842  51.091  1.00  0.00    -0.294 OA
BRANCH  31  32
HETATM   32  C2  UNL     1      15.985  -0.201  51.435  1.00  0.00     0.061 C 
HETATM   33  C1  UNL     1      15.550  -0.943  50.161  1.00  0.00     0.046 C 
HETATM   34  C3  UNL     1      16.679  -1.225  52.308  1.00  0.00     0.046 C 
HETATM   35  C4  UNL     1      14.756   0.285  52.167  1.00  0.00     0.046 C 
ENDBRANCH  31  32
ENDBRANCH  28  31
ENDBRANCH   1  27
TORSDOF 6
ENDMDL
MODEL 6
REMARK VINA RESULT:      -8.5      2.458      3.477
REMARK  6 active torsions:
REMARK  status: ('A' for Active; 'I' for Inactive)
REMARK    1  A    between atoms: C2_2  and  O1_5 
REMARK    2  A    between atoms: O1_5  and  C5_6 
REMARK       I    between atoms: C5_6  and  N1_8 
REMARK    3  A    between atoms: N1_8  and  C6_9 
REMARK    4  A    between atoms: C12_18  and  C13_19 
REMARK    5  A    between atoms: C16_24  and  N7_25 
REMARK    6  A    between atoms: N7_25  and  C17_26 
ROOT
HETATM    1  C6  UNL     1      26.123   6.104  49.280  1.00  0.00     0.034 C 
HETATM    2  C7  UNL     1      25.650   4.860  49.157  1.00  0.00     0.024 C 
HETATM    3  C8  UNL     1      25.000   3.775  50.010  1.00  0.00     0.182 C 
HETATM    4  N2  UNL     1      23.944   4.155  50.799  1.00  0.00    -0.248 N 
HETATM    5  N3  UNL     1      24.230   5.358  50.887  1.00  0.00    -0.152 NA
HETATM    6  C9  UNL     1      23.685   6.321  51.453  1.00  0.00     0.149 A 
HETATM    7  C10 UNL     1      24.707   7.202  50.996  1.00  0.00     0.054 C 
HETATM    8  C11 UNL     1      25.782   7.291  50.147  1.00  0.00     0.033 C 
HETATM    9  N4  UNL     1      22.696   5.470  51.896  1.00  0.00    -0.324 N 
HETATM   10  C12 UNL     1      22.817   4.135  51.516  1.00  0.00     0.137 A 
HETATM   11  H16 UNL     1      22.244   6.237  52.369  1.00  0.00     0.169 HD
ENDROOT
BRANCH  10  12
HETATM   12  C13 UNL     1      22.171   3.185  51.814  1.00  0.00     0.053 A 
HETATM   13  C14 UNL     1      20.812   3.648  52.290  1.00  0.00     0.196 A 
HETATM   14  N5  UNL     1      19.984   2.593  52.574  1.00  0.00    -0.278 NA
HETATM   15  C15 UNL     1      20.000   1.356  52.630  1.00  0.00     0.229 A 
HETATM   16  N6  UNL     1      21.285   0.969  52.272  1.00  0.00    -0.224 NA
HETATM   17  C16 UNL     1      22.202   1.778  51.936  1.00  0.00     0.141 A 
BRANCH  17  18
HETATM   18  N7  UNL     1      23.483   1.215  51.775  1.00  0.00    -0.340 N 
HETATM   19  H20 UNL     1      23.797   0.988  50.840  1.00  0.00     0.167 HD
BRANCH  18  20
HETATM   20  C17 UNL     1      24.501   0.944  52.699  1.00  0.00     0.035 A 
HETATM   21  C18 UNL     1      24.471  -0.113  53.609  1.00  0.00     0.029 A 
HETATM   22  C19 UNL     1      25.459  -0.443  54.500  1.00  0.00     0.004 A 
HETATM   23  C20 UNL     1      26.558   0.375  54.449  1.00  0.00     0.024 A 
HETATM   24  C21 UNL     1      26.693   1.447  53.589  1.00  0.00     0.036 A 
HETATM   25 CL1  UNL     1      28.202   2.343  53.709  1.00  0.00    -0.084 Cl
HETATM   26  C22 UNL     1      25.650   1.698  52.735  1.00  0.00     0.053 A 
ENDBRANCH  18  20
ENDBRANCH  17  18
ENDBRANCH  10  12
BRANCH   1  27
HETATM   27  N1  UNL     1      27.139   6.625  48.501  1.00  0.00    -0.303 N 
HETATM   28  C5  UNL     1      28.393   6.123  48.130  1.00  0.00     0.365 C 
HETATM   29  O2  UNL     1      28.759   5.000  48.528  1.00  0.00    -0.238 OA
HETATM   30  H10 UNL     1      27.095   7.555  48.044  1.00  0.00     0.171 HD
BRANCH  28  31
HETATM   31  O1  UNL     1      29.361   6.700  47.343  1.00  0.00    -0.294 OA
BRANCH  31  32
HETATM   32  C2  UNL     1      30.347   7.580  47.861  1.00  0.00     0.061 C 
HETATM   33  C1  UNL     1      29.680   8.602  48.797  1.00  0.00     0.046 C 
HETATM   34  C3  UNL     1      31.341   6.814  48.709  1.00  0.00     0.046 C 
HETATM   35  C4  UNL     1      31.114   8.319  46.790  1.00  0.00     0.046 C 
ENDBRANCH  31  32
ENDBRANCH  28  31
ENDBRANCH   1  27
TORSDOF 6
ENDMDL
MODEL 7
REMARK VINA RESULT:      -8.5      2.638      3.430
REMARK  6 active torsions:
REMARK  status: ('A' for Active; 'I' for Inactive)
REMARK    1  A    between atoms: C2_2  and  O1_5 
REMARK    2  A    between atoms: O1_5  and  C5_6 
REMARK       I    between atoms: C5_6  and  N1_8 
REMARK    3  A    between atoms: N1_8  and  C6_9 
REMARK    4  A    between atoms: C12_18  and  C13_19 
REMARK    5  A    between atoms: C16_24  and  N7_25 
REMARK    6  A    between atoms: N7_25  and  C17_26 
ROOT
HETATM    1  C6  UNL     1      27.989   6.012  48.292  1.00  0.00     0.034 C 
HETATM    2  C7  UNL     1      27.737   4.725  48.542  1.00  0.00     0.024 C 
HETATM    3  C8  UNL     1      26.785   3.866  49.368  1.00  0.00     0.182 C 
HETATM    4  N2  UNL     1      25.449   4.166  49.285  1.00  0.00    -0.248 N 
HETATM    5  N3  UNL     1      25.568   5.351  48.939  1.00  0.00    -0.152 NA
HETATM    6  C9  UNL     1      24.746   6.242  48.666  1.00  0.00     0.149 A 
HETATM    7  C10 UNL     1      25.797   7.168  48.407  1.00  0.00     0.054 C 
HETATM    8  C11 UNL     1      27.156   7.269  48.240  1.00  0.00     0.033 C 
HETATM    9  N4  UNL     1      23.729   5.347  48.916  1.00  0.00    -0.324 N 
HETATM   10  C12 UNL     1      24.117   4.065  49.297  1.00  0.00     0.137 A 
HETATM   11  H16 UNL     1      23.047   6.060  48.707  1.00  0.00     0.169 HD
ENDROOT
BRANCH  10  12
HETATM   12  C13 UNL     1      23.469   3.133  49.647  1.00  0.00     0.053 A 
HETATM   13  C14 UNL     1      22.497   2.773  48.546  1.00  0.00     0.196 A 
HETATM   14  N5  UNL     1      21.771   1.651  48.853  1.00  0.00    -0.278 NA
HETATM   15  C15 UNL     1      21.600   0.849  49.781  1.00  0.00     0.229 A 
HETATM   16  N6  UNL     1      22.444   1.260  50.806  1.00  0.00    -0.224 NA
HETATM   17  C16 UNL     1      23.230   2.252  50.725  1.00  0.00     0.141 A 
BRANCH  17  18
HETATM   18  N7  UNL     1      23.877   2.617  51.921  1.00  0.00    -0.340 N 
HETATM   19  H20 UNL     1      23.575   3.458  52.396  1.00  0.00     0.167 HD
BRANCH  18  20
HETATM   20  C17 UNL     1      24.876   1.979  52.668  1.00  0.00     0.035 A 
HETATM   21  C18 UNL     1      24.715   0.743  53.295  1.00  0.00     0.029 A 
HETATM   22  C19 UNL     1      25.674   0.061  53.998  1.00  0.00     0.004 A 
HETATM   23  C20 UNL     1      26.886   0.699  54.059  1.00  0.00     0.024 A 
HETATM   24  C21 UNL     1      27.155   1.921  53.476  1.00  0.00     0.036 A 
HETATM   25 CL1  UNL     1      28.791   2.530  53.688  1.00  0.00    -0.084 Cl
HETATM   26  C22 UNL     1      26.130   2.526  52.794  1.00  0.00     0.053 A 
ENDBRANCH  18  20
ENDBRANCH  17  18
ENDBRANCH  10  12
BRANCH   1  27
HETATM   27  N1  UNL     1      29.236   6.505  47.953  1.00  0.00    -0.303 N 
HETATM   28  C5  UNL     1      30.525   6.199  48.407  1.00  0.00     0.365 C 
HETATM   29  O2  UNL     1      30.687   5.331  49.287  1.00  0.00    -0.238 OA
HETATM   30  H10 UNL     1      29.389   7.244  47.241  1.00  0.00     0.171 HD
BRANCH  28  31
HETATM   31  O1  UNL     1      31.732   6.731  48.019  1.00  0.00    -0.294 OA
BRANCH  31  32
HETATM   32  C2  UNL     1      32.060   8.100  48.200  1.00  0.00     0.061 C 
HETATM   33  C1  UNL     1      31.451   8.602  49.519  1.00  0.00     0.046 C 
HETATM   34  C3  UNL     1      33.559   8.267  48.334  1.00  0.00     0.046 C 
HETATM   35  C4  UNL     1      31.587   8.983  47.070  1.00  0.00     0.046 C 
ENDBRANCH  31  32
ENDBRANCH  28  31
ENDBRANCH   1  27
TORSDOF 6
ENDMDL
MODEL 8
REMARK VINA RESULT:      -8.4      2.159      3.158
REMARK  6 active torsions:
REMARK  status: ('A' for Active; 'I' for Inactive)
REMARK    1  A    between atoms: C2_2  and  O1_5 
REMARK    2  A    between atoms: O1_5  and  C5_6 
REMARK       I    between atoms: C5_6  and  N1_8 
REMARK    3  A    between atoms: N1_8  and  C6_9 
REMARK    4  A    between atoms: C12_18  and  C13_19 
REMARK    5  A    between atoms: C16_24  and  N7_25 
REMARK    6  A    between atoms: N7_25  and  C17_26 
ROOT
HETATM    1  C6  UNL     1      24.233   5.113  49.481  1.00  0.00     0.034 C 
HETATM    2  C7  UNL     1      24.599   4.648  50.678  1.00  0.00     0.024 C 
HETATM    3  C8  UNL     1      24.028   3.825  51.829  1.00  0.00     0.182 C 
HETATM    4  N2  UNL     1      23.410   2.645  51.500  1.00  0.00    -0.248 N 
HETATM    5  N3  UNL     1      23.118   2.933  50.330  1.00  0.00    -0.152 NA
HETATM    6  C9  UNL     1      22.547   2.309  49.419  1.00  0.00     0.149 A 
HETATM    7  C10 UNL     1      22.689   3.417  48.536  1.00  0.00     0.054 C 
HETATM    8  C11 UNL     1      23.303   4.637  48.393  1.00  0.00     0.033 C 
HETATM    9  N4  UNL     1      22.410   1.236  50.273  1.00  0.00    -0.324 N 
HETATM   10  C12 UNL     1      22.926   1.401  51.557  1.00  0.00     0.137 A 
HETATM   11  H16 UNL     1      21.937   0.718  49.550  1.00  0.00     0.169 HD
ENDROOT
BRANCH  10  12
HETATM   12  C13 UNL     1      22.877   0.690  52.507  1.00  0.00     0.053 A 
HETATM   13  C14 UNL     1      21.630   1.017  53.297  1.00  0.00     0.196 A 
HETATM   14  N5  UNL     1      21.470   0.175  54.368  1.00  0.00    -0.278 NA
HETATM   15  C15 UNL     1      22.054  -0.748  54.952  1.00  0.00     0.229 A 
HETATM   16  N6  UNL     1      23.234  -0.963  54.252  1.00  0.00    -0.224 NA
HETATM   17  C16 UNL     1      23.568  -0.322  53.209  1.00  0.00     0.141 A 
BRANCH  17  18
HETATM   18  N7  UNL     1      24.875  -0.559  52.741  1.00  0.00    -0.340 N 
HETATM   19  H20 UNL     1      25.009  -1.248  52.012  1.00  0.00     0.167 HD
BRANCH  18  20
HETATM   20  C17 UNL     1      26.098   0.050  53.054  1.00  0.00     0.035 A 
HETATM   21  C18 UNL     1      26.252   1.413  53.305  1.00  0.00     0.029 A 
HETATM   22  C19 UNL     1      27.416   2.045  53.658  1.00  0.00     0.004 A 
HETATM   23  C20 UNL     1      28.500   1.211  53.758  1.00  0.00     0.024 A 
HETATM   24  C21 UNL     1      28.460  -0.150  53.533  1.00  0.00     0.036 A 
HETATM   25 CL1  UNL     1      29.984  -1.007  53.733  1.00  0.00    -0.084 Cl
HETATM   26  C22 UNL     1      27.249  -0.691  53.184  1.00  0.00     0.053 A 
ENDBRANCH  18  20
ENDBRANCH  17  18
ENDBRANCH  10  12
BRANCH   1  27
HETATM   27  N1  UNL     1      24.735   6.271  48.915  1.00  0.00    -0.303 N 
HETATM   28  C5  UNL     1      24.393   7.620  49.070  1.00  0.00     0.365 C 
HETATM   29  O2  UNL     1      23.470   7.945  49.843  1.00  0.00    -0.238 OA
HETATM   30  H10 UNL     1      25.513   6.286  48.229  1.00  0.00     0.171 HD
BRANCH  28  31
HETATM   31  O1  UNL     1      24.942   8.730  48.472  1.00  0.00    -0.294 OA
BRANCH  31  32
HETATM   32  C2  UNL     1      26.317   9.061  48.588  1.00  0.00     0.061 C 
HETATM   33  C1  UNL     1      26.497  10.576  48.398  1.00  0.00     0.046 C 
HETATM   34  C3  UNL     1      26.818   8.744  49.982  1.00  0.00     0.046 C 
HETATM   35  C4  UNL     1      27.193   8.332  47.597  1.00  0.00     0.046 C 
ENDBRANCH  31  32
ENDBRANCH  28  31
ENDBRANCH   1  27
TORSDOF 6
ENDMDL
MODEL 9
REMARK VINA RESULT:      -8.4      3.262      4.546
REMARK  6 active torsions:
REMARK  status: ('A' for Active; 'I' for Inactive)
REMARK    1  A    between atoms: C2_2  and  O1_5 
REMARK    2  A    between atoms: O1_5  and  C5_6 
REMARK       I    between atoms: C5_6  and  N1_8 
REMARK    3  A    between atoms: N1_8  and  C6_9 
REMARK    4  A    between atoms: C12_18  and  C13_19 
REMARK    5  A    between atoms: C16_24  and  N7_25 
REMARK    6  A    between atoms: N7_25  and  C17_26 
ROOT
HETATM    1  C6  UNL     1      28.572   5.838  48.295  1.00  0.00     0.034 C 
HETATM    2  C7  UNL     1      27.881   4.732  48.582  1.00  0.00     0.024 C 
HETATM    3  C8  UNL     1      26.874   4.226  49.610  1.00  0.00     0.182 C 
HETATM    4  N2  UNL     1      25.796   5.032  49.872  1.00  0.00    -0.248 N 
HETATM    5  N3  UNL     1      26.306   6.107  49.524  1.00  0.00    -0.152 NA
HETATM    6  C9  UNL     1      25.881   7.274  49.481  1.00  0.00     0.149 A 
HETATM    7  C10 UNL     1      27.130   7.738  48.978  1.00  0.00     0.054 C 
HETATM    8  C11 UNL     1      28.336   7.318  48.474  1.00  0.00     0.033 C 
HETATM    9  N4  UNL     1      24.672   6.826  49.967  1.00  0.00    -0.324 N 
HETATM   10  C12 UNL     1      24.578   5.459  50.219  1.00  0.00     0.137 A 
HETATM   11  H16 UNL     1      24.312   7.768  49.948  1.00  0.00     0.169 HD
ENDROOT
BRANCH  10  12
HETATM   12  C13 UNL     1      23.704   4.821  50.708  1.00  0.00     0.053 A 
HETATM   13  C14 UNL     1      22.607   5.760  51.158  1.00  0.00     0.196 A 
HETATM   14  N5  UNL     1      21.528   5.080  51.660  1.00  0.00    -0.278 NA
HETATM   15  C15 UNL     1      21.168   3.926  51.930  1.00  0.00     0.229 A 
HETATM   16  N6  UNL     1      22.230   3.100  51.585  1.00  0.00    -0.224 NA
HETATM   17  C16 UNL     1      23.313   3.513  51.071  1.00  0.00     0.141 A 
BRANCH  17  18
HETATM   18  N7  UNL     1      24.337   2.553  50.952  1.00  0.00    -0.340 N 
HETATM   19  H20 UNL     1      24.681   2.327  50.028  1.00  0.00     0.167 HD
BRANCH  18  20
HETATM   20  C17 UNL     1      25.066   1.848  51.919  1.00  0.00     0.035 A 
HETATM   21  C18 UNL     1      24.643   0.652  52.500  1.00  0.00     0.029 A 
HETATM   22  C19 UNL     1      25.338  -0.095  53.414  1.00  0.00     0.004 A 
HETATM   23  C20 UNL     1      26.559   0.429  53.756  1.00  0.00     0.024 A 
HETATM   24  C21 UNL     1      27.075   1.602  53.243  1.00  0.00     0.036 A 
HETATM   25 CL1  UNL     1      28.667   2.063  53.832  1.00  0.00    -0.084 Cl
HETATM   26  C22 UNL     1      26.303   2.280  52.334  1.00  0.00     0.053 A 
ENDBRANCH  18  20
ENDBRANCH  17  18
ENDBRANCH  10  12
BRANCH   1  27
HETATM   27  N1  UNL     1      29.800   5.839  47.659  1.00  0.00    -0.303 N 
HETATM   28  C5  UNL     1      31.099   5.591  48.118  1.00  0.00     0.365 C 
HETATM   29  O2  UNL     1      31.294   5.309  49.317  1.00  0.00    -0.238 OA
HETATM   30  H10 UNL     1      29.925   6.047  46.650  1.00  0.00     0.171 HD
BRANCH  28  31
HETATM   31  O1  UNL     1      32.285   5.606  47.422  1.00  0.00    -0.294 OA
BRANCH  31  32
HETATM   32  C2  UNL     1      32.713   4.520  46.614  1.00  0.00     0.061 C 
HETATM   33  C1  UNL     1      32.794   4.974  45.148  1.00  0.00     0.046 C 
HETATM   34  C3  UNL     1      34.113   4.095  47.006  1.00  0.00     0.046 C 
HETATM   35  C4  UNL     1      31.811   3.312  46.709  1.00  0.00     0.046 C 
ENDBRANCH  31  32
ENDBRANCH  28  31
ENDBRANCH   1  27
TORSDOF 6
ENDMDL
