MODEL 1
REMARK VINA RESULT:      -8.3      0.000      0.000
REMARK  5 active torsions:
REMARK  status: ('A' for Active; 'I' for Inactive)
REMARK    1  A    between atoms: S1_2  and  O2_3 
REMARK    2  A    between atoms: S1_2  and  N1_4 
REMARK    3  A    between atoms: N1_4  and  C1_5 
REMARK    4  A    between atoms: C6_12  and  N4_13 
REMARK    5  A    between atoms: N4_13  and  C7_14 
ROOT
HETATM    1  C1  UNL     1      24.212  -0.159  53.332  1.00  0.00     0.043 A 
HETATM    2  C2  UNL     1      24.799  -0.578  54.526  1.00  0.00     0.032 A 
HETATM    3  C3  UNL     1      26.069  -0.081  54.835  1.00  0.00     0.035 A 
HETATM    4  C4  UNL     1      26.652   0.784  53.947  1.00  0.00     0.072 A 
HETATM    5  N2  UNL     1      27.873   1.244  54.291  1.00  0.00    -0.241 NA
HETATM    6  C5  UNL     1      28.514   2.103  53.481  1.00  0.00     0.236 A 
HETATM    7  N3  UNL     1      27.973   2.514  52.342  1.00  0.00    -0.224 NA
HETATM    8  C6  UNL     1      26.778   2.100  51.946  1.00  0.00     0.142 A 
HETATM    9  C13 UNL     1      26.103   1.218  52.759  1.00  0.00     0.041 A 
HETATM   10  C14 UNL     1      24.857   0.710  52.487  1.00  0.00     0.048 A 
ENDROOT
BRANCH   8  11
HETATM   11  N4  UNL     1      26.161   2.525  50.759  1.00  0.00    -0.340 N 
HETATM   12  H6  UNL     1      25.575   1.925  50.179  1.00  0.00     0.167 HD
BRANCH  11  13
HETATM   13  C7  UNL     1      26.209   3.799  50.134  1.00  0.00     0.035 A 
HETATM   14  C8  UNL     1      27.101   4.213  49.168  1.00  0.00     0.029 A 
HETATM   15  C9  UNL     1      27.132   5.433  48.576  1.00  0.00     0.004 A 
HETATM   16  C10 UNL     1      26.219   6.388  48.926  1.00  0.00     0.019 A 
HETATM   17  C11 UNL     1      25.308   6.044  49.876  1.00  0.00     0.013 A 
HETATM   18 BR1  UNL     1      24.041   7.418  50.336  1.00  0.00    -0.051 Br
HETATM   19  C12 UNL     1      25.313   4.798  50.450  1.00  0.00     0.048 A 
ENDBRANCH  11  13
ENDBRANCH   8  11
BRANCH   1  20
HETATM   20  N1  UNL     1      22.931  -0.757  53.201  1.00  0.00    -0.283 N 
HETATM   21  H2  UNL     1      22.286  -1.228  52.502  1.00  0.00     0.178 HD
BRANCH  20  22
HETATM   22  S1  UNL     1      21.859  -0.842  54.611  1.00  0.00     0.261 S 
HETATM   23  O1  UNL     1      22.003  -2.245  55.247  1.00  0.00    -0.204 OA
BRANCH  22  24
HETATM   24  O2  UNL     1      20.252  -0.769  54.007  1.00  0.00    -0.289 OA
HETATM   25  H1  UNL     1      20.190  -0.104  53.260  1.00  0.00     0.232 HD
ENDBRANCH  22  24
ENDBRANCH  20  22
ENDBRANCH   1  20
TORSDOF 5
ENDMDL
MODEL 2
REMARK VINA RESULT:      -8.0      3.385      4.340
REMARK  5 active torsions:
REMARK  status: ('A' for Active; 'I' for Inactive)
REMARK    1  A    between atoms: S1_2  and  O2_3 
REMARK    2  A    between atoms: S1_2  and  N1_4 
REMARK    3  A    between atoms: N1_4  and  C1_5 
REMARK    4  A    between atoms: C6_12  and  N4_13 
REMARK    5  A    between atoms: N4_13  and  C7_14 
ROOT
HETATM    1  C1  UNL     1      26.104   0.955  54.035  1.00  0.00     0.043 A 
HETATM    2  C2  UNL     1      25.450  -0.268  54.181  1.00  0.00     0.032 A 
HETATM    3  C3  UNL     1      24.216  -0.425  53.544  1.00  0.00     0.035 A 
HETATM    4  C4  UNL     1      23.732   0.631  52.817  1.00  0.00     0.072 A 
HETATM    5  N2  UNL     1      22.542   0.430  52.212  1.00  0.00    -0.241 NA
HETATM    6  C5  UNL     1      21.997   1.411  51.472  1.00  0.00     0.236 A 
HETATM    7  N3  UNL     1      22.603   2.580  51.321  1.00  0.00    -0.224 NA
HETATM    8  C6  UNL     1      23.773   2.841  51.888  1.00  0.00     0.142 A 
HETATM    9  C13 UNL     1      24.349   1.852  52.651  1.00  0.00     0.041 A 
HETATM   10  C14 UNL     1      25.558   1.971  53.292  1.00  0.00     0.048 A 
ENDROOT
BRANCH   8  11
HETATM   11  N4  UNL     1      24.457   4.057  51.736  1.00  0.00    -0.340 N 
HETATM   12  H6  UNL     1      24.403   4.825  52.405  1.00  0.00     0.167 HD
BRANCH  11  13
HETATM   13  C7  UNL     1      25.322   4.471  50.689  1.00  0.00     0.035 A 
HETATM   14  C8  UNL     1      26.321   3.726  50.098  1.00  0.00     0.029 A 
HETATM   15  C9  UNL     1      27.138   4.134  49.095  1.00  0.00     0.004 A 
HETATM   16  C10 UNL     1      27.010   5.392  48.576  1.00  0.00     0.019 A 
HETATM   17  C11 UNL     1      26.042   6.181  49.115  1.00  0.00     0.013 A 
HETATM   18 BR1  UNL     1      25.898   7.943  48.352  1.00  0.00    -0.051 Br
HETATM   19  C12 UNL     1      25.237   5.729  50.130  1.00  0.00     0.048 A 
ENDBRANCH  11  13
ENDBRANCH   8  11
BRANCH   1  20
HETATM   20  N1  UNL     1      27.337   0.918  54.739  1.00  0.00    -0.283 N 
HETATM   21  H2  UNL     1      27.756   0.756  55.701  1.00  0.00     0.178 HD
BRANCH  20  22
HETATM   22  S1  UNL     1      28.849   1.237  53.870  1.00  0.00     0.261 S 
HETATM   23  O1  UNL     1      29.706  -0.050  53.896  1.00  0.00    -0.204 OA
BRANCH  22  24
HETATM   24  O2  UNL     1      29.715   2.389  54.805  1.00  0.00    -0.289 OA
HETATM   25  H1  UNL     1      29.337   2.442  55.731  1.00  0.00     0.232 HD
ENDBRANCH  22  24
ENDBRANCH  20  22
ENDBRANCH   1  20
TORSDOF 5
ENDMDL
MODEL 3
REMARK VINA RESULT:      -7.8      3.435      4.809
REMARK  5 active torsions:
REMARK  status: ('A' for Active; 'I' for Inactive)
REMARK    1  A    between atoms: S1_2  and  O2_3 
REMARK    2  A    between atoms: S1_2  and  N1_4 
REMARK    3  A    between atoms: N1_4  and  C1_5 
REMARK    4  A    between atoms: C6_12  and  N4_13 
REMARK    5  A    between atoms: N4_13  and  C7_14 
ROOT
HETATM    1  C1  UNL     1      24.085  -0.657  54.316  1.00  0.00     0.043 A 
HETATM    2  C2  UNL     1      23.138  -1.236  55.161  1.00  0.00     0.032 A 
HETATM    3  C3  UNL     1      21.791  -1.111  54.809  1.00  0.00     0.035 A 
HETATM    4  C4  UNL     1      21.490  -0.431  53.658  1.00  0.00     0.072 A 
HETATM    5  N2  UNL     1      20.178  -0.344  53.354  1.00  0.00    -0.241 NA
HETATM    6  C5  UNL     1      19.794   0.300  52.239  1.00  0.00     0.236 A 
HETATM    7  N3  UNL     1      20.678   0.857  51.423  1.00  0.00    -0.224 NA
HETATM    8  C6  UNL     1      21.980   0.807  51.664  1.00  0.00     0.142 A 
HETATM    9  C13 UNL     1      22.397   0.154  52.802  1.00  0.00     0.041 A 
HETATM   10  C14 UNL     1      23.710   0.014  53.178  1.00  0.00     0.048 A 
ENDROOT
BRANCH   8  11
HETATM   11  N4  UNL     1      22.950   1.365  50.817  1.00  0.00    -0.340 N 
HETATM   12  H6  UNL     1      23.433   0.843  50.087  1.00  0.00     0.167 HD
BRANCH  11  13
HETATM   13  C7  UNL     1      23.448   2.694  50.782  1.00  0.00     0.035 A 
HETATM   14  C8  UNL     1      22.890   3.802  51.383  1.00  0.00     0.029 A 
HETATM   15  C9  UNL     1      23.379   5.067  51.345  1.00  0.00     0.004 A 
HETATM   16  C10 UNL     1      24.533   5.335  50.663  1.00  0.00     0.019 A 
HETATM   17  C11 UNL     1      25.136   4.284  50.045  1.00  0.00     0.013 A 
HETATM   18 BR1  UNL     1      26.758   4.707  49.098  1.00  0.00    -0.051 Br
HETATM   19  C12 UNL     1      24.606   3.020  50.108  1.00  0.00     0.048 A 
ENDBRANCH  11  13
ENDBRANCH   8  11
BRANCH   1  20
HETATM   20  N1  UNL     1      25.387  -0.898  54.831  1.00  0.00    -0.283 N 
HETATM   21  H2  UNL     1      25.923  -1.494  55.525  1.00  0.00     0.178 HD
BRANCH  20  22
HETATM   22  S1  UNL     1      26.756   0.048  54.218  1.00  0.00     0.261 S 
HETATM   23  O1  UNL     1      28.025  -0.371  54.997  1.00  0.00    -0.204 OA
BRANCH  22  24
HETATM   24  O2  UNL     1      26.458   1.681  54.662  1.00  0.00    -0.289 OA
HETATM   25  H1  UNL     1      26.775   1.852  55.597  1.00  0.00     0.232 HD
ENDBRANCH  22  24
ENDBRANCH  20  22
ENDBRANCH   1  20
TORSDOF 5
ENDMDL
MODEL 4
REMARK VINA RESULT:      -7.7      2.372      3.108
REMARK  5 active torsions:
REMARK  status: ('A' for Active; 'I' for Inactive)
REMARK    1  A    between atoms: S1_2  and  O2_3 
REMARK    2  A    between atoms: S1_2  and  N1_4 
REMARK    3  A    between atoms: N1_4  and  C1_5 
REMARK    4  A    between atoms: C6_12  and  N4_13 
REMARK    5  A    between atoms: N4_13  and  C7_14 
ROOT
HETATM    1  C1  UNL     1      21.579  -0.256  54.239  1.00  0.00     0.043 A 
HETATM    2  C2  UNL     1      22.114  -1.089  55.221  1.00  0.00     0.032 A 
HETATM    3  C3  UNL     1      23.496  -1.296  55.213  1.00  0.00     0.035 A 
HETATM    4  C4  UNL     1      24.234  -0.668  54.245  1.00  0.00     0.072 A 
HETATM    5  N2  UNL     1      25.564  -0.890  54.283  1.00  0.00    -0.241 NA
HETATM    6  C5  UNL     1      26.364  -0.307  53.374  1.00  0.00     0.236 A 
HETATM    7  N3  UNL     1      25.874   0.489  52.433  1.00  0.00    -0.224 NA
HETATM    8  C6  UNL     1      24.578   0.748  52.341  1.00  0.00     0.142 A 
HETATM    9  C13 UNL     1      23.740   0.160  53.260  1.00  0.00     0.041 A 
HETATM   10  C14 UNL     1      22.379   0.341  53.296  1.00  0.00     0.048 A 
ENDROOT
BRANCH   8  11
HETATM   11  N4  UNL     1      24.022   1.600  51.373  1.00  0.00    -0.340 N 
HETATM   12  H6  UNL     1      23.465   1.274  50.584  1.00  0.00     0.167 HD
BRANCH  11  13
HETATM   13  C7  UNL     1      24.101   3.014  51.276  1.00  0.00     0.035 A 
HETATM   14  C8  UNL     1      23.404   3.935  52.029  1.00  0.00     0.029 A 
HETATM   15  C9  UNL     1      23.492   5.285  51.928  1.00  0.00     0.004 A 
HETATM   16  C10 UNL     1      24.335   5.849  51.012  1.00  0.00     0.019 A 
HETATM   17  C11 UNL     1      25.054   4.995  50.234  1.00  0.00     0.013 A 
HETATM   18 BR1  UNL     1      26.228   5.834  48.959  1.00  0.00    -0.051 Br
HETATM   19  C12 UNL     1      24.933   3.635  50.369  1.00  0.00     0.048 A 
ENDBRANCH  11  13
ENDBRANCH   8  11
BRANCH   1  20
HETATM   20  N1  UNL     1      20.173  -0.159  54.416  1.00  0.00    -0.283 N 
HETATM   21  H2  UNL     1      19.428   0.225  55.067  1.00  0.00     0.178 HD
BRANCH  20  22
HETATM   22  S1  UNL     1      19.091  -0.893  53.218  1.00  0.00     0.261 S 
HETATM   23  O1  UNL     1      18.767   0.169  52.141  1.00  0.00    -0.204 OA
BRANCH  22  24
HETATM   24  O2  UNL     1      17.606  -1.200  54.027  1.00  0.00    -0.289 OA
HETATM   25  H1  UNL     1      17.209  -2.064  53.712  1.00  0.00     0.232 HD
ENDBRANCH  22  24
ENDBRANCH  20  22
ENDBRANCH   1  20
TORSDOF 5
ENDMDL
MODEL 5
REMARK VINA RESULT:      -7.5      5.696      8.095
REMARK  5 active torsions:
REMARK  status: ('A' for Active; 'I' for Inactive)
REMARK    1  A    between atoms: S1_2  and  O2_3 
REMARK    2  A    between atoms: S1_2  and  N1_4 
REMARK    3  A    between atoms: N1_4  and  C1_5 
REMARK    4  A    between atoms: C6_12  and  N4_13 
REMARK    5  A    between atoms: N4_13  and  C7_14 
ROOT
HETATM    1  C1  UNL     1      25.601   6.859  50.105  1.00  0.00     0.043 A 
HETATM    2  C2  UNL     1      24.756   7.952  50.297  1.00  0.00     0.032 A 
HETATM    3  C3  UNL     1      23.432   7.692  50.665  1.00  0.00     0.035 A 
HETATM    4  C4  UNL     1      23.053   6.384  50.816  1.00  0.00     0.072 A 
HETATM    5  N2  UNL     1      21.770   6.183  51.181  1.00  0.00    -0.241 NA
HETATM    6  C5  UNL     1      21.316   4.931  51.358  1.00  0.00     0.236 A 
HETATM    7  N3  UNL     1      22.103   3.879  51.182  1.00  0.00    -0.224 NA
HETATM    8  C6  UNL     1      23.373   4.008  50.823  1.00  0.00     0.142 A 
HETATM    9  C13 UNL     1      23.859   5.281  50.634  1.00  0.00     0.041 A 
HETATM   10  C14 UNL     1      25.151   5.572  50.272  1.00  0.00     0.048 A 
ENDROOT
BRANCH   8  11
HETATM   11  N4  UNL     1      24.245   2.922  50.646  1.00  0.00    -0.340 N 
HETATM   12  H6  UNL     1      24.683   2.687  49.756  1.00  0.00     0.167 HD
BRANCH  11  13
HETATM   13  C7  UNL     1      24.687   1.967  51.598  1.00  0.00     0.035 A 
HETATM   14  C8  UNL     1      23.918   1.013  52.231  1.00  0.00     0.029 A 
HETATM   15  C9  UNL     1      24.355   0.103  53.137  1.00  0.00     0.004 A 
HETATM   16  C10 UNL     1      25.673   0.075  53.499  1.00  0.00     0.019 A 
HETATM   17  C11 UNL     1      26.489   0.992  52.911  1.00  0.00     0.013 A 
HETATM   18 BR1  UNL     1      28.335   0.915  53.450  1.00  0.00    -0.051 Br
HETATM   19  C12 UNL     1      26.004   1.896  52.000  1.00  0.00     0.048 A 
ENDBRANCH  11  13
ENDBRANCH   8  11
BRANCH   1  20
HETATM   20  N1  UNL     1      26.896   7.320  49.750  1.00  0.00    -0.283 N 
HETATM   21  H2  UNL     1      27.864   6.987  49.471  1.00  0.00     0.178 HD
BRANCH  20  22
HETATM   22  S1  UNL     1      27.217   9.063  49.698  1.00  0.00     0.261 S 
HETATM   23  O1  UNL     1      28.458   9.302  48.806  1.00  0.00    -0.204 OA
BRANCH  22  24
HETATM   24  O2  UNL     1      27.693   9.518  51.285  1.00  0.00    -0.289 OA
HETATM   25  H1  UNL     1      27.435  10.469  51.468  1.00  0.00     0.232 HD
ENDBRANCH  22  24
ENDBRANCH  20  22
ENDBRANCH   1  20
TORSDOF 5
ENDMDL
MODEL 6
REMARK VINA RESULT:      -7.5      3.859      4.929
REMARK  5 active torsions:
REMARK  status: ('A' for Active; 'I' for Inactive)
REMARK    1  A    between atoms: S1_2  and  O2_3 
REMARK    2  A    between atoms: S1_2  and  N1_4 
REMARK    3  A    between atoms: N1_4  and  C1_5 
REMARK    4  A    between atoms: C6_12  and  N4_13 
REMARK    5  A    between atoms: N4_13  and  C7_14 
ROOT
HETATM    1  C1  UNL     1      25.406   2.013  53.583  1.00  0.00     0.043 A 
HETATM    2  C2  UNL     1      24.765   0.782  53.442  1.00  0.00     0.032 A 
HETATM    3  C3  UNL     1      23.499   0.774  52.849  1.00  0.00     0.035 A 
HETATM    4  C4  UNL     1      22.973   1.973  52.445  1.00  0.00     0.072 A 
HETATM    5  N2  UNL     1      21.753   1.914  51.870  1.00  0.00    -0.241 NA
HETATM    6  C5  UNL     1      21.166   3.043  51.438  1.00  0.00     0.236 A 
HETATM    7  N3  UNL     1      21.759   4.222  51.562  1.00  0.00    -0.224 NA
HETATM    8  C6  UNL     1      22.956   4.348  52.117  1.00  0.00     0.142 A 
HETATM    9  C13 UNL     1      23.576   3.206  52.569  1.00  0.00     0.041 A 
HETATM   10  C14 UNL     1      24.817   3.177  53.156  1.00  0.00     0.048 A 
ENDROOT
BRANCH   8  11
HETATM   11  N4  UNL     1      23.627   5.574  52.249  1.00  0.00    -0.340 N 
HETATM   12  H6  UNL     1      23.806   6.028  53.144  1.00  0.00     0.167 HD
BRANCH  11  13
HETATM   13  C7  UNL     1      24.174   6.407  51.238  1.00  0.00     0.035 A 
HETATM   14  C8  UNL     1      23.748   7.671  50.888  1.00  0.00     0.029 A 
HETATM   15  C9  UNL     1      24.283   8.458  49.922  1.00  0.00     0.004 A 
HETATM   16  C10 UNL     1      25.347   8.015  49.188  1.00  0.00     0.019 A 
HETATM   17  C11 UNL     1      25.818   6.773  49.483  1.00  0.00     0.013 A 
HETATM   18 BR1  UNL     1      27.318   6.190  48.426  1.00  0.00    -0.051 Br
HETATM   19  C12 UNL     1      25.246   6.009  50.468  1.00  0.00     0.048 A 
ENDBRANCH  11  13
ENDBRANCH   8  11
BRANCH   1  20
HETATM   20  N1  UNL     1      26.675   1.817  54.190  1.00  0.00    -0.283 N 
HETATM   21  H2  UNL     1      27.164   1.779  55.132  1.00  0.00     0.178 HD
BRANCH  20  22
HETATM   22  S1  UNL     1      28.094   1.516  53.170  1.00  0.00     0.261 S 
HETATM   23  O1  UNL     1      29.056   0.580  53.939  1.00  0.00    -0.204 OA
BRANCH  22  24
HETATM   24  O2  UNL     1      28.920   3.016  53.030  1.00  0.00    -0.289 OA
HETATM   25  H1  UNL     1      29.834   2.951  53.437  1.00  0.00     0.232 HD
ENDBRANCH  22  24
ENDBRANCH  20  22
ENDBRANCH   1  20
TORSDOF 5
ENDMDL
MODEL 7
REMARK VINA RESULT:      -7.4      4.699      7.136
REMARK  5 active torsions:
REMARK  status: ('A' for Active; 'I' for Inactive)
REMARK    1  A    between atoms: S1_2  and  O2_3 
REMARK    2  A    between atoms: S1_2  and  N1_4 
REMARK    3  A    between atoms: N1_4  and  C1_5 
REMARK    4  A    between atoms: C6_12  and  N4_13 
REMARK    5  A    between atoms: N4_13  and  C7_14 
ROOT
HETATM    1  C1  UNL     1      24.446   4.679  50.306  1.00  0.00     0.043 A 
HETATM    2  C2  UNL     1      25.693   4.649  49.683  1.00  0.00     0.032 A 
HETATM    3  C3  UNL     1      26.548   3.586  49.991  1.00  0.00     0.035 A 
HETATM    4  C4  UNL     1      26.104   2.644  50.881  1.00  0.00     0.072 A 
HETATM    5  N2  UNL     1      26.959   1.633  51.140  1.00  0.00    -0.241 NA
HETATM    6  C5  UNL     1      26.602   0.661  51.997  1.00  0.00     0.236 A 
HETATM    7  N3  UNL     1      25.421   0.671  52.599  1.00  0.00    -0.224 NA
HETATM    8  C6  UNL     1      24.536   1.635  52.388  1.00  0.00     0.142 A 
HETATM    9  C13 UNL     1      24.881   2.642  51.516  1.00  0.00     0.041 A 
HETATM   10  C14 UNL     1      24.068   3.700  51.192  1.00  0.00     0.048 A 
ENDROOT
BRANCH   8  11
HETATM   11  N4  UNL     1      23.268   1.673  52.989  1.00  0.00    -0.340 N 
HETATM   12  H6  UNL     1      22.773   2.535  53.215  1.00  0.00     0.167 HD
BRANCH  11  13
HETATM   13  C7  UNL     1      22.439   0.593  53.395  1.00  0.00     0.035 A 
HETATM   14  C8  UNL     1      22.792  -0.458  54.214  1.00  0.00     0.029 A 
HETATM   15  C9  UNL     1      21.988  -1.481  54.597  1.00  0.00     0.004 A 
HETATM   16  C10 UNL     1      20.693  -1.533  54.164  1.00  0.00     0.019 A 
HETATM   17  C11 UNL     1      20.279  -0.525  53.349  1.00  0.00     0.013 A 
HETATM   18 BR1  UNL     1      18.448  -0.639  52.765  1.00  0.00    -0.051 Br
HETATM   19  C12 UNL     1      21.126   0.491  52.986  1.00  0.00     0.048 A 
ENDBRANCH  11  13
ENDBRANCH   8  11
BRANCH   1  20
HETATM   20  N1  UNL     1      23.723   5.817  49.861  1.00  0.00    -0.283 N 
HETATM   21  H2  UNL     1      23.061   6.155  49.103  1.00  0.00     0.178 HD
BRANCH  20  22
HETATM   22  S1  UNL     1      23.842   7.336  50.770  1.00  0.00     0.261 S 
HETATM   23  O1  UNL     1      24.955   8.199  50.131  1.00  0.00    -0.204 OA
BRANCH  22  24
HETATM   24  O2  UNL     1      24.417   6.923  52.336  1.00  0.00    -0.289 OA
HETATM   25  H1  UNL     1      25.174   7.524  52.599  1.00  0.00     0.232 HD
ENDBRANCH  22  24
ENDBRANCH  20  22
ENDBRANCH   1  20
TORSDOF 5
ENDMDL
MODEL 8
REMARK VINA RESULT:      -7.4      5.765      8.132
REMARK  5 active torsions:
REMARK  status: ('A' for Active; 'I' for Inactive)
REMARK    1  A    between atoms: S1_2  and  O2_3 
REMARK    2  A    between atoms: S1_2  and  N1_4 
REMARK    3  A    between atoms: N1_4  and  C1_5 
REMARK    4  A    between atoms: C6_12  and  N4_13 
REMARK    5  A    between atoms: N4_13  and  C7_14 
ROOT
HETATM    1  C1  UNL     1      24.800   6.769  50.637  1.00  0.00     0.043 A 
HETATM    2  C2  UNL     1      23.913   7.843  50.711  1.00  0.00     0.032 A 
HETATM    3  C3  UNL     1      22.546   7.562  50.623  1.00  0.00     0.035 A 
HETATM    4  C4  UNL     1      22.168   6.254  50.470  1.00  0.00     0.072 A 
HETATM    5  N2  UNL     1      20.839   6.031  50.399  1.00  0.00    -0.241 NA
HETATM    6  C5  UNL     1      20.381   4.776  50.257  1.00  0.00     0.236 A 
HETATM    7  N3  UNL     1      21.208   3.742  50.184  1.00  0.00    -0.224 NA
HETATM    8  C6  UNL     1      22.524   3.893  50.248  1.00  0.00     0.142 A 
HETATM    9  C13 UNL     1      23.016   5.170  50.392  1.00  0.00     0.041 A 
HETATM   10  C14 UNL     1      24.351   5.482  50.481  1.00  0.00     0.048 A 
ENDROOT
BRANCH   8  11
HETATM   11  N4  UNL     1      23.433   2.825  50.195  1.00  0.00    -0.340 N 
HETATM   12  H6  UNL     1      23.914   2.532  49.346  1.00  0.00     0.167 HD
BRANCH  11  13
HETATM   13  C7  UNL     1      23.861   1.964  51.240  1.00  0.00     0.035 A 
HETATM   14  C8  UNL     1      25.158   1.758  51.662  1.00  0.00     0.029 A 
HETATM   15  C9  UNL     1      25.553   0.935  52.665  1.00  0.00     0.004 A 
HETATM   16  C10 UNL     1      24.627   0.213  53.364  1.00  0.00     0.019 A 
HETATM   17  C11 UNL     1      23.326   0.370  52.998  1.00  0.00     0.013 A 
HETATM   18 BR1  UNL     1      22.056  -0.664  54.011  1.00  0.00    -0.051 Br
HETATM   19  C12 UNL     1      22.970   1.213  51.976  1.00  0.00     0.048 A 
ENDBRANCH  11  13
ENDBRANCH   8  11
BRANCH   1  20
HETATM   20  N1  UNL     1      26.132   7.249  50.756  1.00  0.00    -0.283 N 
HETATM   21  H2  UNL     1      27.088   6.998  51.143  1.00  0.00     0.178 HD
BRANCH  20  22
HETATM   22  S1  UNL     1      26.553   8.832  50.078  1.00  0.00     0.261 S 
HETATM   23  O1  UNL     1      27.356   8.605  48.775  1.00  0.00    -0.204 OA
BRANCH  22  24
HETATM   24  O2  UNL     1      27.655   9.556  51.181  1.00  0.00    -0.289 OA
HETATM   25  H1  UNL     1      28.000  10.421  50.810  1.00  0.00     0.232 HD
ENDBRANCH  22  24
ENDBRANCH  20  22
ENDBRANCH   1  20
TORSDOF 5
ENDMDL
MODEL 9
REMARK VINA RESULT:      -7.4      4.841      6.775
REMARK  5 active torsions:
REMARK  status: ('A' for Active; 'I' for Inactive)
REMARK    1  A    between atoms: S1_2  and  O2_3 
REMARK    2  A    between atoms: S1_2  and  N1_4 
REMARK    3  A    between atoms: N1_4  and  C1_5 
REMARK    4  A    between atoms: C6_12  and  N4_13 
REMARK    5  A    between atoms: N4_13  and  C7_14 
ROOT
HETATM    1  C1  UNL     1      25.061   3.369  51.217  1.00  0.00     0.043 A 
HETATM    2  C2  UNL     1      26.357   2.912  50.982  1.00  0.00     0.032 A 
HETATM    3  C3  UNL     1      26.704   1.656  51.487  1.00  0.00     0.035 A 
HETATM    4  C4  UNL     1      25.749   0.956  52.177  1.00  0.00     0.072 A 
HETATM    5  N2  UNL     1      26.126  -0.255  52.637  1.00  0.00    -0.241 NA
HETATM    6  C5  UNL     1      25.249  -1.011  53.319  1.00  0.00     0.236 A 
HETATM    7  N3  UNL     1      24.012  -0.595  53.552  1.00  0.00    -0.224 NA
HETATM    8  C6  UNL     1      23.580   0.584  53.128  1.00  0.00     0.142 A 
HETATM    9  C13 UNL     1      24.461   1.377  52.429  1.00  0.00     0.041 A 
HETATM   10  C14 UNL     1      24.155   2.615  51.920  1.00  0.00     0.048 A 
ENDROOT
BRANCH   8  11
HETATM   11  N4  UNL     1      22.273   1.054  53.336  1.00  0.00    -0.340 N 
HETATM   12  H6  UNL     1      22.022   1.730  54.056  1.00  0.00     0.167 HD
BRANCH  11  13
HETATM   13  C7  UNL     1      21.081   0.719  52.640  1.00  0.00     0.035 A 
HETATM   14  C8  UNL     1      20.708   1.150  51.385  1.00  0.00     0.029 A 
HETATM   15  C9  UNL     1      19.568   0.819  50.730  1.00  0.00     0.004 A 
HETATM   16  C10 UNL     1      18.660  -0.018  51.315  1.00  0.00     0.019 A 
HETATM   17  C11 UNL     1      18.967  -0.481  52.557  1.00  0.00     0.013 A 
HETATM   18 BR1  UNL     1      17.661  -1.658  53.342  1.00  0.00    -0.051 Br
HETATM   19  C12 UNL     1      20.132  -0.120  53.184  1.00  0.00     0.048 A 
ENDBRANCH  11  13
ENDBRANCH   8  11
BRANCH   1  20
HETATM   20  N1  UNL     1      24.896   4.648  50.622  1.00  0.00    -0.283 N 
HETATM   21  H2  UNL     1      25.284   5.285  49.867  1.00  0.00     0.178 HD
BRANCH  20  22
HETATM   22  S1  UNL     1      23.631   5.735  51.225  1.00  0.00     0.261 S 
HETATM   23  O1  UNL     1      23.258   6.722  50.093  1.00  0.00    -0.204 OA
BRANCH  22  24
HETATM   24  O2  UNL     1      24.356   6.692  52.454  1.00  0.00    -0.289 OA
HETATM   25  H1  UNL     1      25.354   6.609  52.418  1.00  0.00     0.232 HD
ENDBRANCH  22  24
ENDBRANCH  20  22
ENDBRANCH   1  20
TORSDOF 5
ENDMDL
