MODEL 1
REMARK VINA RESULT:      -7.4      0.000      0.000
REMARK  7 active torsions:
REMARK  status: ('A' for Active; 'I' for Inactive)
REMARK    1  A    between atoms: C2_2  and  N1_3 
REMARK    2  A    between atoms: N1_3  and  C3_4 
REMARK    3  A    between atoms: N1_3  and  C5_6 
REMARK    4  A    between atoms: C5_6  and  C6_7 
REMARK    5  A    between atoms: C7_8  and  C8_9 
REMARK       I    between atoms: C8_9  and  N2_11 
REMARK    6  A    between atoms: N2_11  and  C9_12 
REMARK    7  A    between atoms: C16_24  and  C17_25 
ROOT
HETATM    1  C9  UNL     1      25.783   2.143  52.096  1.00  0.00     0.112 C 
HETATM    2  C10 UNL     1      27.165   1.473  52.070  1.00  0.00     0.043 C 
HETATM    3  C11 UNL     1      27.918   0.743  52.938  1.00  0.00     0.074 C 
HETATM    4 CL1  UNL     1      29.536   0.155  53.089  1.00  0.00    -0.081 Cl
HETATM    5  C12 UNL     1      27.273   0.221  54.213  1.00  0.00     0.171 C 
HETATM    6  F1  UNL     1      27.229  -0.467  55.365  1.00  0.00    -0.201 F 
HETATM    7  C13 UNL     1      25.976   0.622  54.248  1.00  0.00     0.115 C 
HETATM    8  N3  UNL     1      24.827  -0.238  54.397  1.00  0.00    -0.332 N 
HETATM    9  C14 UNL     1      23.642  -0.087  53.554  1.00  0.00     0.138 A 
HETATM   10  N4  UNL     1      22.707  -0.759  54.228  1.00  0.00    -0.224 NA
HETATM   11  C15 UNL     1      21.506  -0.704  53.558  1.00  0.00     0.236 A 
HETATM   12  N5  UNL     1      21.372  -0.040  52.382  1.00  0.00    -0.240 NA
HETATM   13  C16 UNL     1      22.377   0.611  51.775  1.00  0.00     0.085 A 
HETATM   14  C19 UNL     1      23.663   0.646  52.332  1.00  0.00     0.022 A 
HETATM   15  C20 UNL     1      24.696   1.356  51.556  1.00  0.00     0.092 C 
HETATM   16  S1  UNL     1      25.695   2.473  53.937  1.00  0.00    -0.073 SA
HETATM   17  H15 UNL     1      25.090  -0.886  55.151  1.00  0.00     0.168 HD
ENDROOT
BRANCH   1  18
HETATM   18  N2  UNL     1      25.893   3.443  51.508  1.00  0.00    -0.328 N 
HETATM   19  C8  UNL     1      26.284   3.531  50.138  1.00  0.00     0.298 C 
HETATM   20  O1  UNL     1      26.538   2.501  49.423  1.00  0.00    -0.258 OA
HETATM   21  H13 UNL     1      25.706   4.336  52.015  1.00  0.00     0.165 HD
BRANCH  19  22
HETATM   22  C7  UNL     1      26.427   4.787  49.440  1.00  0.00    -0.004 C 
HETATM   23  C6  UNL     1      26.561   5.830  48.845  1.00  0.00    -0.066 C 
BRANCH  23  24
HETATM   24  C5  UNL     1      26.751   7.104  48.109  1.00  0.00     0.366 C 
BRANCH  24  25
HETATM   25  N1  UNL     1      25.875   8.122  48.692  1.00  0.00     0.098 N 
BRANCH  25  26
HETATM   26  C2  UNL     1      26.304   8.357  50.080  1.00  0.00     0.269 C 
HETATM   27  C1  UNL     1      27.545   9.232  50.055  1.00  0.00     0.037 C 
ENDBRANCH  25  26
BRANCH  25  28
HETATM   28  C3  UNL     1      24.506   7.628  48.760  1.00  0.00     0.269 C 
HETATM   29  C4  UNL     1      23.801   8.082  50.024  1.00  0.00     0.037 C 
ENDBRANCH  25  28
ENDBRANCH  24  25
ENDBRANCH  23  24
ENDBRANCH  19  22
ENDBRANCH   1  18
BRANCH  13  30
HETATM   30  C17 UNL     1      22.197   1.311  50.515  1.00  0.00     0.142 C 
HETATM   31  N6  UNL     1      21.614   2.459  50.719  1.00  0.00    -0.304 NA
HETATM   32  C18 UNL     1      21.226   2.919  52.021  1.00  0.00     0.177 C 
ENDBRANCH  13  30
TORSDOF 7
ENDMDL
MODEL 2
REMARK VINA RESULT:      -7.4      0.981      1.674
REMARK  7 active torsions:
REMARK  status: ('A' for Active; 'I' for Inactive)
REMARK    1  A    between atoms: C2_2  and  N1_3 
REMARK    2  A    between atoms: N1_3  and  C3_4 
REMARK    3  A    between atoms: N1_3  and  C5_6 
REMARK    4  A    between atoms: C5_6  and  C6_7 
REMARK    5  A    between atoms: C7_8  and  C8_9 
REMARK       I    between atoms: C8_9  and  N2_11 
REMARK    6  A    between atoms: N2_11  and  C9_12 
REMARK    7  A    between atoms: C16_24  and  C17_25 
ROOT
HETATM    1  C9  UNL     1      25.737   2.168  52.043  1.00  0.00     0.112 C 
HETATM    2  C10 UNL     1      27.101   1.462  52.085  1.00  0.00     0.043 C 
HETATM    3  C11 UNL     1      27.798   0.725  52.993  1.00  0.00     0.074 C 
HETATM    4 CL1  UNL     1      29.392   0.098  53.220  1.00  0.00    -0.081 Cl
HETATM    5  C12 UNL     1      27.086   0.237  54.245  1.00  0.00     0.171 C 
HETATM    6  F1  UNL     1      26.976  -0.435  55.403  1.00  0.00    -0.201 F 
HETATM    7  C13 UNL     1      25.800   0.672  54.220  1.00  0.00     0.115 C 
HETATM    8  N3  UNL     1      24.623  -0.157  54.331  1.00  0.00    -0.332 N 
HETATM    9  C14 UNL     1      23.480   0.014  53.436  1.00  0.00     0.138 A 
HETATM   10  N4  UNL     1      22.499  -0.624  54.078  1.00  0.00    -0.224 NA
HETATM   11  C15 UNL     1      21.329  -0.548  53.357  1.00  0.00     0.236 A 
HETATM   12  N5  UNL     1      21.263   0.104  52.169  1.00  0.00    -0.240 NA
HETATM   13  C16 UNL     1      22.309   0.720  51.596  1.00  0.00     0.085 A 
HETATM   14  C19 UNL     1      23.571   0.729  52.208  1.00  0.00     0.022 A 
HETATM   15  C20 UNL     1      24.654   1.402  51.468  1.00  0.00     0.092 C 
HETATM   16  S1  UNL     1      25.581   2.525  53.875  1.00  0.00    -0.073 SA
HETATM   17  H15 UNL     1      24.837  -0.801  55.103  1.00  0.00     0.168 HD
ENDROOT
BRANCH   1  18
HETATM   18  N2  UNL     1      25.907   3.457  51.445  1.00  0.00    -0.328 N 
HETATM   19  C8  UNL     1      26.334   3.516  50.084  1.00  0.00     0.298 C 
HETATM   20  O1  UNL     1      26.569   2.470  49.386  1.00  0.00    -0.258 OA
HETATM   21  H13 UNL     1      25.738   4.361  51.938  1.00  0.00     0.165 HD
BRANCH  19  22
HETATM   22  C7  UNL     1      26.536   4.759  49.377  1.00  0.00    -0.004 C 
HETATM   23  C6  UNL     1      26.718   5.805  48.801  1.00  0.00    -0.066 C 
BRANCH  23  24
HETATM   24  C5  UNL     1      26.942   7.103  48.117  1.00  0.00     0.366 C 
BRANCH  24  25
HETATM   25  N1  UNL     1      28.221   7.658  48.564  1.00  0.00     0.098 N 
BRANCH  25  26
HETATM   26  C2  UNL     1      28.026   9.088  48.853  1.00  0.00     0.269 C 
HETATM   27  C1  UNL     1      27.323   9.211  50.194  1.00  0.00     0.037 C 
ENDBRANCH  25  26
BRANCH  25  28
HETATM   28  C3  UNL     1      29.204   7.583  47.491  1.00  0.00     0.269 C 
HETATM   29  C4  UNL     1      30.137   6.400  47.659  1.00  0.00     0.037 C 
ENDBRANCH  25  28
ENDBRANCH  24  25
ENDBRANCH  23  24
ENDBRANCH  19  22
ENDBRANCH   1  18
BRANCH  13  30
HETATM   30  C17 UNL     1      22.201   1.408  50.322  1.00  0.00     0.142 C 
HETATM   31  N6  UNL     1      21.637   2.572  50.486  1.00  0.00    -0.304 NA
HETATM   32  C18 UNL     1      21.203   3.057  51.764  1.00  0.00     0.177 C 
ENDBRANCH  13  30
TORSDOF 7
ENDMDL
MODEL 3
REMARK VINA RESULT:      -7.4      2.163      2.903
REMARK  7 active torsions:
REMARK  status: ('A' for Active; 'I' for Inactive)
REMARK    1  A    between atoms: C2_2  and  N1_3 
REMARK    2  A    between atoms: N1_3  and  C3_4 
REMARK    3  A    between atoms: N1_3  and  C5_6 
REMARK    4  A    between atoms: C5_6  and  C6_7 
REMARK    5  A    between atoms: C7_8  and  C8_9 
REMARK       I    between atoms: C8_9  and  N2_11 
REMARK    6  A    between atoms: N2_11  and  C9_12 
REMARK    7  A    between atoms: C16_24  and  C17_25 
ROOT
HETATM    1  C9  UNL     1      25.717   2.162  51.644  1.00  0.00     0.112 C 
HETATM    2  C10 UNL     1      26.606   0.910  51.698  1.00  0.00     0.043 C 
HETATM    3  C11 UNL     1      26.827  -0.100  52.584  1.00  0.00     0.074 C 
HETATM    4 CL1  UNL     1      27.943  -1.394  52.838  1.00  0.00    -0.081 Cl
HETATM    5  C12 UNL     1      25.886  -0.258  53.768  1.00  0.00     0.171 C 
HETATM    6  F1  UNL     1      25.402  -0.851  54.872  1.00  0.00    -0.201 F 
HETATM    7  C13 UNL     1      24.942   0.717  53.716  1.00  0.00     0.115 C 
HETATM    8  N3  UNL     1      23.513   0.513  53.719  1.00  0.00    -0.332 N 
HETATM    9  C14 UNL     1      22.637   1.222  52.788  1.00  0.00     0.138 A 
HETATM   10  N4  UNL     1      21.431   1.077  53.341  1.00  0.00    -0.224 NA
HETATM   11  C15 UNL     1      20.477   1.708  52.576  1.00  0.00     0.236 A 
HETATM   12  N5  UNL     1      20.797   2.365  51.432  1.00  0.00    -0.240 NA
HETATM   13  C16 UNL     1      22.045   2.458  50.949  1.00  0.00     0.085 A 
HETATM   14  C19 UNL     1      23.128   1.866  51.615  1.00  0.00     0.022 A 
HETATM   15  C20 UNL     1      24.448   1.998  50.971  1.00  0.00     0.092 C 
HETATM   16  S1  UNL     1      25.612   2.477  53.487  1.00  0.00    -0.073 SA
HETATM   17  H15 UNL     1      23.356  -0.188  54.454  1.00  0.00     0.168 HD
ENDROOT
BRANCH   1  18
HETATM   18  N2  UNL     1      26.494   3.254  51.142  1.00  0.00    -0.328 N 
HETATM   19  C8  UNL     1      26.426   3.541  49.745  1.00  0.00     0.298 C 
HETATM   20  O1  UNL     1      25.705   2.866  48.933  1.00  0.00    -0.258 OA
HETATM   21  H13 UNL     1      27.109   3.858  51.730  1.00  0.00     0.165 HD
BRANCH  19  22
HETATM   22  C7  UNL     1      27.164   4.618  49.128  1.00  0.00    -0.004 C 
HETATM   23  C6  UNL     1      27.792   5.506  48.600  1.00  0.00    -0.066 C 
BRANCH  23  24
HETATM   24  C5  UNL     1      28.584   6.579  47.950  1.00  0.00     0.366 C 
BRANCH  24  25
HETATM   25  N1  UNL     1      29.937   6.573  48.509  1.00  0.00     0.098 N 
BRANCH  25  26
HETATM   26  C2  UNL     1      30.267   7.944  48.930  1.00  0.00     0.269 C 
HETATM   27  C1  UNL     1      31.678   7.943  49.493  1.00  0.00     0.037 C 
ENDBRANCH  25  26
BRANCH  25  28
HETATM   28  C3  UNL     1      30.903   6.212  47.479  1.00  0.00     0.269 C 
HETATM   29  C4  UNL     1      31.317   4.757  47.576  1.00  0.00     0.037 C 
ENDBRANCH  25  28
ENDBRANCH  24  25
ENDBRANCH  23  24
ENDBRANCH  19  22
ENDBRANCH   1  18
BRANCH  13  30
HETATM   30  C17 UNL     1      22.350   3.169  49.720  1.00  0.00     0.142 C 
HETATM   31  N6  UNL     1      22.035   2.438  48.688  1.00  0.00    -0.304 NA
HETATM   32  C18 UNL     1      21.472   1.124  48.804  1.00  0.00     0.177 C 
ENDBRANCH  13  30
TORSDOF 7
ENDMDL
MODEL 4
REMARK VINA RESULT:      -7.4      1.566      2.322
REMARK  7 active torsions:
REMARK  status: ('A' for Active; 'I' for Inactive)
REMARK    1  A    between atoms: C2_2  and  N1_3 
REMARK    2  A    between atoms: N1_3  and  C3_4 
REMARK    3  A    between atoms: N1_3  and  C5_6 
REMARK    4  A    between atoms: C5_6  and  C6_7 
REMARK    5  A    between atoms: C7_8  and  C8_9 
REMARK       I    between atoms: C8_9  and  N2_11 
REMARK    6  A    between atoms: N2_11  and  C9_12 
REMARK    7  A    between atoms: C16_24  and  C17_25 
ROOT
HETATM    1  C9  UNL     1      25.662   2.141  51.638  1.00  0.00     0.112 C 
HETATM    2  C10 UNL     1      26.525   0.872  51.680  1.00  0.00     0.043 C 
HETATM    3  C11 UNL     1      26.731  -0.148  52.560  1.00  0.00     0.074 C 
HETATM    4 CL1  UNL     1      27.822  -1.465  52.801  1.00  0.00    -0.081 Cl
HETATM    5  C12 UNL     1      25.793  -0.292  53.748  1.00  0.00     0.171 C 
HETATM    6  F1  UNL     1      25.303  -0.882  54.851  1.00  0.00    -0.201 F 
HETATM    7  C13 UNL     1      24.869   0.701  53.706  1.00  0.00     0.115 C 
HETATM    8  N3  UNL     1      23.436   0.527  53.716  1.00  0.00    -0.332 N 
HETATM    9  C14 UNL     1      22.569   1.259  52.793  1.00  0.00     0.138 A 
HETATM   10  N4  UNL     1      21.365   1.136  53.353  1.00  0.00    -0.224 NA
HETATM   11  C15 UNL     1      20.419   1.790  52.596  1.00  0.00     0.236 A 
HETATM   12  N5  UNL     1      20.746   2.447  51.455  1.00  0.00    -0.240 NA
HETATM   13  C16 UNL     1      21.994   2.516  50.965  1.00  0.00     0.085 A 
HETATM   14  C19 UNL     1      23.068   1.899  51.622  1.00  0.00     0.022 A 
HETATM   15  C20 UNL     1      24.386   2.008  50.971  1.00  0.00     0.092 C 
HETATM   16  S1  UNL     1      25.574   2.449  53.483  1.00  0.00    -0.073 SA
HETATM   17  H15 UNL     1      23.269  -0.175  54.448  1.00  0.00     0.168 HD
ENDROOT
BRANCH   1  18
HETATM   18  N2  UNL     1      26.458   3.220  51.137  1.00  0.00    -0.328 N 
HETATM   19  C8  UNL     1      26.388   3.518  49.743  1.00  0.00     0.298 C 
HETATM   20  O1  UNL     1      25.647   2.863  48.932  1.00  0.00    -0.258 OA
HETATM   21  H13 UNL     1      27.090   3.807  51.725  1.00  0.00     0.165 HD
BRANCH  19  22
HETATM   22  C7  UNL     1      27.144   4.582  49.127  1.00  0.00    -0.004 C 
HETATM   23  C6  UNL     1      27.759   5.482  48.605  1.00  0.00    -0.066 C 
BRANCH  23  24
HETATM   24  C5  UNL     1      28.496   6.589  47.946  1.00  0.00     0.366 C 
BRANCH  24  25
HETATM   25  N1  UNL     1      28.435   7.774  48.804  1.00  0.00     0.098 N 
BRANCH  25  26
HETATM   26  C2  UNL     1      27.060   8.297  48.769  1.00  0.00     0.269 C 
HETATM   27  C1  UNL     1      26.674   8.715  50.177  1.00  0.00     0.037 C 
ENDBRANCH  25  26
BRANCH  25  28
HETATM   28  C3  UNL     1      29.291   8.825  48.269  1.00  0.00     0.269 C 
HETATM   29  C4  UNL     1      30.286   9.324  49.299  1.00  0.00     0.037 C 
ENDBRANCH  25  28
ENDBRANCH  24  25
ENDBRANCH  23  24
ENDBRANCH  19  22
ENDBRANCH   1  18
BRANCH  13  30
HETATM   30  C17 UNL     1      22.307   3.228  49.738  1.00  0.00     0.142 C 
HETATM   31  N6  UNL     1      21.988   2.501  48.704  1.00  0.00    -0.304 NA
HETATM   32  C18 UNL     1      21.414   1.192  48.816  1.00  0.00     0.177 C 
ENDBRANCH  13  30
TORSDOF 7
ENDMDL
MODEL 5
REMARK VINA RESULT:      -7.0      3.658      5.098
REMARK  7 active torsions:
REMARK  status: ('A' for Active; 'I' for Inactive)
REMARK    1  A    between atoms: C2_2  and  N1_3 
REMARK    2  A    between atoms: N1_3  and  C3_4 
REMARK    3  A    between atoms: N1_3  and  C5_6 
REMARK    4  A    between atoms: C5_6  and  C6_7 
REMARK    5  A    between atoms: C7_8  and  C8_9 
REMARK       I    between atoms: C8_9  and  N2_11 
REMARK    6  A    between atoms: N2_11  and  C9_12 
REMARK    7  A    between atoms: C16_24  and  C17_25 
ROOT
HETATM    1  C9  UNL     1      24.684   3.729  51.240  1.00  0.00     0.112 C 
HETATM    2  C10 UNL     1      23.806   4.986  51.332  1.00  0.00     0.043 C 
HETATM    3  C11 UNL     1      22.522   5.312  51.020  1.00  0.00     0.074 C 
HETATM    4 CL1  UNL     1      21.530   6.719  50.870  1.00  0.00    -0.081 Cl
HETATM    5  C12 UNL     1      21.546   4.199  50.668  1.00  0.00     0.171 C 
HETATM    6  F1  UNL     1      20.348   3.683  50.350  1.00  0.00    -0.201 F 
HETATM    7  C13 UNL     1      22.194   3.008  50.728  1.00  0.00     0.115 C 
HETATM    8  N3  UNL     1      21.797   1.866  51.516  1.00  0.00    -0.332 N 
HETATM    9  C14 UNL     1      22.762   1.116  52.318  1.00  0.00     0.138 A 
HETATM   10  N4  UNL     1      22.124  -0.030  52.560  1.00  0.00    -0.224 NA
HETATM   11  C15 UNL     1      22.918  -0.867  53.312  1.00  0.00     0.236 A 
HETATM   12  N5  UNL     1      24.163  -0.504  53.711  1.00  0.00    -0.240 NA
HETATM   13  C16 UNL     1      24.725   0.679  53.419  1.00  0.00     0.085 A 
HETATM   14  C19 UNL     1      24.042   1.641  52.661  1.00  0.00     0.022 A 
HETATM   15  C20 UNL     1      24.742   2.919  52.436  1.00  0.00     0.092 C 
HETATM   16  S1  UNL     1      23.833   2.932  49.774  1.00  0.00    -0.073 SA
HETATM   17  H15 UNL     1      20.784   1.789  51.362  1.00  0.00     0.168 HD
ENDROOT
BRANCH   1  18
HETATM   18  N2  UNL     1      25.972   4.104  50.741  1.00  0.00    -0.328 N 
HETATM   19  C8  UNL     1      26.033   4.802  49.497  1.00  0.00     0.298 C 
HETATM   20  O1  UNL     1      24.992   5.101  48.818  1.00  0.00    -0.258 OA
HETATM   21  H13 UNL     1      26.873   3.901  51.227  1.00  0.00     0.165 HD
BRANCH  19  22
HETATM   22  C7  UNL     1      27.275   5.231  48.897  1.00  0.00    -0.004 C 
HETATM   23  C6  UNL     1      28.305   5.591  48.378  1.00  0.00    -0.066 C 
BRANCH  23  24
HETATM   24  C5  UNL     1      29.562   6.022  47.717  1.00  0.00     0.366 C 
BRANCH  24  25
HETATM   25  N1  UNL     1      30.527   6.412  48.746  1.00  0.00     0.098 N 
BRANCH  25  26
HETATM   26  C2  UNL     1      31.004   7.770  48.440  1.00  0.00     0.269 C 
HETATM   27  C1  UNL     1      30.049   8.764  49.077  1.00  0.00     0.037 C 
ENDBRANCH  25  26
BRANCH  25  28
HETATM   28  C3  UNL     1      31.695   5.542  48.693  1.00  0.00     0.269 C 
HETATM   29  C4  UNL     1      31.846   4.877  47.338  1.00  0.00     0.037 C 
ENDBRANCH  25  28
ENDBRANCH  24  25
ENDBRANCH  23  24
ENDBRANCH  19  22
ENDBRANCH   1  18
BRANCH  13  30
HETATM   30  C17 UNL     1      26.061   1.033  53.865  1.00  0.00     0.142 C 
HETATM   31  N6  UNL     1      26.954   0.419  53.139  1.00  0.00    -0.304 NA
HETATM   32  C18 UNL     1      26.613  -0.470  52.067  1.00  0.00     0.177 C 
ENDBRANCH  13  30
TORSDOF 7
ENDMDL
MODEL 6
REMARK VINA RESULT:      -6.9      1.805      2.577
REMARK  7 active torsions:
REMARK  status: ('A' for Active; 'I' for Inactive)
REMARK    1  A    between atoms: C2_2  and  N1_3 
REMARK    2  A    between atoms: N1_3  and  C3_4 
REMARK    3  A    between atoms: N1_3  and  C5_6 
REMARK    4  A    between atoms: C5_6  and  C6_7 
REMARK    5  A    between atoms: C7_8  and  C8_9 
REMARK       I    between atoms: C8_9  and  N2_11 
REMARK    6  A    between atoms: N2_11  and  C9_12 
REMARK    7  A    between atoms: C16_24  and  C17_25 
ROOT
HETATM    1  C9  UNL     1      24.788   2.780  51.274  1.00  0.00     0.112 C 
HETATM    2  C10 UNL     1      26.058   1.960  51.547  1.00  0.00     0.043 C 
HETATM    3  C11 UNL     1      26.480   1.094  52.509  1.00  0.00     0.074 C 
HETATM    4 CL1  UNL     1      27.936   0.318  53.021  1.00  0.00    -0.081 Cl
HETATM    5  C12 UNL     1      25.470   0.568  53.518  1.00  0.00     0.171 C 
HETATM    6  F1  UNL     1      25.056  -0.186  54.549  1.00  0.00    -0.201 F 
HETATM    7  C13 UNL     1      24.255   1.110  53.251  1.00  0.00     0.115 C 
HETATM    8  N3  UNL     1      23.034   0.377  53.015  1.00  0.00    -0.332 N 
HETATM    9  C14 UNL     1      22.139   0.717  51.910  1.00  0.00     0.138 A 
HETATM   10  N4  UNL     1      20.999   0.114  52.251  1.00  0.00    -0.224 NA
HETATM   11  C15 UNL     1      20.032   0.348  51.299  1.00  0.00     0.236 A 
HETATM   12  N5  UNL     1      20.282   1.099  50.197  1.00  0.00    -0.240 NA
HETATM   13  C16 UNL     1      21.468   1.669  49.935  1.00  0.00     0.085 A 
HETATM   14  C19 UNL     1      22.554   1.521  50.809  1.00  0.00     0.022 A 
HETATM   15  C20 UNL     1      23.819   2.158  50.399  1.00  0.00     0.092 C 
HETATM   16  S1  UNL     1      24.240   2.997  53.051  1.00  0.00    -0.073 SA
HETATM   17  H15 UNL     1      23.023  -0.344  53.747  1.00  0.00     0.168 HD
ENDROOT
BRANCH   1  18
HETATM   18  N2  UNL     1      25.172   4.095  50.859  1.00  0.00    -0.328 N 
HETATM   19  C8  UNL     1      26.056   4.217  49.745  1.00  0.00     0.298 C 
HETATM   20  O1  UNL     1      26.515   3.206  49.110  1.00  0.00    -0.258 OA
HETATM   21  H13 UNL     1      24.847   4.974  51.317  1.00  0.00     0.165 HD
BRANCH  19  22
HETATM   22  C7  UNL     1      26.510   5.491  49.238  1.00  0.00    -0.004 C 
HETATM   23  C6  UNL     1      26.901   6.547  48.800  1.00  0.00    -0.066 C 
BRANCH  23  24
HETATM   24  C5  UNL     1      27.405   7.833  48.257  1.00  0.00     0.366 C 
BRANCH  24  25
HETATM   25  N1  UNL     1      28.860   7.876  48.417  1.00  0.00     0.098 N 
BRANCH  25  26
HETATM   26  C2  UNL     1      29.297   9.275  48.279  1.00  0.00     0.269 C 
HETATM   27  C1  UNL     1      30.230   9.598  49.433  1.00  0.00     0.037 C 
ENDBRANCH  25  26
BRANCH  25  28
HETATM   28  C3  UNL     1      29.505   7.133  47.341  1.00  0.00     0.269 C 
HETATM   29  C4  UNL     1      29.655   7.970  46.086  1.00  0.00     0.037 C 
ENDBRANCH  25  28
ENDBRANCH  24  25
ENDBRANCH  23  24
ENDBRANCH  19  22
ENDBRANCH   1  18
BRANCH  13  30
HETATM   30  C17 UNL     1      21.699   2.466  48.743  1.00  0.00     0.142 C 
HETATM   31  N6  UNL     1      21.180   3.653  48.889  1.00  0.00    -0.304 NA
HETATM   32  C18 UNL     1      20.490   4.063  50.077  1.00  0.00     0.177 C 
ENDBRANCH  13  30
TORSDOF 7
ENDMDL
MODEL 7
REMARK VINA RESULT:      -6.9      4.532      9.731
REMARK  7 active torsions:
REMARK  status: ('A' for Active; 'I' for Inactive)
REMARK    1  A    between atoms: C2_2  and  N1_3 
REMARK    2  A    between atoms: N1_3  and  C3_4 
REMARK    3  A    between atoms: N1_3  and  C5_6 
REMARK    4  A    between atoms: C5_6  and  C6_7 
REMARK    5  A    between atoms: C7_8  and  C8_9 
REMARK       I    between atoms: C8_9  and  N2_11 
REMARK    6  A    between atoms: N2_11  and  C9_12 
REMARK    7  A    between atoms: C16_24  and  C17_25 
ROOT
HETATM    1  C9  UNL     1      26.737   6.804  48.986  1.00  0.00     0.112 C 
HETATM    2  C10 UNL     1      25.617   6.895  47.938  1.00  0.00     0.043 C 
HETATM    3  C11 UNL     1      24.901   7.892  47.350  1.00  0.00     0.074 C 
HETATM    4 CL1  UNL     1      23.498   8.084  46.360  1.00  0.00    -0.081 Cl
HETATM    5  C12 UNL     1      25.353   9.332  47.541  1.00  0.00     0.171 C 
HETATM    6  F1  UNL     1      25.310  10.660  47.346  1.00  0.00    -0.201 F 
HETATM    7  C13 UNL     1      26.459   9.348  48.327  1.00  0.00     0.115 C 
HETATM    8  N3  UNL     1      27.726   9.953  47.993  1.00  0.00    -0.332 N 
HETATM    9  C14 UNL     1      28.992   9.256  48.220  1.00  0.00     0.138 A 
HETATM   10  N4  UNL     1      29.890  10.240  48.165  1.00  0.00    -0.224 NA
HETATM   11  C15 UNL     1      31.156   9.741  48.372  1.00  0.00     0.236 A 
HETATM   12  N5  UNL     1      31.377   8.421  48.594  1.00  0.00    -0.240 NA
HETATM   13  C16 UNL     1      30.404   7.498  48.631  1.00  0.00     0.085 A 
HETATM   14  C19 UNL     1      29.060   7.849  48.437  1.00  0.00     0.022 A 
HETATM   15  C20 UNL     1      28.082   6.746  48.459  1.00  0.00     0.092 C 
HETATM   16  S1  UNL     1      26.317   8.359  49.941  1.00  0.00    -0.073 SA
HETATM   17  H15 UNL     1      27.476  10.868  47.597  1.00  0.00     0.168 HD
ENDROOT
BRANCH   1  18
HETATM   18  N2  UNL     1      26.432   5.739  49.892  1.00  0.00    -0.328 N 
HETATM   19  C8  UNL     1      26.933   4.437  49.592  1.00  0.00     0.298 C 
HETATM   20  O1  UNL     1      27.637   4.187  48.554  1.00  0.00    -0.258 OA
HETATM   21  H13 UNL     1      25.866   5.851  50.762  1.00  0.00     0.165 HD
BRANCH  19  22
HETATM   22  C7  UNL     1      26.689   3.288  50.434  1.00  0.00    -0.004 C 
HETATM   23  C6  UNL     1      26.502   2.318  51.130  1.00  0.00    -0.066 C 
BRANCH  23  24
HETATM   24  C5  UNL     1      26.283   1.113  51.967  1.00  0.00     0.366 C 
BRANCH  24  25
HETATM   25  N1  UNL     1      26.783   1.377  53.317  1.00  0.00     0.098 N 
BRANCH  25  26
HETATM   26  C2  UNL     1      28.248   1.501  53.250  1.00  0.00     0.269 C 
HETATM   27  C1  UNL     1      28.859   0.384  54.077  1.00  0.00     0.037 C 
ENDBRANCH  25  26
BRANCH  25  28
HETATM   28  C3  UNL     1      26.503   0.242  54.187  1.00  0.00     0.269 C 
HETATM   29  C4  UNL     1      25.265  -0.516  53.748  1.00  0.00     0.037 C 
ENDBRANCH  25  28
ENDBRANCH  24  25
ENDBRANCH  23  24
ENDBRANCH  19  22
ENDBRANCH   1  18
BRANCH  13  30
HETATM   30  C17 UNL     1      30.678   6.092  48.871  1.00  0.00     0.142 C 
HETATM   31  N6  UNL     1      31.320   5.580  47.858  1.00  0.00    -0.304 NA
HETATM   32  C18 UNL     1      31.679   6.339  46.696  1.00  0.00     0.177 C 
ENDBRANCH  13  30
TORSDOF 7
ENDMDL
MODEL 8
REMARK VINA RESULT:      -6.8      3.343      4.875
REMARK  7 active torsions:
REMARK  status: ('A' for Active; 'I' for Inactive)
REMARK    1  A    between atoms: C2_2  and  N1_3 
REMARK    2  A    between atoms: N1_3  and  C3_4 
REMARK    3  A    between atoms: N1_3  and  C5_6 
REMARK    4  A    between atoms: C5_6  and  C6_7 
REMARK    5  A    between atoms: C7_8  and  C8_9 
REMARK       I    between atoms: C8_9  and  N2_11 
REMARK    6  A    between atoms: N2_11  and  C9_12 
REMARK    7  A    between atoms: C16_24  and  C17_25 
ROOT
HETATM    1  C9  UNL     1      22.825   2.924  51.103  1.00  0.00     0.112 C 
HETATM    2  C10 UNL     1      21.474   3.631  51.291  1.00  0.00     0.043 C 
HETATM    3  C11 UNL     1      20.173   3.248  51.411  1.00  0.00     0.074 C 
HETATM    4 CL1  UNL     1      18.596   3.954  51.393  1.00  0.00    -0.081 Cl
HETATM    5  C12 UNL     1      19.858   1.776  51.624  1.00  0.00     0.171 C 
HETATM    6  F1  UNL     1      19.060   0.719  51.847  1.00  0.00    -0.201 F 
HETATM    7  C13 UNL     1      21.019   1.073  51.646  1.00  0.00     0.115 C 
HETATM    8  N3  UNL     1      21.458   0.194  52.703  1.00  0.00    -0.332 N 
HETATM    9  C14 UNL     1      22.825   0.241  53.219  1.00  0.00     0.138 A 
HETATM   10  N4  UNL     1      22.942  -0.923  53.862  1.00  0.00    -0.224 NA
HETATM   11  C15 UNL     1      24.200  -1.040  54.408  1.00  0.00     0.236 A 
HETATM   12  N5  UNL     1      25.135  -0.066  54.268  1.00  0.00    -0.240 NA
HETATM   13  C16 UNL     1      24.925   1.079  53.600  1.00  0.00     0.085 A 
HETATM   14  C19 UNL     1      23.692   1.347  52.988  1.00  0.00     0.022 A 
HETATM   15  C20 UNL     1      23.563   2.654  52.317  1.00  0.00     0.092 C 
HETATM   16  S1  UNL     1      22.195   1.413  50.195  1.00  0.00    -0.073 SA
HETATM   17  H15 UNL     1      20.624  -0.360  52.937  1.00  0.00     0.168 HD
ENDROOT
BRANCH   1  18
HETATM   18  N2  UNL     1      23.582   3.637  50.120  1.00  0.00    -0.328 N 
HETATM   19  C8  UNL     1      24.133   4.903  50.484  1.00  0.00     0.298 C 
HETATM   20  O1  UNL     1      23.976   5.420  51.643  1.00  0.00    -0.258 OA
HETATM   21  H13 UNL     1      23.761   3.293  49.152  1.00  0.00     0.165 HD
BRANCH  19  22
HETATM   22  C7  UNL     1      24.914   5.710  49.576  1.00  0.00    -0.004 C 
HETATM   23  C6  UNL     1      25.564   6.402  48.828  1.00  0.00    -0.066 C 
BRANCH  23  24
HETATM   24  C5  UNL     1      26.348   7.271  47.916  1.00  0.00     0.366 C 
BRANCH  24  25
HETATM   25  N1  UNL     1      27.668   7.505  48.503  1.00  0.00     0.098 N 
BRANCH  25  26
HETATM   26  C2  UNL     1      27.906   8.957  48.537  1.00  0.00     0.269 C 
HETATM   27  C1  UNL     1      29.261   9.202  49.177  1.00  0.00     0.037 C 
ENDBRANCH  25  26
BRANCH  25  28
HETATM   28  C3  UNL     1      28.704   6.935  47.652  1.00  0.00     0.269 C 
HETATM   29  C4  UNL     1      29.165   5.579  48.151  1.00  0.00     0.037 C 
ENDBRANCH  25  28
ENDBRANCH  24  25
ENDBRANCH  23  24
ENDBRANCH  19  22
ENDBRANCH   1  18
BRANCH  13  30
HETATM   30  C17 UNL     1      25.949   2.100  53.471  1.00  0.00     0.142 C 
HETATM   31  N6  UNL     1      26.825   1.746  52.573  1.00  0.00    -0.304 NA
HETATM   32  C18 UNL     1      26.744   0.513  51.845  1.00  0.00     0.177 C 
ENDBRANCH  13  30
TORSDOF 7
ENDMDL
MODEL 9
REMARK VINA RESULT:      -6.5      1.875      2.608
REMARK  7 active torsions:
REMARK  status: ('A' for Active; 'I' for Inactive)
REMARK    1  A    between atoms: C2_2  and  N1_3 
REMARK    2  A    between atoms: N1_3  and  C3_4 
REMARK    3  A    between atoms: N1_3  and  C5_6 
REMARK    4  A    between atoms: C5_6  and  C6_7 
REMARK    5  A    between atoms: C7_8  and  C8_9 
REMARK       I    between atoms: C8_9  and  N2_11 
REMARK    6  A    between atoms: N2_11  and  C9_12 
REMARK    7  A    between atoms: C16_24  and  C17_25 
ROOT
HETATM    1  C9  UNL     1      24.946   2.629  51.220  1.00  0.00     0.112 C 
HETATM    2  C10 UNL     1      26.114   1.675  51.511  1.00  0.00     0.043 C 
HETATM    3  C11 UNL     1      26.406   0.740  52.457  1.00  0.00     0.074 C 
HETATM    4 CL1  UNL     1      27.753  -0.198  52.995  1.00  0.00    -0.081 Cl
HETATM    5  C12 UNL     1      25.307   0.287  53.405  1.00  0.00     0.171 C 
HETATM    6  F1  UNL     1      24.775  -0.453  54.392  1.00  0.00    -0.201 F 
HETATM    7  C13 UNL     1      24.164   0.959  53.112  1.00  0.00     0.115 C 
HETATM    8  N3  UNL     1      22.886   0.364  52.803  1.00  0.00    -0.332 N 
HETATM    9  C14 UNL     1      22.077   0.829  51.678  1.00  0.00     0.138 A 
HETATM   10  N4  UNL     1      20.869   0.335  51.953  1.00  0.00    -0.224 NA
HETATM   11  C15 UNL     1      19.972   0.698  50.974  1.00  0.00     0.236 A 
HETATM   12  N5  UNL     1      20.342   1.454  49.910  1.00  0.00    -0.240 NA
HETATM   13  C16 UNL     1      21.589   1.908  49.715  1.00  0.00     0.085 A 
HETATM   14  C19 UNL     1      22.618   1.622  50.624  1.00  0.00     0.022 A 
HETATM   15  C20 UNL     1      23.957   2.139  50.286  1.00  0.00     0.092 C 
HETATM   16  S1  UNL     1      24.348   2.844  52.982  1.00  0.00    -0.073 SA
HETATM   17  H15 UNL     1      22.772  -0.376  53.507  1.00  0.00     0.168 HD
ENDROOT
BRANCH   1  18
HETATM   18  N2  UNL     1      25.478   3.911  50.868  1.00  0.00    -0.328 N 
HETATM   19  C8  UNL     1      24.587   5.026  50.849  1.00  0.00     0.298 C 
HETATM   20  O1  UNL     1      23.343   4.925  51.131  1.00  0.00    -0.258 OA
HETATM   21  H13 UNL     1      26.477   4.086  50.624  1.00  0.00     0.165 HD
BRANCH  19  22
HETATM   22  C7  UNL     1      25.011   6.365  50.511  1.00  0.00    -0.004 C 
HETATM   23  C6  UNL     1      25.379   7.484  50.243  1.00  0.00    -0.066 C 
BRANCH  23  24
HETATM   24  C5  UNL     1      25.838   8.862  49.940  1.00  0.00     0.366 C 
BRANCH  24  25
HETATM   25  N1  UNL     1      27.273   8.829  49.649  1.00  0.00     0.098 N 
BRANCH  25  26
HETATM   26  C2  UNL     1      27.622  10.055  48.914  1.00  0.00     0.269 C 
HETATM   27  C1  UNL     1      26.338  10.797  48.586  1.00  0.00     0.037 C 
ENDBRANCH  25  26
BRANCH  25  28
HETATM   28  C3  UNL     1      27.580   7.714  48.763  1.00  0.00     0.269 C 
HETATM   29  C4  UNL     1      28.621   8.086  47.724  1.00  0.00     0.037 C 
ENDBRANCH  25  28
ENDBRANCH  24  25
ENDBRANCH  23  24
ENDBRANCH  19  22
ENDBRANCH   1  18
BRANCH  13  30
HETATM   30  C17 UNL     1      21.949   2.716  48.562  1.00  0.00     0.142 C 
HETATM   31  N6  UNL     1      21.320   3.857  48.600  1.00  0.00    -0.304 NA
HETATM   32  C18 UNL     1      20.413   4.215  49.651  1.00  0.00     0.177 C 
ENDBRANCH  13  30
TORSDOF 7
ENDMDL
