MODEL 1
REMARK VINA RESULT:      -8.0      0.000      0.000
REMARK  4 active torsions:
REMARK  status: ('A' for Active; 'I' for Inactive)
REMARK    1  A    between atoms: N1_8  and  C6_9 
REMARK    2  A    between atoms: C6_9  and  C7_10 
REMARK    3  A    between atoms: C9_14  and  C10_15 
REMARK    4  A    between atoms: C10_15  and  C11_16 
ROOT
HETATM    1  C7  UNL     1      23.345   2.594  52.024  1.00  0.00     0.051 A 
HETATM    2  N2  UNL     1      22.395   2.161  51.266  1.00  0.00    -0.273 NA
HETATM    3  C8  UNL     1      21.854   0.829  51.278  1.00  0.00     0.270 A 
HETATM    4  N3  UNL     1      22.492  -0.035  52.253  1.00  0.00    -0.375 N 
HETATM    5  C9  UNL     1      23.538   0.415  53.098  1.00  0.00     0.012 A 
HETATM    6  C17 UNL     1      23.941   1.677  52.981  1.00  0.00     0.053 A 
HETATM    7  H7  UNL     1      22.109  -1.006  52.271  1.00  0.00     0.161 HD
ENDROOT
BRANCH   1   8
HETATM    8  C6  UNL     1      23.768   4.006  51.862  1.00  0.00     0.189 C 
BRANCH   8   9
HETATM    9  N1  UNL     1      24.814   4.199  50.886  1.00  0.00    -0.327 N 
HETATM   10  C1  UNL     1      24.735   5.307  49.961  1.00  0.00     0.192 C 
HETATM   11  F1  UNL     1      23.689   6.173  50.005  1.00  0.00    -0.186 F 
HETATM   12  C2  UNL     1      25.743   5.416  49.080  1.00  0.00     0.086 C 
HETATM   13  C3  UNL     1      26.872   4.464  49.046  1.00  0.00     0.051 C 
HETATM   14 CL1  UNL     1      28.360   5.116  48.388  1.00  0.00    -0.083 Cl
HETATM   15  C4  UNL     1      26.494   3.298  49.537  1.00  0.00     0.015 C 
HETATM   16  C5  UNL     1      25.957   3.358  50.746  1.00  0.00     0.107 C 
ENDBRANCH   8   9
ENDBRANCH   1   8
BRANCH   5  17
HETATM   17  C10 UNL     1      24.150  -0.519  54.079  1.00  0.00     0.095 C 
BRANCH  17  18
HETATM   18  C11 UNL     1      25.629  -0.485  53.956  1.00  0.00    -0.053 A 
HETATM   19  C12 UNL     1      26.390   0.129  54.916  1.00  0.00     0.007 A 
HETATM   20  C13 UNL     1      27.770   0.190  54.855  1.00  0.00     0.001 A 
HETATM   21  C14 UNL     1      28.452  -0.382  53.791  1.00  0.00     0.000 A 
HETATM   22  C15 UNL     1      27.663  -0.999  52.830  1.00  0.00     0.001 A 
HETATM   23  C16 UNL     1      26.287  -1.061  52.889  1.00  0.00     0.007 A 
ENDBRANCH  17  18
ENDBRANCH   5  17
TORSDOF 4
ENDMDL
MODEL 2
REMARK VINA RESULT:      -7.8      2.999      6.353
REMARK  4 active torsions:
REMARK  status: ('A' for Active; 'I' for Inactive)
REMARK    1  A    between atoms: N1_8  and  C6_9 
REMARK    2  A    between atoms: C6_9  and  C7_10 
REMARK    3  A    between atoms: C9_14  and  C10_15 
REMARK    4  A    between atoms: C10_15  and  C11_16 
ROOT
HETATM    1  C7  UNL     1      24.411   2.633  52.512  1.00  0.00     0.051 A 
HETATM    2  N2  UNL     1      24.129   3.541  53.385  1.00  0.00    -0.273 NA
HETATM    3  C8  UNL     1      23.844   4.920  53.098  1.00  0.00     0.270 A 
HETATM    4  N3  UNL     1      23.904   5.231  51.683  1.00  0.00    -0.375 N 
HETATM    5  C9  UNL     1      24.211   4.253  50.703  1.00  0.00     0.012 A 
HETATM    6  C17 UNL     1      24.452   3.010  51.109  1.00  0.00     0.053 A 
HETATM    7  H7  UNL     1      23.701   6.230  51.460  1.00  0.00     0.161 HD
ENDROOT
BRANCH   1   8
HETATM    8  C6  UNL     1      24.675   1.260  53.005  1.00  0.00     0.189 C 
BRANCH   8   9
HETATM    9  N1  UNL     1      26.068   0.991  53.275  1.00  0.00    -0.327 N 
HETATM   10  C1  UNL     1      26.430   0.122  54.371  1.00  0.00     0.192 C 
HETATM   11  F1  UNL     1      25.473  -0.450  55.147  1.00  0.00    -0.186 F 
HETATM   12  C2  UNL     1      27.745  -0.076  54.561  1.00  0.00     0.086 C 
HETATM   13  C3  UNL     1      28.772   0.555  53.708  1.00  0.00     0.051 C 
HETATM   14 CL1  UNL     1      30.290  -0.318  53.620  1.00  0.00    -0.083 Cl
HETATM   15  C4  UNL     1      28.301   1.672  53.184  1.00  0.00     0.015 C 
HETATM   16  C5  UNL     1      27.157   1.531  52.530  1.00  0.00     0.107 C 
ENDBRANCH   8   9
ENDBRANCH   1   8
BRANCH   5  17
HETATM   17  C10 UNL     1      24.255   4.633  49.266  1.00  0.00     0.095 C 
BRANCH  17  18
HETATM   18  C11 UNL     1      25.593   5.179  48.928  1.00  0.00    -0.053 A 
HETATM   19  C12 UNL     1      25.728   6.486  48.534  1.00  0.00     0.007 A 
HETATM   20  C13 UNL     1      26.948   7.049  48.208  1.00  0.00     0.001 A 
HETATM   21  C14 UNL     1      28.110   6.292  48.269  1.00  0.00     0.000 A 
HETATM   22  C15 UNL     1      27.950   4.973  48.671  1.00  0.00     0.001 A 
HETATM   23  C16 UNL     1      26.736   4.411  48.996  1.00  0.00     0.007 A 
ENDBRANCH  17  18
ENDBRANCH   5  17
TORSDOF 4
ENDMDL
MODEL 3
REMARK VINA RESULT:      -7.7      2.081      2.945
REMARK  4 active torsions:
REMARK  status: ('A' for Active; 'I' for Inactive)
REMARK    1  A    between atoms: N1_8  and  C6_9 
REMARK    2  A    between atoms: C6_9  and  C7_10 
REMARK    3  A    between atoms: C9_14  and  C10_15 
REMARK    4  A    between atoms: C10_15  and  C11_16 
ROOT
HETATM    1  C7  UNL     1      25.758   3.067  51.011  1.00  0.00     0.051 A 
HETATM    2  N2  UNL     1      24.708   3.241  51.739  1.00  0.00    -0.273 NA
HETATM    3  C8  UNL     1      24.589   2.913  53.133  1.00  0.00     0.270 A 
HETATM    4  N3  UNL     1      25.800   2.338  53.687  1.00  0.00    -0.375 N 
HETATM    5  C9  UNL     1      26.969   2.136  52.909  1.00  0.00     0.012 A 
HETATM    6  C17 UNL     1      26.940   2.488  51.627  1.00  0.00     0.053 A 
HETATM    7  H7  UNL     1      25.727   2.093  54.698  1.00  0.00     0.161 HD
ENDROOT
BRANCH   1   8
HETATM    8  C6  UNL     1      25.686   3.470  49.586  1.00  0.00     0.189 C 
BRANCH   8   9
HETATM    9  N1  UNL     1      26.315   4.739  49.301  1.00  0.00    -0.327 N 
HETATM   10  C1  UNL     1      25.589   5.966  49.531  1.00  0.00     0.192 C 
HETATM   11  F1  UNL     1      24.321   5.940  50.018  1.00  0.00    -0.186 F 
HETATM   12  C2  UNL     1      26.240   7.104  49.237  1.00  0.00     0.086 C 
HETATM   13  C3  UNL     1      27.618   7.113  48.707  1.00  0.00     0.051 C 
HETATM   14 CL1  UNL     1      28.525   8.573  49.049  1.00  0.00    -0.083 Cl
HETATM   15  C4  UNL     1      27.867   5.981  48.074  1.00  0.00     0.015 C 
HETATM   16  C5  UNL     1      27.638   4.890  48.789  1.00  0.00     0.107 C 
ENDBRANCH   8   9
ENDBRANCH   1   8
BRANCH   5  17
HETATM   17  C10 UNL     1      28.180   1.543  53.535  1.00  0.00     0.095 C 
BRANCH  17  18
HETATM   18  C11 UNL     1      28.204   0.077  53.306  1.00  0.00    -0.053 A 
HETATM   19  C12 UNL     1      29.340  -0.646  53.562  1.00  0.00     0.007 A 
HETATM   20  C13 UNL     1      29.420  -2.013  53.369  1.00  0.00     0.001 A 
HETATM   21  C14 UNL     1      28.323  -2.720  52.895  1.00  0.00     0.000 A 
HETATM   22  C15 UNL     1      27.184  -1.969  52.642  1.00  0.00     0.001 A 
HETATM   23  C16 UNL     1      27.103  -0.607  52.835  1.00  0.00     0.007 A 
ENDBRANCH  17  18
ENDBRANCH   5  17
TORSDOF 4
ENDMDL
MODEL 4
REMARK VINA RESULT:      -7.6      2.880      3.668
REMARK  4 active torsions:
REMARK  status: ('A' for Active; 'I' for Inactive)
REMARK    1  A    between atoms: N1_8  and  C6_9 
REMARK    2  A    between atoms: C6_9  and  C7_10 
REMARK    3  A    between atoms: C9_14  and  C10_15 
REMARK    4  A    between atoms: C10_15  and  C11_16 
ROOT
HETATM    1  C7  UNL     1      22.985   1.195  52.563  1.00  0.00     0.051 A 
HETATM    2  N2  UNL     1      22.602   0.468  53.556  1.00  0.00    -0.273 NA
HETATM    3  C8  UNL     1      23.385  -0.547  54.205  1.00  0.00     0.270 A 
HETATM    4  N3  UNL     1      24.707  -0.702  53.627  1.00  0.00    -0.375 N 
HETATM    5  C9  UNL     1      25.154   0.085  52.535  1.00  0.00     0.012 A 
HETATM    6  C17 UNL     1      24.323   0.992  52.031  1.00  0.00     0.053 A 
HETATM    7  H7  UNL     1      25.286  -1.437  54.087  1.00  0.00     0.161 HD
ENDROOT
BRANCH   1   8
HETATM    8  C6  UNL     1      22.029   2.194  52.028  1.00  0.00     0.189 C 
BRANCH   8   9
HETATM    9  N1  UNL     1      22.138   2.410  50.604  1.00  0.00    -0.327 N 
HETATM   10  C1  UNL     1      21.703   1.380  49.689  1.00  0.00     0.192 C 
HETATM   11  F1  UNL     1      21.186   0.213  50.153  1.00  0.00    -0.186 F 
HETATM   12  C2  UNL     1      21.842   1.653  48.381  1.00  0.00     0.086 C 
HETATM   13  C3  UNL     1      22.407   2.928  47.894  1.00  0.00     0.051 C 
HETATM   14 CL1  UNL     1      21.877   3.400  46.291  1.00  0.00    -0.083 Cl
HETATM   15  C4  UNL     1      23.211   3.444  48.805  1.00  0.00     0.015 C 
HETATM   16  C5  UNL     1      22.662   3.591  50.002  1.00  0.00     0.107 C 
ENDBRANCH   8   9
ENDBRANCH   1   8
BRANCH   5  17
HETATM   17  C10 UNL     1      26.521  -0.119  51.987  1.00  0.00     0.095 C 
BRANCH  17  18
HETATM   18  C11 UNL     1      27.524   0.518  52.875  1.00  0.00    -0.053 A 
HETATM   19  C12 UNL     1      27.721   1.875  52.836  1.00  0.00     0.007 A 
HETATM   20  C13 UNL     1      28.639   2.523  53.641  1.00  0.00     0.001 A 
HETATM   21  C14 UNL     1      29.416   1.806  54.540  1.00  0.00     0.000 A 
HETATM   22  C15 UNL     1      29.200   0.435  54.563  1.00  0.00     0.001 A 
HETATM   23  C16 UNL     1      28.285  -0.213  53.763  1.00  0.00     0.007 A 
ENDBRANCH  17  18
ENDBRANCH   5  17
TORSDOF 4
ENDMDL
MODEL 5
REMARK VINA RESULT:      -7.6      2.121      2.939
REMARK  4 active torsions:
REMARK  status: ('A' for Active; 'I' for Inactive)
REMARK    1  A    between atoms: N1_8  and  C6_9 
REMARK    2  A    between atoms: C6_9  and  C7_10 
REMARK    3  A    between atoms: C9_14  and  C10_15 
REMARK    4  A    between atoms: C10_15  and  C11_16 
ROOT
HETATM    1  C7  UNL     1      24.394   3.978  50.763  1.00  0.00     0.051 A 
HETATM    2  N2  UNL     1      23.963   4.912  51.541  1.00  0.00    -0.273 NA
HETATM    3  C8  UNL     1      23.794   4.806  52.965  1.00  0.00     0.270 A 
HETATM    4  N3  UNL     1      24.161   3.503  53.486  1.00  0.00    -0.375 N 
HETATM    5  C9  UNL     1      24.638   2.460  52.653  1.00  0.00     0.012 A 
HETATM    6  C17 UNL     1      24.747   2.696  51.349  1.00  0.00     0.053 A 
HETATM    7  H7  UNL     1      24.042   3.412  54.518  1.00  0.00     0.161 HD
ENDROOT
BRANCH   1   8
HETATM    8  C6  UNL     1      24.499   4.280  49.315  1.00  0.00     0.189 C 
BRANCH   8   9
HETATM    9  N1  UNL     1      25.670   5.047  48.958  1.00  0.00    -0.327 N 
HETATM   10  C1  UNL     1      26.958   4.396  48.886  1.00  0.00     0.192 C 
HETATM   11  F1  UNL     1      27.078   3.068  49.144  1.00  0.00    -0.186 F 
HETATM   12  C2  UNL     1      27.999   5.177  48.552  1.00  0.00     0.086 C 
HETATM   13  C3  UNL     1      27.849   6.620  48.275  1.00  0.00     0.051 C 
HETATM   14 CL1  UNL     1      29.071   7.293  47.214  1.00  0.00    -0.083 Cl
HETATM   15  C4  UNL     1      26.792   7.095  48.909  1.00  0.00     0.015 C 
HETATM   16  C5  UNL     1      25.666   6.442  48.664  1.00  0.00     0.107 C 
ENDBRANCH   8   9
ENDBRANCH   1   8
BRANCH   5  17
HETATM   17  C10 UNL     1      25.000   1.146  53.247  1.00  0.00     0.095 C 
BRANCH  17  18
HETATM   18  C11 UNL     1      26.474   1.041  53.387  1.00  0.00    -0.053 A 
HETATM   19  C12 UNL     1      27.094  -0.179  53.299  1.00  0.00     0.007 A 
HETATM   20  C13 UNL     1      28.462  -0.336  53.420  1.00  0.00     0.001 A 
HETATM   21  C14 UNL     1      29.279   0.764  53.641  1.00  0.00     0.000 A 
HETATM   22  C15 UNL     1      28.631   1.989  53.726  1.00  0.00     0.001 A 
HETATM   23  C16 UNL     1      27.268   2.147  53.605  1.00  0.00     0.007 A 
ENDBRANCH  17  18
ENDBRANCH   5  17
TORSDOF 4
ENDMDL
MODEL 6
REMARK VINA RESULT:      -7.6      3.091      4.790
REMARK  4 active torsions:
REMARK  status: ('A' for Active; 'I' for Inactive)
REMARK    1  A    between atoms: N1_8  and  C6_9 
REMARK    2  A    between atoms: C6_9  and  C7_10 
REMARK    3  A    between atoms: C9_14  and  C10_15 
REMARK    4  A    between atoms: C10_15  and  C11_16 
ROOT
HETATM    1  C7  UNL     1      24.198   3.141  50.902  1.00  0.00     0.051 A 
HETATM    2  N2  UNL     1      25.145   3.502  50.103  1.00  0.00    -0.273 NA
HETATM    3  C8  UNL     1      26.551   3.319  50.334  1.00  0.00     0.270 A 
HETATM    4  N3  UNL     1      26.840   2.668  51.598  1.00  0.00    -0.375 N 
HETATM    5  C9  UNL     1      25.819   2.262  52.494  1.00  0.00     0.012 A 
HETATM    6  C17 UNL     1      24.555   2.492  52.152  1.00  0.00     0.053 A 
HETATM    7  H7  UNL     1      27.858   2.531  51.779  1.00  0.00     0.161 HD
ENDROOT
BRANCH   1   8
HETATM    8  C6  UNL     1      22.801   3.418  50.486  1.00  0.00     0.189 C 
BRANCH   8   9
HETATM    9  N1  UNL     1      21.847   2.433  50.939  1.00  0.00    -0.327 N 
HETATM   10  C1  UNL     1      20.984   2.734  52.058  1.00  0.00     0.192 C 
HETATM   11  F1  UNL     1      21.056   3.937  52.685  1.00  0.00    -0.186 F 
HETATM   12  C2  UNL     1      20.127   1.766  52.423  1.00  0.00     0.086 C 
HETATM   13  C3  UNL     1      20.063   0.463  51.730  1.00  0.00     0.051 C 
HETATM   14 CL1  UNL     1      18.512  -0.347  51.835  1.00  0.00    -0.083 Cl
HETATM   15  C4  UNL     1      21.226   0.193  51.167  1.00  0.00     0.015 C 
HETATM   16  C5  UNL     1      21.680   1.141  50.360  1.00  0.00     0.107 C 
ENDBRANCH   8   9
ENDBRANCH   1   8
BRANCH   5  17
HETATM   17  C10 UNL     1      26.179   1.598  53.774  1.00  0.00     0.095 C 
BRANCH  17  18
HETATM   18  C11 UNL     1      26.967   0.370  53.505  1.00  0.00    -0.053 A 
HETATM   19  C12 UNL     1      26.382  -0.710  52.895  1.00  0.00     0.007 A 
HETATM   20  C13 UNL     1      27.067  -1.878  52.618  1.00  0.00     0.001 A 
HETATM   21  C14 UNL     1      28.408  -2.003  52.956  1.00  0.00     0.000 A 
HETATM   22  C15 UNL     1      28.980  -0.899  53.571  1.00  0.00     0.001 A 
HETATM   23  C16 UNL     1      28.299   0.266  53.847  1.00  0.00     0.007 A 
ENDBRANCH  17  18
ENDBRANCH   5  17
TORSDOF 4
ENDMDL
MODEL 7
REMARK VINA RESULT:      -7.5      2.346      3.668
REMARK  4 active torsions:
REMARK  status: ('A' for Active; 'I' for Inactive)
REMARK    1  A    between atoms: N1_8  and  C6_9 
REMARK    2  A    between atoms: C6_9  and  C7_10 
REMARK    3  A    between atoms: C9_14  and  C10_15 
REMARK    4  A    between atoms: C10_15  and  C11_16 
ROOT
HETATM    1  C7  UNL     1      24.280   3.789  50.634  1.00  0.00     0.051 A 
HETATM    2  N2  UNL     1      23.947   4.626  51.557  1.00  0.00    -0.273 NA
HETATM    3  C8  UNL     1      23.823   4.326  52.957  1.00  0.00     0.270 A 
HETATM    4  N3  UNL     1      24.114   2.940  53.269  1.00  0.00    -0.375 N 
HETATM    5  C9  UNL     1      24.483   1.999  52.274  1.00  0.00     0.012 A 
HETATM    6  C17 UNL     1      24.560   2.415  51.013  1.00  0.00     0.053 A 
HETATM    7  H7  UNL     1      24.027   2.707  54.282  1.00  0.00     0.161 HD
ENDROOT
BRANCH   1   8
HETATM    8  C6  UNL     1      24.353   4.291  49.241  1.00  0.00     0.189 C 
BRANCH   8   9
HETATM    9  N1  UNL     1      25.538   5.066  48.956  1.00  0.00    -0.327 N 
HETATM   10  C1  UNL     1      26.825   4.412  48.900  1.00  0.00     0.192 C 
HETATM   11  F1  UNL     1      26.932   3.073  49.105  1.00  0.00    -0.186 F 
HETATM   12  C2  UNL     1      27.880   5.201  48.636  1.00  0.00     0.086 C 
HETATM   13  C3  UNL     1      27.745   6.655  48.416  1.00  0.00     0.051 C 
HETATM   14 CL1  UNL     1      29.005   7.366  47.426  1.00  0.00    -0.083 Cl
HETATM   15  C4  UNL     1      26.670   7.108  49.033  1.00  0.00     0.015 C 
HETATM   16  C5  UNL     1      25.550   6.473  48.723  1.00  0.00     0.107 C 
ENDBRANCH   8   9
ENDBRANCH   1   8
BRANCH   5  17
HETATM   17  C10 UNL     1      24.770   0.591  52.657  1.00  0.00     0.095 C 
BRANCH  17  18
HETATM   18  C11 UNL     1      23.562  -0.027  53.258  1.00  0.00    -0.053 A 
HETATM   19  C12 UNL     1      23.649  -0.703  54.447  1.00  0.00     0.007 A 
HETATM   20  C13 UNL     1      22.558  -1.297  55.055  1.00  0.00     0.001 A 
HETATM   21  C14 UNL     1      21.303  -1.229  54.466  1.00  0.00     0.000 A 
HETATM   22  C15 UNL     1      21.238  -0.540  53.263  1.00  0.00     0.001 A 
HETATM   23  C16 UNL     1      22.323   0.053  52.657  1.00  0.00     0.007 A 
ENDBRANCH  17  18
ENDBRANCH   5  17
TORSDOF 4
ENDMDL
MODEL 8
REMARK VINA RESULT:      -7.5      2.482      5.684
REMARK  4 active torsions:
REMARK  status: ('A' for Active; 'I' for Inactive)
REMARK    1  A    between atoms: N1_8  and  C6_9 
REMARK    2  A    between atoms: C6_9  and  C7_10 
REMARK    3  A    between atoms: C9_14  and  C10_15 
REMARK    4  A    between atoms: C10_15  and  C11_16 
ROOT
HETATM    1  C7  UNL     1      23.305   1.713  51.919  1.00  0.00     0.051 A 
HETATM    2  N2  UNL     1      22.589   1.009  51.109  1.00  0.00    -0.273 NA
HETATM    3  C8  UNL     1      22.088   1.447  49.836  1.00  0.00     0.270 A 
HETATM    4  N3  UNL     1      22.464   2.810  49.515  1.00  0.00    -0.375 N 
HETATM    5  C9  UNL     1      23.251   3.606  50.386  1.00  0.00     0.012 A 
HETATM    6  C17 UNL     1      23.650   3.072  51.537  1.00  0.00     0.053 A 
HETATM    7  H7  UNL     1      22.106   3.142  48.593  1.00  0.00     0.161 HD
ENDROOT
BRANCH   1   8
HETATM    8  C6  UNL     1      23.728   1.082  53.193  1.00  0.00     0.189 C 
BRANCH   8   9
HETATM    9  N1  UNL     1      25.113   0.673  53.215  1.00  0.00    -0.327 N 
HETATM   10  C1  UNL     1      26.119   1.578  53.724  1.00  0.00     0.192 C 
HETATM   11  F1  UNL     1      25.774   2.807  54.189  1.00  0.00    -0.186 F 
HETATM   12  C2  UNL     1      27.384   1.127  53.707  1.00  0.00     0.086 C 
HETATM   13  C3  UNL     1      27.741  -0.212  53.197  1.00  0.00     0.051 C 
HETATM   14 CL1  UNL     1      29.210  -0.887  53.874  1.00  0.00    -0.083 Cl
HETATM   15  C4  UNL     1      26.842  -0.615  52.317  1.00  0.00     0.015 C 
HETATM   16  C5  UNL     1      25.593  -0.589  52.756  1.00  0.00     0.107 C 
ENDBRANCH   8   9
ENDBRANCH   1   8
BRANCH   5  17
HETATM   17  C10 UNL     1      23.606   4.997  50.000  1.00  0.00     0.095 C 
BRANCH  17  18
HETATM   18  C11 UNL     1      25.005   5.046  49.509  1.00  0.00    -0.053 A 
HETATM   19  C12 UNL     1      25.509   6.199  48.966  1.00  0.00     0.007 A 
HETATM   20  C13 UNL     1      26.804   6.303  48.493  1.00  0.00     0.001 A 
HETATM   21  C14 UNL     1      27.663   5.215  48.553  1.00  0.00     0.000 A 
HETATM   22  C15 UNL     1      27.133   4.058  49.106  1.00  0.00     0.001 A 
HETATM   23  C16 UNL     1      25.843   3.952  49.578  1.00  0.00     0.007 A 
ENDBRANCH  17  18
ENDBRANCH   5  17
TORSDOF 4
ENDMDL
MODEL 9
REMARK VINA RESULT:      -7.5      2.000      2.609
REMARK  4 active torsions:
REMARK  status: ('A' for Active; 'I' for Inactive)
REMARK    1  A    between atoms: N1_8  and  C6_9 
REMARK    2  A    between atoms: C6_9  and  C7_10 
REMARK    3  A    between atoms: C9_14  and  C10_15 
REMARK    4  A    between atoms: C10_15  and  C11_16 
ROOT
HETATM    1  C7  UNL     1      24.719   2.710  50.746  1.00  0.00     0.051 A 
HETATM    2  N2  UNL     1      23.548   2.198  50.918  1.00  0.00    -0.273 NA
HETATM    3  C8  UNL     1      23.103   1.499  52.092  1.00  0.00     0.270 A 
HETATM    4  N3  UNL     1      24.123   1.406  53.120  1.00  0.00    -0.375 N 
HETATM    5  C9  UNL     1      25.418   1.960  52.956  1.00  0.00     0.012 A 
HETATM    6  C17 UNL     1      25.695   2.584  51.815  1.00  0.00     0.053 A 
HETATM    7  H7  UNL     1      23.813   0.899  53.977  1.00  0.00     0.161 HD
ENDROOT
BRANCH   1   8
HETATM    8  C6  UNL     1      24.991   3.396  49.459  1.00  0.00     0.189 C 
BRANCH   8   9
HETATM    9  N1  UNL     1      25.239   4.813  49.588  1.00  0.00    -0.327 N 
HETATM   10  C1  UNL     1      26.446   5.381  49.035  1.00  0.00     0.192 C 
HETATM   11  F1  UNL     1      27.348   4.598  48.387  1.00  0.00    -0.186 F 
HETATM   12  C2  UNL     1      26.608   6.705  49.200  1.00  0.00     0.086 C 
HETATM   13  C3  UNL     1      25.617   7.541  49.908  1.00  0.00     0.051 C 
HETATM   14 CL1  UNL     1      25.607   9.227  49.431  1.00  0.00    -0.083 Cl
HETATM   15  C4  UNL     1      24.937   6.806  50.769  1.00  0.00     0.015 C 
HETATM   16  C5  UNL     1      24.367   5.731  50.244  1.00  0.00     0.107 C 
ENDBRANCH   8   9
ENDBRANCH   1   8
BRANCH   5  17
HETATM   17  C10 UNL     1      26.420   1.833  54.047  1.00  0.00     0.095 C 
BRANCH  17  18
HETATM   18  C11 UNL     1      27.338   0.702  53.762  1.00  0.00    -0.053 A 
HETATM   19  C12 UNL     1      28.670   0.795  54.075  1.00  0.00     0.007 A 
HETATM   20  C13 UNL     1      29.571  -0.226  53.834  1.00  0.00     0.001 A 
HETATM   21  C14 UNL     1      29.148  -1.413  53.252  1.00  0.00     0.000 A 
HETATM   22  C15 UNL     1      27.797  -1.486  52.944  1.00  0.00     0.001 A 
HETATM   23  C16 UNL     1      26.898  -0.469  53.183  1.00  0.00     0.007 A 
ENDBRANCH  17  18
ENDBRANCH   5  17
TORSDOF 4
ENDMDL
