MODEL 1
REMARK VINA RESULT:      -7.8      0.000      0.000
REMARK  5 active torsions:
REMARK  status: ('A' for Active; 'I' for Inactive)
REMARK    1  A    between atoms: C2_2  and  O1_3 
REMARK    2  A    between atoms: O1_3  and  C3_4 
REMARK       I    between atoms: C3_4  and  N1_6 
REMARK    3  A    between atoms: N1_6  and  C4_7 
REMARK    4  A    between atoms: C10_15  and  N4_16 
REMARK    5  A    between atoms: N4_16  and  C11_17 
ROOT
HETATM    1  C4  UNL     1      25.192   1.813  53.421  1.00  0.00     0.034 A 
HETATM    2  C5  UNL     1      24.192   1.214  52.800  1.00  0.00     0.018 A 
HETATM    3  C6  UNL     1      23.316   2.204  52.205  1.00  0.00     0.092 A 
HETATM    4  C7  UNL     1      21.874   2.052  52.237  1.00  0.00     0.052 C 
HETATM    5  C8  UNL     1      21.058   0.901  52.279  1.00  0.00     0.097 C 
HETATM    6  N2  UNL     1      20.412  -0.045  52.307  1.00  0.00    -0.192 NA
HETATM    7  C9  UNL     1      21.225   3.230  52.231  1.00  0.00     0.138 C 
HETATM    8  N3  UNL     1      21.772   4.540  52.226  1.00  0.00    -0.241 NA
HETATM    9  C10 UNL     1      23.053   4.734  52.259  1.00  0.00     0.135 C 
HETATM   10  C16 UNL     1      23.797   3.505  52.644  1.00  0.00     0.003 A 
HETATM   11  C17 UNL     1      24.934   3.268  53.321  1.00  0.00     0.041 A 
ENDROOT
BRANCH   1  12
HETATM   12  N1  UNL     1      26.365   1.438  54.181  1.00  0.00    -0.303 N 
HETATM   13  C3  UNL     1      27.581   1.521  53.411  1.00  0.00     0.365 C 
HETATM   14  O2  UNL     1      27.493   1.890  52.203  1.00  0.00    -0.238 OA
HETATM   15  H6  UNL     1      26.496   1.126  55.165  1.00  0.00     0.171 HD
BRANCH  13  16
HETATM   16  O1  UNL     1      28.878   1.236  53.853  1.00  0.00    -0.304 OA
BRANCH  16  17
HETATM   17  C2  UNL     1      29.073  -0.034  54.496  1.00  0.00     0.176 C 
HETATM   18  C1  UNL     1      29.768  -0.928  53.503  1.00  0.00     0.034 C 
ENDBRANCH  16  17
ENDBRANCH  13  16
ENDBRANCH   1  12
BRANCH   9  19
HETATM   19  N4  UNL     1      23.824   5.917  52.240  1.00  0.00    -0.339 N 
HETATM   20  H10 UNL     1      24.061   6.467  53.097  1.00  0.00     0.167 HD
BRANCH  19  21
HETATM   21  C11 UNL     1      24.247   6.283  50.909  1.00  0.00     0.048 A 
HETATM   22  C12 UNL     1      25.422   5.866  50.333  1.00  0.00     0.050 A 
HETATM   23  C13 UNL     1      25.876   6.165  49.070  1.00  0.00     0.013 A 
HETATM   24 BR1  UNL     1      27.579   5.447  48.512  1.00  0.00    -0.051 Br
HETATM   25  C14 UNL     1      25.204   6.955  48.151  1.00  0.00     0.021 A 
HETATM   26  C15 UNL     1      23.977   7.575  48.333  1.00  0.00     0.019 A 
HETATM   27  P1  UNL     1      23.255   7.304  49.887  1.00  0.00    -0.004 P 
ENDBRANCH  19  21
ENDBRANCH   9  19
TORSDOF 5
ENDMDL
MODEL 2
REMARK VINA RESULT:      -7.7      2.916      5.425
REMARK  5 active torsions:
REMARK  status: ('A' for Active; 'I' for Inactive)
REMARK    1  A    between atoms: C2_2  and  O1_3 
REMARK    2  A    between atoms: O1_3  and  C3_4 
REMARK       I    between atoms: C3_4  and  N1_6 
REMARK    3  A    between atoms: N1_6  and  C4_7 
REMARK    4  A    between atoms: C10_15  and  N4_16 
REMARK    5  A    between atoms: N4_16  and  C11_17 
ROOT
HETATM    1  C4  UNL     1      23.425  -0.215  53.081  1.00  0.00     0.034 A 
HETATM    2  C5  UNL     1      24.457  -0.019  53.881  1.00  0.00     0.018 A 
HETATM    3  C6  UNL     1      25.244   1.102  53.406  1.00  0.00     0.092 A 
HETATM    4  C7  UNL     1      26.694   1.072  53.434  1.00  0.00     0.052 C 
HETATM    5  C8  UNL     1      27.596   0.398  54.285  1.00  0.00     0.097 C 
HETATM    6  N2  UNL     1      28.314  -0.152  54.989  1.00  0.00    -0.192 NA
HETATM    7  C9  UNL     1      27.250   1.822  52.465  1.00  0.00     0.138 C 
HETATM    8  N3  UNL     1      26.604   2.578  51.452  1.00  0.00    -0.241 NA
HETATM    9  C10 UNL     1      25.313   2.590  51.344  1.00  0.00     0.135 C 
HETATM   10  C16 UNL     1      24.672   1.502  52.130  1.00  0.00     0.003 A 
HETATM   11  C17 UNL     1      23.569   0.752  51.968  1.00  0.00     0.041 A 
ENDROOT
BRANCH   1  12
HETATM   12  N1  UNL     1      22.297  -1.117  52.982  1.00  0.00    -0.303 N 
HETATM   13  C3  UNL     1      21.217  -0.762  53.867  1.00  0.00     0.365 C 
HETATM   14  O2  UNL     1      21.368   0.253  54.609  1.00  0.00    -0.238 OA
HETATM   15  H6  UNL     1      22.121  -1.961  52.399  1.00  0.00     0.171 HD
BRANCH  13  16
HETATM   16  O1  UNL     1      19.991  -1.422  54.006  1.00  0.00    -0.304 OA
BRANCH  16  17
HETATM   17  C2  UNL     1      18.891  -0.901  53.242  1.00  0.00     0.176 C 
HETATM   18  C1  UNL     1      17.752  -1.877  53.391  1.00  0.00     0.034 C 
ENDBRANCH  16  17
ENDBRANCH  13  16
ENDBRANCH   1  12
BRANCH   9  19
HETATM   19  N4  UNL     1      24.453   3.268  50.451  1.00  0.00    -0.339 N 
HETATM   20  H10 UNL     1      23.669   2.805  49.940  1.00  0.00     0.167 HD
BRANCH  19  21
HETATM   21  C11 UNL     1      24.778   4.670  50.323  1.00  0.00     0.048 A 
HETATM   22  C12 UNL     1      25.801   5.154  49.544  1.00  0.00     0.050 A 
HETATM   23  C13 UNL     1      26.153   6.471  49.366  1.00  0.00     0.013 A 
HETATM   24 BR1  UNL     1      27.648   6.875  48.214  1.00  0.00    -0.051 Br
HETATM   25  C14 UNL     1      25.517   7.550  49.959  1.00  0.00     0.021 A 
HETATM   26  C15 UNL     1      24.431   7.500  50.821  1.00  0.00     0.019 A 
HETATM   27  P1  UNL     1      23.853   5.899  51.160  1.00  0.00    -0.004 P 
ENDBRANCH  19  21
ENDBRANCH   9  19
TORSDOF 5
ENDMDL
MODEL 3
REMARK VINA RESULT:      -7.5      3.059      5.537
REMARK  5 active torsions:
REMARK  status: ('A' for Active; 'I' for Inactive)
REMARK    1  A    between atoms: C2_2  and  O1_3 
REMARK    2  A    between atoms: O1_3  and  C3_4 
REMARK       I    between atoms: C3_4  and  N1_6 
REMARK    3  A    between atoms: N1_6  and  C4_7 
REMARK    4  A    between atoms: C10_15  and  N4_16 
REMARK    5  A    between atoms: N4_16  and  C11_17 
ROOT
HETATM    1  C4  UNL     1      22.706   1.272  51.989  1.00  0.00     0.034 A 
HETATM    2  C5  UNL     1      23.517   1.344  53.029  1.00  0.00     0.018 A 
HETATM    3  C6  UNL     1      24.697   2.110  52.681  1.00  0.00     0.092 A 
HETATM    4  C7  UNL     1      26.016   1.711  53.136  1.00  0.00     0.052 C 
HETATM    5  C8  UNL     1      26.431   1.003  54.285  1.00  0.00     0.097 C 
HETATM    6  N2  UNL     1      26.751   0.431  55.225  1.00  0.00    -0.192 NA
HETATM    7  C9  UNL     1      26.995   2.089  52.295  1.00  0.00     0.138 C 
HETATM    8  N3  UNL     1      26.880   2.778  51.059  1.00  0.00    -0.241 NA
HETATM    9  C10 UNL     1      25.723   3.104  50.576  1.00  0.00     0.135 C 
HETATM   10  C16 UNL     1      24.609   2.391  51.257  1.00  0.00     0.003 A 
HETATM   11  C17 UNL     1      23.407   1.936  50.865  1.00  0.00     0.041 A 
ENDROOT
BRANCH   1  12
HETATM   12  N1  UNL     1      21.420   0.692  51.666  1.00  0.00    -0.303 N 
HETATM   13  C3  UNL     1      20.313   1.506  52.101  1.00  0.00     0.365 C 
HETATM   14  O2  UNL     1      20.575   2.590  52.699  1.00  0.00    -0.238 OA
HETATM   15  H6  UNL     1      21.147  -0.190  51.184  1.00  0.00     0.171 HD
BRANCH  13  16
HETATM   16  O1  UNL     1      18.951   1.232  51.935  1.00  0.00    -0.304 OA
BRANCH  16  17
HETATM   17  C2  UNL     1      18.614  -0.069  51.428  1.00  0.00     0.176 C 
HETATM   18  C1  UNL     1      17.393  -0.531  52.181  1.00  0.00     0.034 C 
ENDBRANCH  16  17
ENDBRANCH  13  16
ENDBRANCH   1  12
BRANCH   9  19
HETATM   19  N4  UNL     1      25.358   3.796  49.401  1.00  0.00    -0.339 N 
HETATM   20  H10 UNL     1      24.759   3.386  48.650  1.00  0.00     0.167 HD
BRANCH  19  21
HETATM   21  C11 UNL     1      25.906   5.132  49.350  1.00  0.00     0.048 A 
HETATM   22  C12 UNL     1      27.039   5.473  48.652  1.00  0.00     0.050 A 
HETATM   23  C13 UNL     1      27.604   6.722  48.550  1.00  0.00     0.013 A 
HETATM   24 BR1  UNL     1      29.213   6.921  47.503  1.00  0.00    -0.051 Br
HETATM   25  C14 UNL     1      27.107   7.869  49.150  1.00  0.00     0.021 A 
HETATM   26  C15 UNL     1      25.975   7.964  49.945  1.00  0.00     0.019 A 
HETATM   27  P1  UNL     1      25.133   6.465  50.183  1.00  0.00    -0.004 P 
ENDBRANCH  19  21
ENDBRANCH   9  19
TORSDOF 5
ENDMDL
MODEL 4
REMARK VINA RESULT:      -7.4      3.954      6.525
REMARK  5 active torsions:
REMARK  status: ('A' for Active; 'I' for Inactive)
REMARK    1  A    between atoms: C2_2  and  O1_3 
REMARK    2  A    between atoms: O1_3  and  C3_4 
REMARK       I    between atoms: C3_4  and  N1_6 
REMARK    3  A    between atoms: N1_6  and  C4_7 
REMARK    4  A    between atoms: C10_15  and  N4_16 
REMARK    5  A    between atoms: N4_16  and  C11_17 
ROOT
HETATM    1  C4  UNL     1      26.318   2.358  51.324  1.00  0.00     0.034 A 
HETATM    2  C5  UNL     1      26.621   1.072  51.353  1.00  0.00     0.018 A 
HETATM    3  C6  UNL     1      25.559   0.329  52.000  1.00  0.00     0.092 A 
HETATM    4  C7  UNL     1      25.849  -0.760  52.914  1.00  0.00     0.052 C 
HETATM    5  C8  UNL     1      26.940  -1.653  52.983  1.00  0.00     0.097 C 
HETATM    6  N2  UNL     1      27.831  -2.372  53.021  1.00  0.00    -0.192 NA
HETATM    7  C9  UNL     1      24.899  -0.922  53.852  1.00  0.00     0.138 C 
HETATM    8  N3  UNL     1      23.716  -0.162  54.052  1.00  0.00    -0.241 NA
HETATM    9  C10 UNL     1      23.439   0.858  53.304  1.00  0.00     0.135 C 
HETATM   10  C16 UNL     1      24.614   1.310  52.511  1.00  0.00     0.003 A 
HETATM   11  C17 UNL     1      25.043   2.503  52.065  1.00  0.00     0.041 A 
ENDROOT
BRANCH   1  12
HETATM   12  N1  UNL     1      26.904   3.591  50.844  1.00  0.00    -0.303 N 
HETATM   13  C3  UNL     1      26.300   4.060  49.623  1.00  0.00     0.365 C 
HETATM   14  O2  UNL     1      25.367   3.368  49.120  1.00  0.00    -0.238 OA
HETATM   15  H6  UNL     1      27.669   4.196  51.211  1.00  0.00     0.171 HD
BRANCH  13  16
HETATM   16  O1  UNL     1      26.631   5.218  48.911  1.00  0.00    -0.304 OA
BRANCH  16  17
HETATM   17  C2  UNL     1      27.986   5.321  48.445  1.00  0.00     0.176 C 
HETATM   18  C1  UNL     1      28.201   6.753  48.027  1.00  0.00     0.034 C 
ENDBRANCH  16  17
ENDBRANCH  13  16
ENDBRANCH   1  12
BRANCH   9  19
HETATM   19  N4  UNL     1      22.336   1.741  53.292  1.00  0.00    -0.339 N 
HETATM   20  H10 UNL     1      22.318   2.651  53.803  1.00  0.00     0.167 HD
BRANCH  19  21
HETATM   21  C11 UNL     1      21.236   1.245  52.497  1.00  0.00     0.048 A 
HETATM   22  C12 UNL     1      20.264   0.399  52.972  1.00  0.00     0.050 A 
HETATM   23  C13 UNL     1      19.187  -0.096  52.276  1.00  0.00     0.013 A 
HETATM   24 BR1  UNL     1      17.968  -1.282  53.190  1.00  0.00    -0.051 Br
HETATM   25  C14 UNL     1      18.901   0.185  50.949  1.00  0.00     0.021 A 
HETATM   26  C15 UNL     1      19.632   1.002  50.100  1.00  0.00     0.019 A 
HETATM   27  P1  UNL     1      21.041   1.714  50.821  1.00  0.00    -0.004 P 
ENDBRANCH  19  21
ENDBRANCH   9  19
TORSDOF 5
ENDMDL
MODEL 5
REMARK VINA RESULT:      -7.4      2.180      2.362
REMARK  5 active torsions:
REMARK  status: ('A' for Active; 'I' for Inactive)
REMARK    1  A    between atoms: C2_2  and  O1_3 
REMARK    2  A    between atoms: O1_3  and  C3_4 
REMARK       I    between atoms: C3_4  and  N1_6 
REMARK    3  A    between atoms: N1_6  and  C4_7 
REMARK    4  A    between atoms: C10_15  and  N4_16 
REMARK    5  A    between atoms: N4_16  and  C11_17 
ROOT
HETATM    1  C4  UNL     1      24.175   0.014  53.515  1.00  0.00     0.034 A 
HETATM    2  C5  UNL     1      22.987  -0.405  53.118  1.00  0.00     0.018 A 
HETATM    3  C6  UNL     1      22.264   0.683  52.490  1.00  0.00     0.092 A 
HETATM    4  C7  UNL     1      20.844   0.877  52.720  1.00  0.00     0.052 C 
HETATM    5  C8  UNL     1      19.817  -0.039  53.034  1.00  0.00     0.097 C 
HETATM    6  N2  UNL     1      18.995  -0.797  53.283  1.00  0.00    -0.192 NA
HETATM    7  C9  UNL     1      20.470   2.165  52.615  1.00  0.00     0.138 C 
HETATM    8  N3  UNL     1      21.278   3.300  52.345  1.00  0.00    -0.241 NA
HETATM    9  C10 UNL     1      22.560   3.192  52.193  1.00  0.00     0.135 C 
HETATM   10  C16 UNL     1      23.073   1.879  52.666  1.00  0.00     0.003 A 
HETATM   11  C17 UNL     1      24.222   1.467  53.228  1.00  0.00     0.041 A 
ENDROOT
BRANCH   1  12
HETATM   12  N1  UNL     1      25.342  -0.530  54.175  1.00  0.00    -0.303 N 
HETATM   13  C3  UNL     1      26.430  -0.788  53.265  1.00  0.00     0.365 C 
HETATM   14  O2  UNL     1      26.252  -0.528  52.039  1.00  0.00    -0.238 OA
HETATM   15  H6  UNL     1      25.543  -0.766  55.169  1.00  0.00     0.171 HD
BRANCH  13  16
HETATM   16  O1  UNL     1      27.691  -1.303  53.586  1.00  0.00    -0.304 OA
BRANCH  16  17
HETATM   17  C2  UNL     1      28.709  -0.347  53.925  1.00  0.00     0.176 C 
HETATM   18  C1  UNL     1      30.037  -0.998  53.636  1.00  0.00     0.034 C 
ENDBRANCH  16  17
ENDBRANCH  13  16
ENDBRANCH   1  12
BRANCH   9  19
HETATM   19  N4  UNL     1      23.554   4.152  51.902  1.00  0.00    -0.339 N 
HETATM   20  H10 UNL     1      24.300   4.435  52.577  1.00  0.00     0.167 HD
BRANCH  19  21
HETATM   21  C11 UNL     1      23.426   4.699  50.571  1.00  0.00     0.048 A 
HETATM   22  C12 UNL     1      22.900   4.013  49.504  1.00  0.00     0.050 A 
HETATM   23  C13 UNL     1      22.736   4.477  48.221  1.00  0.00     0.013 A 
HETATM   24 BR1  UNL     1      21.971   3.291  46.904  1.00  0.00    -0.051 Br
HETATM   25  C14 UNL     1      23.084   5.746  47.786  1.00  0.00     0.021 A 
HETATM   26  C15 UNL     1      23.649   6.758  48.549  1.00  0.00     0.019 A 
HETATM   27  P1  UNL     1      23.929   6.338  50.209  1.00  0.00    -0.004 P 
ENDBRANCH  19  21
ENDBRANCH   9  19
TORSDOF 5
ENDMDL
MODEL 6
REMARK VINA RESULT:      -7.4      3.449      5.688
REMARK  5 active torsions:
REMARK  status: ('A' for Active; 'I' for Inactive)
REMARK    1  A    between atoms: C2_2  and  O1_3 
REMARK    2  A    between atoms: O1_3  and  C3_4 
REMARK       I    between atoms: C3_4  and  N1_6 
REMARK    3  A    between atoms: N1_6  and  C4_7 
REMARK    4  A    between atoms: C10_15  and  N4_16 
REMARK    5  A    between atoms: N4_16  and  C11_17 
ROOT
HETATM    1  C4  UNL     1      22.783  -0.346  53.069  1.00  0.00     0.034 A 
HETATM    2  C5  UNL     1      23.956  -0.829  53.436  1.00  0.00     0.018 A 
HETATM    3  C6  UNL     1      24.964   0.209  53.357  1.00  0.00     0.092 A 
HETATM    4  C7  UNL     1      26.297  -0.069  52.855  1.00  0.00     0.052 C 
HETATM    5  C8  UNL     1      27.068  -1.252  52.864  1.00  0.00     0.097 C 
HETATM    6  N2  UNL     1      27.682  -2.219  52.884  1.00  0.00    -0.192 NA
HETATM    7  C9  UNL     1      26.872   1.002  52.280  1.00  0.00     0.138 C 
HETATM    8  N3  UNL     1      26.333   2.302  52.095  1.00  0.00    -0.241 NA
HETATM    9  C10 UNL     1      25.126   2.588  52.470  1.00  0.00     0.135 C 
HETATM   10  C16 UNL     1      24.324   1.370  52.758  1.00  0.00     0.003 A 
HETATM   11  C17 UNL     1      23.023   1.051  52.637  1.00  0.00     0.041 A 
ENDROOT
BRANCH   1  12
HETATM   12  N1  UNL     1      21.422  -0.817  52.929  1.00  0.00    -0.303 N 
HETATM   13  C3  UNL     1      20.576  -0.423  54.027  1.00  0.00     0.365 C 
HETATM   14  O2  UNL     1      21.096   0.258  54.960  1.00  0.00    -0.238 OA
HETATM   15  H6  UNL     1      20.944  -1.377  52.193  1.00  0.00     0.171 HD
BRANCH  13  16
HETATM   16  O1  UNL     1      19.216  -0.710  54.187  1.00  0.00    -0.304 OA
BRANCH  16  17
HETATM   17  C2  UNL     1      18.514  -1.168  53.021  1.00  0.00     0.176 C 
HETATM   18  C1  UNL     1      17.738  -2.394  53.428  1.00  0.00     0.034 C 
ENDBRANCH  16  17
ENDBRANCH  13  16
ENDBRANCH   1  12
BRANCH   9  19
HETATM   19  N4  UNL     1      24.387   3.790  52.416  1.00  0.00    -0.339 N 
HETATM   20  H10 UNL     1      24.072   4.314  53.263  1.00  0.00     0.167 HD
BRANCH  19  21
HETATM   21  C11 UNL     1      24.115   4.215  51.062  1.00  0.00     0.048 A 
HETATM   22  C12 UNL     1      23.514   3.423  50.114  1.00  0.00     0.050 A 
HETATM   23  C13 UNL     1      23.213   3.769  48.818  1.00  0.00     0.013 A 
HETATM   24 BR1  UNL     1      22.369   2.452  47.687  1.00  0.00    -0.051 Br
HETATM   25  C14 UNL     1      23.475   5.003  48.244  1.00  0.00     0.021 A 
HETATM   26  C15 UNL     1      24.074   6.092  48.859  1.00  0.00     0.019 A 
HETATM   27  P1  UNL     1      24.525   5.828  50.514  1.00  0.00    -0.004 P 
ENDBRANCH  19  21
ENDBRANCH   9  19
TORSDOF 5
ENDMDL
MODEL 7
REMARK VINA RESULT:      -7.3      4.954      7.468
REMARK  5 active torsions:
REMARK  status: ('A' for Active; 'I' for Inactive)
REMARK    1  A    between atoms: C2_2  and  O1_3 
REMARK    2  A    between atoms: O1_3  and  C3_4 
REMARK       I    between atoms: C3_4  and  N1_6 
REMARK    3  A    between atoms: N1_6  and  C4_7 
REMARK    4  A    between atoms: C10_15  and  N4_16 
REMARK    5  A    between atoms: N4_16  and  C11_17 
ROOT
HETATM    1  C4  UNL     1      23.966  -0.138  53.509  1.00  0.00     0.034 A 
HETATM    2  C5  UNL     1      23.846   0.861  52.653  1.00  0.00     0.018 A 
HETATM    3  C6  UNL     1      22.447   1.077  52.341  1.00  0.00     0.092 A 
HETATM    4  C7  UNL     1      22.013   1.383  50.991  1.00  0.00     0.052 C 
HETATM    5  C8  UNL     1      22.673   2.030  49.924  1.00  0.00     0.097 C 
HETATM    6  N2  UNL     1      23.222   2.562  49.071  1.00  0.00    -0.192 NA
HETATM    7  C9  UNL     1      20.762   0.959  50.736  1.00  0.00     0.138 C 
HETATM    8  N3  UNL     1      19.876   0.256  51.593  1.00  0.00    -0.241 NA
HETATM    9  C10 UNL     1      20.234  -0.096  52.787  1.00  0.00     0.135 C 
HETATM   10  C16 UNL     1      21.704   0.005  52.986  1.00  0.00     0.003 A 
HETATM   11  C17 UNL     1      22.603  -0.680  53.714  1.00  0.00     0.041 A 
ENDROOT
BRANCH   1  12
HETATM   12  N1  UNL     1      25.026  -0.836  54.204  1.00  0.00    -0.303 N 
HETATM   13  C3  UNL     1      26.135   0.020  54.540  1.00  0.00     0.365 C 
HETATM   14  O2  UNL     1      26.068   1.238  54.199  1.00  0.00    -0.238 OA
HETATM   15  H6  UNL     1      25.137  -1.827  54.504  1.00  0.00     0.171 HD
BRANCH  13  16
HETATM   16  O1  UNL     1      27.305  -0.344  55.216  1.00  0.00    -0.304 OA
BRANCH  16  17
HETATM   17  C2  UNL     1      28.547   0.042  54.605  1.00  0.00     0.176 C 
HETATM   18  C1  UNL     1      28.774  -0.891  53.444  1.00  0.00     0.034 C 
ENDBRANCH  16  17
ENDBRANCH  13  16
ENDBRANCH   1  12
BRANCH   9  19
HETATM   19  N4  UNL     1      19.538  -0.770  53.815  1.00  0.00    -0.339 N 
HETATM   20  H10 UNL     1      19.880  -0.833  54.800  1.00  0.00     0.167 HD
BRANCH  19  21
HETATM   21  C11 UNL     1      18.302  -1.361  53.355  1.00  0.00     0.048 A 
HETATM   22  C12 UNL     1      17.906  -2.643  53.651  1.00  0.00     0.050 A 
HETATM   23  C13 UNL     1      16.742  -3.260  53.259  1.00  0.00     0.013 A 
HETATM   24 BR1  UNL     1      16.437  -5.083  53.812  1.00  0.00    -0.051 Br
HETATM   25  C14 UNL     1      15.754  -2.673  52.483  1.00  0.00     0.021 A 
HETATM   26  C15 UNL     1      15.760  -1.383  51.972  1.00  0.00     0.019 A 
HETATM   27  P1  UNL     1      17.171  -0.455  52.371  1.00  0.00    -0.004 P 
ENDBRANCH  19  21
ENDBRANCH   9  19
TORSDOF 5
ENDMDL
MODEL 8
REMARK VINA RESULT:      -7.2      2.728      3.227
REMARK  5 active torsions:
REMARK  status: ('A' for Active; 'I' for Inactive)
REMARK    1  A    between atoms: C2_2  and  O1_3 
REMARK    2  A    between atoms: O1_3  and  C3_4 
REMARK       I    between atoms: C3_4  and  N1_6 
REMARK    3  A    between atoms: N1_6  and  C4_7 
REMARK    4  A    between atoms: C10_15  and  N4_16 
REMARK    5  A    between atoms: N4_16  and  C11_17 
ROOT
HETATM    1  C4  UNL     1      24.860   1.700  52.461  1.00  0.00     0.034 A 
HETATM    2  C5  UNL     1      24.176   0.594  52.695  1.00  0.00     0.018 A 
HETATM    3  C6  UNL     1      22.755   0.862  52.591  1.00  0.00     0.092 A 
HETATM    4  C7  UNL     1      21.807   0.275  53.520  1.00  0.00     0.052 C 
HETATM    5  C8  UNL     1      21.845  -0.932  54.251  1.00  0.00     0.097 C 
HETATM    6  N2  UNL     1      21.889  -1.918  54.833  1.00  0.00    -0.192 NA
HETATM    7  C9  UNL     1      20.715   1.038  53.703  1.00  0.00     0.138 C 
HETATM    8  N3  UNL     1      20.417   2.305  53.135  1.00  0.00    -0.241 NA
HETATM    9  C10 UNL     1      21.254   2.902  52.348  1.00  0.00     0.135 C 
HETATM   10  C16 UNL     1      22.612   2.298  52.410  1.00  0.00     0.003 A 
HETATM   11  C17 UNL     1      23.861   2.780  52.284  1.00  0.00     0.041 A 
ENDROOT
BRANCH   1  12
HETATM   12  N1  UNL     1      26.245   2.115  52.401  1.00  0.00    -0.303 N 
HETATM   13  C3  UNL     1      26.903   2.054  53.681  1.00  0.00     0.365 C 
HETATM   14  O2  UNL     1      26.226   1.667  54.678  1.00  0.00    -0.238 OA
HETATM   15  H6  UNL     1      26.847   2.444  51.618  1.00  0.00     0.171 HD
BRANCH  13  16
HETATM   16  O1  UNL     1      28.236   2.380  53.959  1.00  0.00    -0.304 OA
BRANCH  16  17
HETATM   17  C2  UNL     1      29.036   1.351  54.563  1.00  0.00     0.176 C 
HETATM   18  C1  UNL     1      29.241   0.284  53.519  1.00  0.00     0.034 C 
ENDBRANCH  16  17
ENDBRANCH  13  16
ENDBRANCH   1  12
BRANCH   9  19
HETATM   19  N4  UNL     1      21.179   4.131  51.656  1.00  0.00    -0.339 N 
HETATM   20  H10 UNL     1      21.160   5.061  52.130  1.00  0.00     0.167 HD
BRANCH  19  21
HETATM   21  C11 UNL     1      21.127   3.959  50.222  1.00  0.00     0.048 A 
HETATM   22  C12 UNL     1      21.712   4.818  49.323  1.00  0.00     0.050 A 
HETATM   23  C13 UNL     1      21.714   4.705  47.954  1.00  0.00     0.013 A 
HETATM   24 BR1  UNL     1      22.611   6.067  46.921  1.00  0.00    -0.051 Br
HETATM   25  C14 UNL     1      21.110   3.682  47.240  1.00  0.00     0.021 A 
HETATM   26  C15 UNL     1      20.411   2.606  47.766  1.00  0.00     0.019 A 
HETATM   27  P1  UNL     1      20.307   2.591  49.498  1.00  0.00    -0.004 P 
ENDBRANCH  19  21
ENDBRANCH   9  19
TORSDOF 5
ENDMDL
MODEL 9
REMARK VINA RESULT:      -7.2      2.348      2.569
REMARK  5 active torsions:
REMARK  status: ('A' for Active; 'I' for Inactive)
REMARK    1  A    between atoms: C2_2  and  O1_3 
REMARK    2  A    between atoms: O1_3  and  C3_4 
REMARK       I    between atoms: C3_4  and  N1_6 
REMARK    3  A    between atoms: N1_6  and  C4_7 
REMARK    4  A    between atoms: C10_15  and  N4_16 
REMARK    5  A    between atoms: N4_16  and  C11_17 
ROOT
HETATM    1  C4  UNL     1      25.517   0.580  52.530  1.00  0.00     0.034 A 
HETATM    2  C5  UNL     1      24.386   0.041  52.948  1.00  0.00     0.018 A 
HETATM    3  C6  UNL     1      23.265   0.645  52.255  1.00  0.00     0.092 A 
HETATM    4  C7  UNL     1      22.032   0.964  52.949  1.00  0.00     0.052 C 
HETATM    5  C8  UNL     1      21.420   0.378  54.079  1.00  0.00     0.097 C 
HETATM    6  N2  UNL     1      20.935  -0.113  54.993  1.00  0.00    -0.192 NA
HETATM    7  C9  UNL     1      21.381   2.006  52.404  1.00  0.00     0.138 C 
HETATM    8  N3  UNL     1      21.765   2.807  51.296  1.00  0.00    -0.241 NA
HETATM    9  C10 UNL     1      22.885   2.605  50.678  1.00  0.00     0.135 C 
HETATM   10  C16 UNL     1      23.806   1.733  51.454  1.00  0.00     0.003 A 
HETATM   11  C17 UNL     1      25.142   1.657  51.584  1.00  0.00     0.041 A 
ENDROOT
BRANCH   1  12
HETATM   12  N1  UNL     1      26.934   0.444  52.789  1.00  0.00    -0.303 N 
HETATM   13  C3  UNL     1      27.297   0.821  54.132  1.00  0.00     0.365 C 
HETATM   14  O2  UNL     1      26.376   1.220  54.904  1.00  0.00    -0.238 OA
HETATM   15  H6  UNL     1      27.731   0.127  52.198  1.00  0.00     0.171 HD
BRANCH  13  16
HETATM   16  O1  UNL     1      28.577   0.796  54.697  1.00  0.00    -0.304 OA
BRANCH  16  17
HETATM   17  C2  UNL     1      29.674   0.585  53.794  1.00  0.00     0.176 C 
HETATM   18  C1  UNL     1      29.972  -0.892  53.801  1.00  0.00     0.034 C 
ENDBRANCH  16  17
ENDBRANCH  13  16
ENDBRANCH   1  12
BRANCH   9  19
HETATM   19  N4  UNL     1      23.467   3.240  49.559  1.00  0.00    -0.339 N 
HETATM   20  H10 UNL     1      23.721   2.740  48.677  1.00  0.00     0.167 HD
BRANCH  19  21
HETATM   21  C11 UNL     1      23.672   4.655  49.767  1.00  0.00     0.048 A 
HETATM   22  C12 UNL     1      22.659   5.582  49.804  1.00  0.00     0.050 A 
HETATM   23  C13 UNL     1      22.784   6.935  50.012  1.00  0.00     0.013 A 
HETATM   24 BR1  UNL     1      21.185   8.017  50.007  1.00  0.00    -0.051 Br
HETATM   25  C14 UNL     1      23.982   7.599  50.223  1.00  0.00     0.021 A 
HETATM   26  C15 UNL     1      25.247   7.032  50.264  1.00  0.00     0.019 A 
HETATM   27  P1  UNL     1      25.276   5.315  50.015  1.00  0.00    -0.004 P 
ENDBRANCH  19  21
ENDBRANCH   9  19
TORSDOF 5
ENDMDL
