MODEL 1
REMARK VINA RESULT:      -8.4      0.000      0.000
REMARK  8 active torsions:
REMARK  status: ('A' for Active; 'I' for Inactive)
REMARK    1  A    between atoms: O1_2  and  C2_3 
REMARK    2  A    between atoms: C6_9  and  N3_10 
REMARK    3  A    between atoms: N3_10  and  C7_11 
REMARK    4  A    between atoms: N4_21  and  O2_22 
REMARK    5  A    between atoms: O2_22  and  C15_23 
REMARK    6  A    between atoms: C15_23  and  C16_24 
REMARK    7  A    between atoms: C16_24  and  C17_25 
REMARK    8  A    between atoms: C17_25  and  N5_26 
ROOT
HETATM    1  C2  UNL     1      20.362   2.837  52.370  1.00  0.00     0.166 A 
HETATM    2  C3  UNL     1      20.371   1.694  53.036  1.00  0.00     0.090 A 
HETATM    3  C4  UNL     1      21.603   0.936  53.198  1.00  0.00     0.074 A 
HETATM    4  N1  UNL     1      21.523  -0.215  53.889  1.00  0.00    -0.241 NA
HETATM    5  C5  UNL     1      22.606  -0.987  54.093  1.00  0.00     0.235 A 
HETATM    6  N2  UNL     1      23.770  -0.564  53.583  1.00  0.00    -0.224 NA
HETATM    7  C6  UNL     1      23.945   0.563  52.885  1.00  0.00     0.139 A 
HETATM    8  C13 UNL     1      22.820   1.333  52.691  1.00  0.00     0.037 A 
HETATM    9  C14 UNL     1      22.909   2.587  51.940  1.00  0.00     0.203 A 
HETATM   10  N4  UNL     1      21.620   3.239  51.851  1.00  0.00    -0.232 N 
ENDROOT
BRANCH   7  11
HETATM   11  N3  UNL     1      25.173   1.016  52.343  1.00  0.00    -0.340 N 
HETATM   12  H6  UNL     1      25.140   1.722  51.551  1.00  0.00     0.167 HD
BRANCH  11  13
HETATM   13  C7  UNL     1      26.495   0.661  52.703  1.00  0.00     0.035 A 
HETATM   14  C8  UNL     1      27.453   1.612  53.071  1.00  0.00     0.032 A 
HETATM   15  C9  UNL     1      28.736   1.283  53.422  1.00  0.00     0.046 A 
HETATM   16  C10 UNL     1      29.153  -0.030  53.432  1.00  0.00     0.138 A 
HETATM   17  F1  UNL     1      30.428  -0.290  53.787  1.00  0.00    -0.204 F 
HETATM   18  C11 UNL     1      28.254  -1.014  53.080  1.00  0.00     0.074 A 
HETATM   19 CL1  UNL     1      28.785  -2.678  53.092  1.00  0.00    -0.081 Cl
HETATM   20  C12 UNL     1      26.978  -0.627  52.734  1.00  0.00     0.056 A 
ENDBRANCH  11  13
ENDBRANCH   7  11
BRANCH  10  21
HETATM   21  O2  UNL     1      21.649   4.422  51.155  1.00  0.00    -0.276 OA
BRANCH  21  22
HETATM   22  C15 UNL     1      22.478   5.293  51.816  1.00  0.00     0.203 C 
BRANCH  22  23
HETATM   23  C16 UNL     1      23.084   6.342  50.908  1.00  0.00     0.059 C 
BRANCH  23  24
HETATM   24  C17 UNL     1      23.693   5.639  49.718  1.00  0.00     0.275 C 
BRANCH  24  25
HETATM   25  N5  UNL     1      24.998   5.080  49.989  1.00  0.00     0.092 N 
HETATM   26  C18 UNL     1      25.973   5.959  49.410  1.00  0.00     0.298 C 
HETATM   27  C19 UNL     1      27.099   5.232  48.707  1.00  0.00     0.198 C 
HETATM   28  O3  UNL     1      27.467   4.177  49.524  1.00  0.00    -0.388 OA
HETATM   29  C20 UNL     1      26.493   3.210  49.522  1.00  0.00     0.198 C 
HETATM   30  C21 UNL     1      25.086   3.713  49.582  1.00  0.00     0.298 C 
ENDBRANCH  24  25
ENDBRANCH  23  24
ENDBRANCH  22  23
ENDBRANCH  21  22
ENDBRANCH  10  21
BRANCH   1  31
HETATM   31  O1  UNL     1      19.239   3.626  52.165  1.00  0.00    -0.339 OA
HETATM   32  C1  UNL     1      18.160   3.116  51.366  1.00  0.00     0.211 C 
ENDBRANCH   1  31
TORSDOF 8
ENDMDL
MODEL 2
REMARK VINA RESULT:      -8.2      2.019      5.309
REMARK  8 active torsions:
REMARK  status: ('A' for Active; 'I' for Inactive)
REMARK    1  A    between atoms: O1_2  and  C2_3 
REMARK    2  A    between atoms: C6_9  and  N3_10 
REMARK    3  A    between atoms: N3_10  and  C7_11 
REMARK    4  A    between atoms: N4_21  and  O2_22 
REMARK    5  A    between atoms: O2_22  and  C15_23 
REMARK    6  A    between atoms: C15_23  and  C16_24 
REMARK    7  A    between atoms: C16_24  and  C17_25 
REMARK    8  A    between atoms: C17_25  and  N5_26 
ROOT
HETATM    1  C2  UNL     1      22.908   6.290  50.793  1.00  0.00     0.166 A 
HETATM    2  C3  UNL     1      23.984   6.439  50.038  1.00  0.00     0.090 A 
HETATM    3  C4  UNL     1      24.977   5.380  49.939  1.00  0.00     0.074 A 
HETATM    4  N1  UNL     1      26.041   5.615  49.151  1.00  0.00    -0.241 NA
HETATM    5  C5  UNL     1      27.013   4.697  48.994  1.00  0.00     0.235 A 
HETATM    6  N2  UNL     1      26.881   3.539  49.654  1.00  0.00    -0.224 NA
HETATM    7  C6  UNL     1      25.861   3.218  50.457  1.00  0.00     0.139 A 
HETATM    8  C13 UNL     1      24.881   4.175  50.599  1.00  0.00     0.037 A 
HETATM    9  C14 UNL     1      23.723   3.918  51.457  1.00  0.00     0.203 A 
HETATM   10  N4  UNL     1      22.816   5.046  51.469  1.00  0.00    -0.232 N 
ENDROOT
BRANCH   7  11
HETATM   11  N3  UNL     1      25.715   1.995  51.157  1.00  0.00    -0.340 N 
HETATM   12  H6  UNL     1      24.789   1.482  51.079  1.00  0.00     0.167 HD
BRANCH  11  13
HETATM   13  C7  UNL     1      26.646   1.320  51.982  1.00  0.00     0.035 A 
HETATM   14  C8  UNL     1      26.709  -0.076  52.054  1.00  0.00     0.032 A 
HETATM   15  C9  UNL     1      27.606  -0.743  52.849  1.00  0.00     0.046 A 
HETATM   16  C10 UNL     1      28.508  -0.056  53.629  1.00  0.00     0.138 A 
HETATM   17  F1  UNL     1      29.364  -0.769  54.389  1.00  0.00    -0.204 F 
HETATM   18  C11 UNL     1      28.496   1.323  53.601  1.00  0.00     0.074 A 
HETATM   19 CL1  UNL     1      29.641   2.192  54.593  1.00  0.00    -0.081 Cl
HETATM   20  C12 UNL     1      27.574   1.942  52.786  1.00  0.00     0.056 A 
ENDBRANCH  11  13
ENDBRANCH   7  11
BRANCH  10  21
HETATM   21  O2  UNL     1      21.711   4.855  52.260  1.00  0.00    -0.276 OA
BRANCH  21  22
HETATM   22  C15 UNL     1      20.925   3.891  51.681  1.00  0.00     0.203 C 
BRANCH  22  23
HETATM   23  C16 UNL     1      20.593   2.751  52.622  1.00  0.00     0.059 C 
BRANCH  23  24
HETATM   24  C17 UNL     1      20.488   1.484  51.808  1.00  0.00     0.275 C 
BRANCH  24  25
HETATM   25  N5  UNL     1      21.223   0.377  52.374  1.00  0.00     0.092 N 
HETATM   26  C18 UNL     1      20.483  -0.100  53.507  1.00  0.00     0.298 C 
HETATM   27  C19 UNL     1      21.354  -0.434  54.699  1.00  0.00     0.198 C 
HETATM   28  O3  UNL     1      22.455  -1.116  54.212  1.00  0.00    -0.388 OA
HETATM   29  C20 UNL     1      23.278  -0.263  53.521  1.00  0.00     0.198 C 
HETATM   30  C21 UNL     1      22.586   0.719  52.631  1.00  0.00     0.298 C 
ENDBRANCH  24  25
ENDBRANCH  23  24
ENDBRANCH  22  23
ENDBRANCH  21  22
ENDBRANCH  10  21
BRANCH   1  31
HETATM   31  O1  UNL     1      21.911   7.243  50.948  1.00  0.00    -0.339 OA
HETATM   32  C1  UNL     1      20.900   7.372  49.936  1.00  0.00     0.211 C 
ENDBRANCH   1  31
TORSDOF 8
ENDMDL
MODEL 3
REMARK VINA RESULT:      -8.2      2.189      2.848
REMARK  8 active torsions:
REMARK  status: ('A' for Active; 'I' for Inactive)
REMARK    1  A    between atoms: O1_2  and  C2_3 
REMARK    2  A    between atoms: C6_9  and  N3_10 
REMARK    3  A    between atoms: N3_10  and  C7_11 
REMARK    4  A    between atoms: N4_21  and  O2_22 
REMARK    5  A    between atoms: O2_22  and  C15_23 
REMARK    6  A    between atoms: C15_23  and  C16_24 
REMARK    7  A    between atoms: C16_24  and  C17_25 
REMARK    8  A    between atoms: C17_25  and  N5_26 
ROOT
HETATM    1  C2  UNL     1      19.824   0.313  52.344  1.00  0.00     0.166 A 
HETATM    2  C3  UNL     1      20.090  -0.399  53.427  1.00  0.00     0.090 A 
HETATM    3  C4  UNL     1      21.464  -0.634  53.845  1.00  0.00     0.074 A 
HETATM    4  N1  UNL     1      21.645  -1.370  54.957  1.00  0.00    -0.241 NA
HETATM    5  C5  UNL     1      22.876  -1.642  55.425  1.00  0.00     0.235 A 
HETATM    6  N2  UNL     1      23.919  -1.152  54.741  1.00  0.00    -0.224 NA
HETATM    7  C6  UNL     1      23.836  -0.414  53.630  1.00  0.00     0.139 A 
HETATM    8  C13 UNL     1      22.564  -0.150  53.173  1.00  0.00     0.037 A 
HETATM    9  C14 UNL     1      22.369   0.651  51.963  1.00  0.00     0.203 A 
HETATM   10  N4  UNL     1      20.963   0.808  51.658  1.00  0.00    -0.232 N 
ENDROOT
BRANCH   7  11
HETATM   11  N3  UNL     1      24.934   0.109  52.902  1.00  0.00    -0.340 N 
HETATM   12  H6  UNL     1      24.730   0.705  52.048  1.00  0.00     0.167 HD
BRANCH  11  13
HETATM   13  C7  UNL     1      26.321  -0.047  53.141  1.00  0.00     0.035 A 
HETATM   14  C8  UNL     1      27.001  -1.237  52.856  1.00  0.00     0.032 A 
HETATM   15  C9  UNL     1      28.343  -1.402  53.082  1.00  0.00     0.046 A 
HETATM   16  C10 UNL     1      29.102  -0.383  53.611  1.00  0.00     0.138 A 
HETATM   17  F1  UNL     1      30.418  -0.607  53.809  1.00  0.00    -0.204 F 
HETATM   18  C11 UNL     1      28.489   0.815  53.912  1.00  0.00     0.074 A 
HETATM   19 CL1  UNL     1      29.456   2.106  54.583  1.00  0.00    -0.081 Cl
HETATM   20  C12 UNL     1      27.139   0.927  53.666  1.00  0.00     0.056 A 
ENDBRANCH  11  13
ENDBRANCH   7  11
BRANCH  10  21
HETATM   21  O2  UNL     1      20.726   1.554  50.530  1.00  0.00    -0.276 OA
BRANCH  21  22
HETATM   22  C15 UNL     1      21.795   1.409  49.682  1.00  0.00     0.203 C 
BRANCH  22  23
HETATM   23  C16 UNL     1      22.220   2.709  49.034  1.00  0.00     0.059 C 
BRANCH  23  24
HETATM   24  C17 UNL     1      23.701   2.889  49.264  1.00  0.00     0.275 C 
BRANCH  24  25
HETATM   25  N5  UNL     1      24.035   4.139  49.906  1.00  0.00     0.092 N 
HETATM   26  C18 UNL     1      24.060   3.905  51.322  1.00  0.00     0.298 C 
HETATM   27  C19 UNL     1      23.414   5.010  52.128  1.00  0.00     0.198 C 
HETATM   28  O3  UNL     1      23.842   6.208  51.583  1.00  0.00    -0.388 OA
HETATM   29  C20 UNL     1      23.261   6.409  50.356  1.00  0.00     0.198 C 
HETATM   30  C21 UNL     1      23.181   5.202  49.476  1.00  0.00     0.298 C 
ENDBRANCH  24  25
ENDBRANCH  23  24
ENDBRANCH  22  23
ENDBRANCH  21  22
ENDBRANCH  10  21
BRANCH   1  31
HETATM   31  O1  UNL     1      18.550   0.588  51.870  1.00  0.00    -0.339 OA
HETATM   32  C1  UNL     1      17.633  -0.495  51.653  1.00  0.00     0.211 C 
ENDBRANCH   1  31
TORSDOF 8
ENDMDL
MODEL 4
REMARK VINA RESULT:      -8.0      3.635      6.106
REMARK  8 active torsions:
REMARK  status: ('A' for Active; 'I' for Inactive)
REMARK    1  A    between atoms: O1_2  and  C2_3 
REMARK    2  A    between atoms: C6_9  and  N3_10 
REMARK    3  A    between atoms: N3_10  and  C7_11 
REMARK    4  A    between atoms: N4_21  and  O2_22 
REMARK    5  A    between atoms: O2_22  and  C15_23 
REMARK    6  A    between atoms: C15_23  and  C16_24 
REMARK    7  A    between atoms: C16_24  and  C17_25 
REMARK    8  A    between atoms: C17_25  and  N5_26 
ROOT
HETATM    1  C2  UNL     1      21.043   0.322  52.002  1.00  0.00     0.166 A 
HETATM    2  C3  UNL     1      20.647   0.733  50.809  1.00  0.00     0.090 A 
HETATM    3  C4  UNL     1      21.519   1.544  49.972  1.00  0.00     0.074 A 
HETATM    4  N1  UNL     1      21.037   1.919  48.774  1.00  0.00    -0.241 NA
HETATM    5  C5  UNL     1      21.767   2.669  47.929  1.00  0.00     0.235 A 
HETATM    6  N2  UNL     1      22.995   3.029  48.325  1.00  0.00    -0.224 NA
HETATM    7  C6  UNL     1      23.556   2.704  49.494  1.00  0.00     0.139 A 
HETATM    8  C13 UNL     1      22.787   1.936  50.340  1.00  0.00     0.037 A 
HETATM    9  C14 UNL     1      23.313   1.528  51.644  1.00  0.00     0.203 A 
HETATM   10  N4  UNL     1      22.350   0.730  52.373  1.00  0.00    -0.232 N 
ENDROOT
BRANCH   7  11
HETATM   11  N3  UNL     1      24.854   3.080  49.920  1.00  0.00    -0.340 N 
HETATM   12  H6  UNL     1      25.369   2.433  50.584  1.00  0.00     0.167 HD
BRANCH  11  13
HETATM   13  C7  UNL     1      25.604   4.234  49.589  1.00  0.00     0.035 A 
HETATM   14  C8  UNL     1      26.859   4.161  48.975  1.00  0.00     0.032 A 
HETATM   15  C9  UNL     1      27.596   5.270  48.648  1.00  0.00     0.046 A 
HETATM   16  C10 UNL     1      27.126   6.536  48.915  1.00  0.00     0.138 A 
HETATM   17  F1  UNL     1      27.898   7.587  48.569  1.00  0.00    -0.204 F 
HETATM   18  C11 UNL     1      25.895   6.674  49.519  1.00  0.00     0.074 A 
HETATM   19 CL1  UNL     1      25.301   8.282  49.856  1.00  0.00    -0.081 Cl
HETATM   20  C12 UNL     1      25.196   5.527  49.826  1.00  0.00     0.056 A 
ENDBRANCH  11  13
ENDBRANCH   7  11
BRANCH  10  21
HETATM   21  O2  UNL     1      22.796   0.321  53.605  1.00  0.00    -0.276 OA
BRANCH  21  22
HETATM   22  C15 UNL     1      23.842  -0.549  53.420  1.00  0.00     0.203 C 
BRANCH  22  23
HETATM   23  C16 UNL     1      24.812  -0.568  54.583  1.00  0.00     0.059 C 
BRANCH  23  24
HETATM   24  C17 UNL     1      26.213  -0.647  54.026  1.00  0.00     0.275 C 
BRANCH  24  25
HETATM   25  N5  UNL     1      27.057   0.450  54.441  1.00  0.00     0.092 N 
HETATM   26  C18 UNL     1      26.693   1.595  53.658  1.00  0.00     0.298 C 
HETATM   27  C19 UNL     1      27.881   2.399  53.176  1.00  0.00     0.198 C 
HETATM   28  O3  UNL     1      28.758   2.497  54.242  1.00  0.00    -0.388 OA
HETATM   29  C20 UNL     1      29.349   1.283  54.488  1.00  0.00     0.198 C 
HETATM   30  C21 UNL     1      28.441   0.097  54.406  1.00  0.00     0.298 C 
ENDBRANCH  24  25
ENDBRANCH  23  24
ENDBRANCH  22  23
ENDBRANCH  21  22
ENDBRANCH  10  21
BRANCH   1  31
HETATM   31  O1  UNL     1      20.282  -0.452  52.866  1.00  0.00    -0.339 OA
HETATM   32  C1  UNL     1      18.854  -0.470  52.720  1.00  0.00     0.211 C 
ENDBRANCH   1  31
TORSDOF 8
ENDMDL
MODEL 5
REMARK VINA RESULT:      -8.0      3.691      6.484
REMARK  8 active torsions:
REMARK  status: ('A' for Active; 'I' for Inactive)
REMARK    1  A    between atoms: O1_2  and  C2_3 
REMARK    2  A    between atoms: C6_9  and  N3_10 
REMARK    3  A    between atoms: N3_10  and  C7_11 
REMARK    4  A    between atoms: N4_21  and  O2_22 
REMARK    5  A    between atoms: O2_22  and  C15_23 
REMARK    6  A    between atoms: C15_23  and  C16_24 
REMARK    7  A    between atoms: C16_24  and  C17_25 
REMARK    8  A    between atoms: C17_25  and  N5_26 
ROOT
HETATM    1  C2  UNL     1      27.459   0.614  53.640  1.00  0.00     0.166 A 
HETATM    2  C3  UNL     1      26.862  -0.034  54.627  1.00  0.00     0.090 A 
HETATM    3  C4  UNL     1      25.454  -0.393  54.538  1.00  0.00     0.074 A 
HETATM    4  N1  UNL     1      24.926  -1.050  55.586  1.00  0.00    -0.241 NA
HETATM    5  C5  UNL     1      23.634  -1.426  55.599  1.00  0.00     0.235 A 
HETATM    6  N2  UNL     1      22.891  -1.121  54.527  1.00  0.00    -0.224 NA
HETATM    7  C6  UNL     1      23.329  -0.472  53.443  1.00  0.00     0.139 A 
HETATM    8  C13 UNL     1      24.655  -0.099  53.456  1.00  0.00     0.037 A 
HETATM    9  C14 UNL     1      25.228   0.615  52.314  1.00  0.00     0.203 A 
HETATM   10  N4  UNL     1      26.628   0.913  52.529  1.00  0.00    -0.232 N 
ENDROOT
BRANCH   7  11
HETATM   11  N3  UNL     1      22.549  -0.146  52.305  1.00  0.00    -0.340 N 
HETATM   12  H6  UNL     1      22.774  -0.632  51.389  1.00  0.00     0.167 HD
BRANCH  11  13
HETATM   13  C7  UNL     1      21.473   0.767  52.190  1.00  0.00     0.035 A 
HETATM   14  C8  UNL     1      21.632   2.141  52.396  1.00  0.00     0.032 A 
HETATM   15  C9  UNL     1      20.599   3.037  52.288  1.00  0.00     0.046 A 
HETATM   16  C10 UNL     1      19.329   2.617  51.963  1.00  0.00     0.138 A 
HETATM   17  F1  UNL     1      18.356   3.546  51.871  1.00  0.00    -0.204 F 
HETATM   18  C11 UNL     1      19.110   1.273  51.746  1.00  0.00     0.074 A 
HETATM   19 CL1  UNL     1      17.497   0.743  51.334  1.00  0.00    -0.081 Cl
HETATM   20  C12 UNL     1      20.182   0.417  51.869  1.00  0.00     0.056 A 
ENDBRANCH  11  13
ENDBRANCH   7  11
BRANCH  10  21
HETATM   21  O2  UNL     1      27.214   1.584  51.485  1.00  0.00    -0.276 OA
BRANCH  21  22
HETATM   22  C15 UNL     1      26.513   2.744  51.268  1.00  0.00     0.203 C 
BRANCH  22  23
HETATM   23  C16 UNL     1      26.420   3.116  49.804  1.00  0.00     0.059 C 
BRANCH  23  24
HETATM   24  C17 UNL     1      25.107   3.827  49.581  1.00  0.00     0.275 C 
BRANCH  24  25
HETATM   25  N5  UNL     1      24.954   5.015  50.388  1.00  0.00     0.092 N 
HETATM   26  C18 UNL     1      23.552   5.190  50.640  1.00  0.00     0.298 C 
HETATM   27  C19 UNL     1      23.092   6.627  50.524  1.00  0.00     0.198 C 
HETATM   28  O3  UNL     1      24.046   7.405  51.157  1.00  0.00    -0.388 OA
HETATM   29  C20 UNL     1      25.200   7.442  50.416  1.00  0.00     0.198 C 
HETATM   30  C21 UNL     1      25.617   6.141  49.808  1.00  0.00     0.298 C 
ENDBRANCH  24  25
ENDBRANCH  23  24
ENDBRANCH  22  23
ENDBRANCH  21  22
ENDBRANCH  10  21
BRANCH   1  31
HETATM   31  O1  UNL     1      28.792   0.997  53.636  1.00  0.00    -0.339 OA
HETATM   32  C1  UNL     1      29.812  -0.013  53.589  1.00  0.00     0.211 C 
ENDBRANCH   1  31
TORSDOF 8
ENDMDL
MODEL 6
REMARK VINA RESULT:      -7.9      2.232      3.107
REMARK  8 active torsions:
REMARK  status: ('A' for Active; 'I' for Inactive)
REMARK    1  A    between atoms: O1_2  and  C2_3 
REMARK    2  A    between atoms: C6_9  and  N3_10 
REMARK    3  A    between atoms: N3_10  and  C7_11 
REMARK    4  A    between atoms: N4_21  and  O2_22 
REMARK    5  A    between atoms: O2_22  and  C15_23 
REMARK    6  A    between atoms: C15_23  and  C16_24 
REMARK    7  A    between atoms: C16_24  and  C17_25 
REMARK    8  A    between atoms: C17_25  and  N5_26 
ROOT
HETATM    1  C2  UNL     1      22.568   3.078  49.787  1.00  0.00     0.166 A 
HETATM    2  C3  UNL     1      22.033   1.996  50.328  1.00  0.00     0.090 A 
HETATM    3  C4  UNL     1      22.682   1.322  51.443  1.00  0.00     0.074 A 
HETATM    4  N1  UNL     1      22.071   0.229  51.933  1.00  0.00    -0.241 NA
HETATM    5  C5  UNL     1      22.593  -0.463  52.963  1.00  0.00     0.235 A 
HETATM    6  N2  UNL     1      23.745  -0.021  53.484  1.00  0.00    -0.224 NA
HETATM    7  C6  UNL     1      24.422   1.053  53.063  1.00  0.00     0.139 A 
HETATM    8  C13 UNL     1      23.866   1.742  52.008  1.00  0.00     0.037 A 
HETATM    9  C14 UNL     1      24.532   2.932  51.477  1.00  0.00     0.203 A 
HETATM   10  N4  UNL     1      23.787   3.504  50.375  1.00  0.00    -0.232 N 
ENDROOT
BRANCH   7  11
HETATM   11  N3  UNL     1      25.641   1.526  53.609  1.00  0.00    -0.340 N 
HETATM   12  H6  UNL     1      25.641   2.476  54.082  1.00  0.00     0.167 HD
BRANCH  11  13
HETATM   13  C7  UNL     1      26.914   0.908  53.623  1.00  0.00     0.035 A 
HETATM   14  C8  UNL     1      28.084   1.610  53.935  1.00  0.00     0.032 A 
HETATM   15  C9  UNL     1      29.324   1.024  53.952  1.00  0.00     0.046 A 
HETATM   16  C10 UNL     1      29.480  -0.311  53.658  1.00  0.00     0.138 A 
HETATM   17  F1  UNL     1      30.725  -0.829  53.692  1.00  0.00    -0.204 F 
HETATM   18  C11 UNL     1      28.364  -1.057  53.343  1.00  0.00     0.074 A 
HETATM   19 CL1  UNL     1      28.565  -2.751  52.969  1.00  0.00    -0.081 Cl
HETATM   20  C12 UNL     1      27.143  -0.418  53.339  1.00  0.00     0.056 A 
ENDBRANCH  11  13
ENDBRANCH   7  11
BRANCH  10  21
HETATM   21  O2  UNL     1      24.370   4.625  49.839  1.00  0.00    -0.276 OA
BRANCH  21  22
HETATM   22  C15 UNL     1      25.703   4.366  49.640  1.00  0.00     0.203 C 
BRANCH  22  23
HETATM   23  C16 UNL     1      26.431   5.497  48.946  1.00  0.00     0.059 C 
BRANCH  23  24
HETATM   24  C17 UNL     1      27.804   5.005  48.555  1.00  0.00     0.275 C 
BRANCH  24  25
HETATM   25  N5  UNL     1      28.639   6.033  47.977  1.00  0.00     0.092 N 
HETATM   26  C18 UNL     1      30.002   5.704  48.279  1.00  0.00     0.298 C 
HETATM   27  C19 UNL     1      30.835   6.898  48.692  1.00  0.00     0.198 C 
HETATM   28  O3  UNL     1      30.511   7.930  47.828  1.00  0.00    -0.388 OA
HETATM   29  C20 UNL     1      29.247   8.393  48.090  1.00  0.00     0.198 C 
HETATM   30  C21 UNL     1      28.222   7.342  48.374  1.00  0.00     0.298 C 
ENDBRANCH  24  25
ENDBRANCH  23  24
ENDBRANCH  22  23
ENDBRANCH  21  22
ENDBRANCH  10  21
BRANCH   1  31
HETATM   31  O1  UNL     1      22.022   3.784  48.724  1.00  0.00    -0.339 OA
HETATM   32  C1  UNL     1      21.930   3.155  47.437  1.00  0.00     0.211 C 
ENDBRANCH   1  31
TORSDOF 8
ENDMDL
MODEL 7
REMARK VINA RESULT:      -7.9      4.038      6.435
REMARK  8 active torsions:
REMARK  status: ('A' for Active; 'I' for Inactive)
REMARK    1  A    between atoms: O1_2  and  C2_3 
REMARK    2  A    between atoms: C6_9  and  N3_10 
REMARK    3  A    between atoms: N3_10  and  C7_11 
REMARK    4  A    between atoms: N4_21  and  O2_22 
REMARK    5  A    between atoms: O2_22  and  C15_23 
REMARK    6  A    between atoms: C15_23  and  C16_24 
REMARK    7  A    between atoms: C16_24  and  C17_25 
REMARK    8  A    between atoms: C17_25  and  N5_26 
ROOT
HETATM    1  C2  UNL     1      27.375   0.686  53.574  1.00  0.00     0.166 A 
HETATM    2  C3  UNL     1      26.794   0.020  54.557  1.00  0.00     0.090 A 
HETATM    3  C4  UNL     1      25.397  -0.378  54.464  1.00  0.00     0.074 A 
HETATM    4  N1  UNL     1      24.884  -1.052  55.509  1.00  0.00    -0.241 NA
HETATM    5  C5  UNL     1      23.603  -1.463  55.517  1.00  0.00     0.235 A 
HETATM    6  N2  UNL     1      22.855  -1.176  54.444  1.00  0.00    -0.224 NA
HETATM    7  C6  UNL     1      23.277  -0.513  53.362  1.00  0.00     0.139 A 
HETATM    8  C13 UNL     1      24.592  -0.104  53.380  1.00  0.00     0.037 A 
HETATM    9  C14 UNL     1      25.149   0.629  52.242  1.00  0.00     0.203 A 
HETATM   10  N4  UNL     1      26.540   0.965  52.462  1.00  0.00    -0.232 N 
ENDROOT
BRANCH   7  11
HETATM   11  N3  UNL     1      22.492  -0.206  52.223  1.00  0.00    -0.340 N 
HETATM   12  H6  UNL     1      22.711  -0.709  51.316  1.00  0.00     0.167 HD
BRANCH  11  13
HETATM   13  C7  UNL     1      21.419   0.708  52.097  1.00  0.00     0.035 A 
HETATM   14  C8  UNL     1      21.492   2.021  52.577  1.00  0.00     0.032 A 
HETATM   15  C9  UNL     1      20.460   2.917  52.462  1.00  0.00     0.046 A 
HETATM   16  C10 UNL     1      19.278   2.560  51.855  1.00  0.00     0.138 A 
HETATM   17  F1  UNL     1      18.301   3.486  51.772  1.00  0.00    -0.204 F 
HETATM   18  C11 UNL     1      19.145   1.280  51.360  1.00  0.00     0.074 A 
HETATM   19 CL1  UNL     1      17.643   0.830  50.590  1.00  0.00    -0.081 Cl
HETATM   20  C12 UNL     1      20.212   0.420  51.503  1.00  0.00     0.056 A 
ENDBRANCH  11  13
ENDBRANCH   7  11
BRANCH  10  21
HETATM   21  O2  UNL     1      27.110   1.655  51.421  1.00  0.00    -0.276 OA
BRANCH  21  22
HETATM   22  C15 UNL     1      26.314   2.734  51.130  1.00  0.00     0.203 C 
BRANCH  22  23
HETATM   23  C16 UNL     1      26.532   3.273  49.731  1.00  0.00     0.059 C 
BRANCH  23  24
HETATM   24  C17 UNL     1      26.133   4.729  49.720  1.00  0.00     0.275 C 
BRANCH  24  25
HETATM   25  N5  UNL     1      26.717   5.474  48.628  1.00  0.00     0.092 N 
HETATM   26  C18 UNL     1      28.077   5.040  48.486  1.00  0.00     0.298 C 
HETATM   27  C19 UNL     1      29.049   6.172  48.235  1.00  0.00     0.198 C 
HETATM   28  O3  UNL     1      28.455   7.013  47.311  1.00  0.00    -0.388 OA
HETATM   29  C20 UNL     1      27.410   7.692  47.885  1.00  0.00     0.198 C 
HETATM   30  C21 UNL     1      26.537   6.883  48.790  1.00  0.00     0.298 C 
ENDBRANCH  24  25
ENDBRANCH  23  24
ENDBRANCH  22  23
ENDBRANCH  21  22
ENDBRANCH  10  21
BRANCH   1  31
HETATM   31  O1  UNL     1      28.698   1.106  53.575  1.00  0.00    -0.339 OA
HETATM   32  C1  UNL     1      29.745   0.124  53.605  1.00  0.00     0.211 C 
ENDBRANCH   1  31
TORSDOF 8
ENDMDL
MODEL 8
REMARK VINA RESULT:      -7.7      3.498      6.066
REMARK  8 active torsions:
REMARK  status: ('A' for Active; 'I' for Inactive)
REMARK    1  A    between atoms: O1_2  and  C2_3 
REMARK    2  A    between atoms: C6_9  and  N3_10 
REMARK    3  A    between atoms: N3_10  and  C7_11 
REMARK    4  A    between atoms: N4_21  and  O2_22 
REMARK    5  A    between atoms: O2_22  and  C15_23 
REMARK    6  A    between atoms: C15_23  and  C16_24 
REMARK    7  A    between atoms: C16_24  and  C17_25 
REMARK    8  A    between atoms: C17_25  and  N5_26 
ROOT
HETATM    1  C2  UNL     1      18.943  -0.238  52.322  1.00  0.00     0.166 A 
HETATM    2  C3  UNL     1      18.439   0.436  51.301  1.00  0.00     0.090 A 
HETATM    3  C4  UNL     1      19.297   1.237  50.441  1.00  0.00     0.074 A 
HETATM    4  N1  UNL     1      18.703   1.891  49.426  1.00  0.00    -0.241 NA
HETATM    5  C5  UNL     1      19.411   2.657  48.577  1.00  0.00     0.235 A 
HETATM    6  N2  UNL     1      20.733   2.745  48.778  1.00  0.00    -0.224 NA
HETATM    7  C6  UNL     1      21.407   2.133  49.757  1.00  0.00     0.139 A 
HETATM    8  C13 UNL     1      20.659   1.356  50.612  1.00  0.00     0.037 A 
HETATM    9  C14 UNL     1      21.307   0.645  51.715  1.00  0.00     0.203 A 
HETATM   10  N4  UNL     1      20.346  -0.111  52.491  1.00  0.00    -0.232 N 
ENDROOT
BRANCH   7  11
HETATM   11  N3  UNL     1      22.805   2.221  49.976  1.00  0.00    -0.340 N 
HETATM   12  H6  UNL     1      23.347   1.320  50.112  1.00  0.00     0.167 HD
BRANCH  11  13
HETATM   13  C7  UNL     1      23.628   3.371  50.049  1.00  0.00     0.035 A 
HETATM   14  C8  UNL     1      23.222   4.542  50.699  1.00  0.00     0.032 A 
HETATM   15  C9  UNL     1      24.009   5.662  50.778  1.00  0.00     0.046 A 
HETATM   16  C10 UNL     1      25.262   5.689  50.210  1.00  0.00     0.138 A 
HETATM   17  F1  UNL     1      25.987   6.821  50.322  1.00  0.00    -0.204 F 
HETATM   18  C11 UNL     1      25.718   4.564  49.555  1.00  0.00     0.074 A 
HETATM   19 CL1  UNL     1      27.309   4.601  48.834  1.00  0.00    -0.081 Cl
HETATM   20  C12 UNL     1      24.888   3.467  49.505  1.00  0.00     0.056 A 
ENDBRANCH  11  13
ENDBRANCH   7  11
BRANCH  10  21
HETATM   21  O2  UNL     1      20.904  -0.797  53.540  1.00  0.00    -0.276 OA
BRANCH  21  22
HETATM   22  C15 UNL     1      21.950  -0.059  54.033  1.00  0.00     0.203 C 
BRANCH  22  23
HETATM   23  C16 UNL     1      23.209  -0.875  54.238  1.00  0.00     0.059 C 
BRANCH  23  24
HETATM   24  C17 UNL     1      24.380  -0.073  53.722  1.00  0.00     0.275 C 
BRANCH  24  25
HETATM   25  N5  UNL     1      25.658  -0.699  53.972  1.00  0.00     0.092 N 
HETATM   26  C18 UNL     1      26.335   0.081  54.967  1.00  0.00     0.298 C 
HETATM   27  C19 UNL     1      27.807   0.281  54.679  1.00  0.00     0.198 C 
HETATM   28  O3  UNL     1      28.302  -0.939  54.253  1.00  0.00    -0.388 OA
HETATM   29  C20 UNL     1      27.830  -1.234  52.999  1.00  0.00     0.198 C 
HETATM   30  C21 UNL     1      26.388  -0.917  52.762  1.00  0.00     0.298 C 
ENDBRANCH  24  25
ENDBRANCH  23  24
ENDBRANCH  22  23
ENDBRANCH  21  22
ENDBRANCH  10  21
BRANCH   1  31
HETATM   31  O1  UNL     1      18.204  -1.026  53.193  1.00  0.00    -0.339 OA
HETATM   32  C1  UNL     1      16.864  -1.398  52.837  1.00  0.00     0.211 C 
ENDBRANCH   1  31
TORSDOF 8
ENDMDL
MODEL 9
REMARK VINA RESULT:      -7.7      3.599      5.850
REMARK  8 active torsions:
REMARK  status: ('A' for Active; 'I' for Inactive)
REMARK    1  A    between atoms: O1_2  and  C2_3 
REMARK    2  A    between atoms: C6_9  and  N3_10 
REMARK    3  A    between atoms: N3_10  and  C7_11 
REMARK    4  A    between atoms: N4_21  and  O2_22 
REMARK    5  A    between atoms: O2_22  and  C15_23 
REMARK    6  A    between atoms: C15_23  and  C16_24 
REMARK    7  A    between atoms: C16_24  and  C17_25 
REMARK    8  A    between atoms: C17_25  and  N5_26 
ROOT
HETATM    1  C2  UNL     1      23.028   0.306  52.955  1.00  0.00     0.166 A 
HETATM    2  C3  UNL     1      24.247   0.367  53.464  1.00  0.00     0.090 A 
HETATM    3  C4  UNL     1      25.293   1.134  52.803  1.00  0.00     0.074 A 
HETATM    4  N1  UNL     1      26.504   1.143  53.388  1.00  0.00    -0.241 NA
HETATM    5  C5  UNL     1      27.535   1.822  52.854  1.00  0.00     0.235 A 
HETATM    6  N2  UNL     1      27.310   2.493  51.717  1.00  0.00    -0.224 NA
HETATM    7  C6  UNL     1      26.143   2.542  51.066  1.00  0.00     0.139 A 
HETATM    8  C13 UNL     1      25.105   1.837  51.634  1.00  0.00     0.037 A 
HETATM    9  C14 UNL     1      23.787   1.830  50.997  1.00  0.00     0.203 A 
HETATM   10  N4  UNL     1      22.843   1.033  51.751  1.00  0.00    -0.232 N 
ENDROOT
BRANCH   7  11
HETATM   11  N3  UNL     1      25.897   3.250  49.863  1.00  0.00    -0.340 N 
HETATM   12  H6  UNL     1      25.343   2.762  49.101  1.00  0.00     0.167 HD
BRANCH  11  13
HETATM   13  C7  UNL     1      26.294   4.559  49.499  1.00  0.00     0.035 A 
HETATM   14  C8  UNL     1      27.423   4.808  48.712  1.00  0.00     0.032 A 
HETATM   15  C9  UNL     1      27.819   6.070  48.351  1.00  0.00     0.046 A 
HETATM   16  C10 UNL     1      27.107   7.177  48.755  1.00  0.00     0.138 A 
HETATM   17  F1  UNL     1      27.547   8.392  48.368  1.00  0.00    -0.204 F 
HETATM   18  C11 UNL     1      25.983   6.997  49.533  1.00  0.00     0.074 A 
HETATM   19 CL1  UNL     1      25.082   8.403  50.044  1.00  0.00    -0.081 Cl
HETATM   20  C12 UNL     1      25.631   5.707  49.866  1.00  0.00     0.056 A 
ENDBRANCH  11  13
ENDBRANCH   7  11
BRANCH  10  21
HETATM   21  O2  UNL     1      21.589   0.993  51.195  1.00  0.00    -0.276 OA
BRANCH  21  22
HETATM   22  C15 UNL     1      21.718   1.076  49.831  1.00  0.00     0.203 C 
BRANCH  22  23
HETATM   23  C16 UNL     1      20.697   1.994  49.192  1.00  0.00     0.059 C 
BRANCH  23  24
HETATM   24  C17 UNL     1      20.019   2.780  50.287  1.00  0.00     0.275 C 
BRANCH  24  25
HETATM   25  N5  UNL     1      20.362   4.184  50.282  1.00  0.00     0.092 N 
HETATM   26  C18 UNL     1      20.865   4.501  48.976  1.00  0.00     0.298 C 
HETATM   27  C19 UNL     1      22.078   5.405  48.999  1.00  0.00     0.198 C 
HETATM   28  O3  UNL     1      21.827   6.389  49.939  1.00  0.00    -0.388 OA
HETATM   29  C20 UNL     1      21.872   5.863  51.206  1.00  0.00     0.198 C 
HETATM   30  C21 UNL     1      21.223   4.525  51.370  1.00  0.00     0.298 C 
ENDBRANCH  24  25
ENDBRANCH  23  24
ENDBRANCH  22  23
ENDBRANCH  21  22
ENDBRANCH  10  21
BRANCH   1  31
HETATM   31  O1  UNL     1      21.971  -0.399  53.514  1.00  0.00    -0.339 OA
HETATM   32  C1  UNL     1      22.215  -1.256  54.640  1.00  0.00     0.211 C 
ENDBRANCH   1  31
TORSDOF 8
ENDMDL
