MODEL 1
REMARK VINA RESULT:      -8.0      0.000      0.000
REMARK  9 active torsions:
REMARK  status: ('A' for Active; 'I' for Inactive)
REMARK    1  A    between atoms: C2_2  and  C3_3 
REMARK    2  A    between atoms: C3_3  and  C4_4 
REMARK    3  A    between atoms: C4_4  and  C5_5 
REMARK    4  A    between atoms: C5_5  and  C6_6 
REMARK    5  A    between atoms: C6_6  and  N1_7 
REMARK    6  A    between atoms: N1_7  and  C7_8 
REMARK    7  A    between atoms: N4_14  and  C11_15 
REMARK    8  A    between atoms: C14_18  and  O1_19 
REMARK    9  A    between atoms: C19_26  and  O3_27 
ROOT
HETATM    1  C7  UNL     1      20.881  -0.378  54.164  1.00  0.00     0.724 A 
HETATM    2  N2  UNL     1      21.505  -1.195  55.024  1.00  0.00    -0.075 NA
HETATM    3  C8  UNL     1      22.843  -1.272  55.061  1.00  0.00     0.147 A 
HETATM    4  C9  UNL     1      23.697  -0.547  54.251  1.00  0.00     0.011 A 
HETATM    5  C10 UNL     1      22.952   0.280  53.383  1.00  0.00     0.161 A 
HETATM    6  N3  UNL     1      21.616   0.394  53.305  1.00  0.00    -0.044 NA
HETATM    7  N4  UNL     1      23.333   1.217  52.366  1.00  0.00    -0.277 N 
HETATM    8  C16 UNL     1      24.651   1.553  51.834  1.00  0.00     0.334 C 
HETATM    9  O2  UNL     1      24.906   2.556  51.137  1.00  0.00    -0.246 OA
HETATM   10  N5  UNL     1      25.885   0.761  52.044  1.00  0.00    -0.285 N 
HETATM   11  C17 UNL     1      26.768   1.950  52.129  1.00  0.00     0.104 C 
HETATM   12  C18 UNL     1      27.782   1.941  53.052  1.00  0.00     0.054 C 
HETATM   13  C19 UNL     1      27.922   1.024  54.236  1.00  0.00     0.070 C 
HETATM   14  C21 UNL     1      27.123  -0.038  54.552  1.00  0.00     0.045 C 
HETATM   15  C22 UNL     1      26.107  -0.615  53.587  1.00  0.00    -0.035 C 
HETATM   16  C23 UNL     1      26.225  -0.683  52.210  1.00  0.00     0.108 C 
HETATM   17  C24 UNL     1      25.071  -0.941  54.635  1.00  0.00     0.084 C 
ENDROOT
BRANCH   1  18
HETATM   18  N1  UNL     1      19.474  -0.278  54.103  1.00  0.00    -0.219 N 
HETATM   19  H8  UNL     1      18.946   0.413  54.657  1.00  0.00     0.178 HD
BRANCH  18  20
HETATM   20  C6  UNL     1      18.840  -1.220  53.205  1.00  0.00     0.165 C 
BRANCH  20  21
HETATM   21  C5  UNL     1      17.823  -0.633  52.325  1.00  0.00    -0.006 C 
BRANCH  21  22
HETATM   22  C4  UNL     1      17.966  -0.243  51.066  1.00  0.00     0.005 C 
BRANCH  22  23
HETATM   23  C3  UNL     1      18.898   0.788  50.747  1.00  0.00     0.050 C 
BRANCH  23  24
HETATM   24  C2  UNL     1      18.783   1.981  51.267  1.00  0.00    -0.155 C 
HETATM   25  C1  UNL     1      18.612   3.263  51.552  1.00  0.00     0.096 C 
ENDBRANCH  23  24
ENDBRANCH  22  23
ENDBRANCH  21  22
ENDBRANCH  20  21
ENDBRANCH  18  20
ENDBRANCH   1  18
BRANCH   7  26
HETATM   26  C11 UNL     1      22.433   2.019  51.690  1.00  0.00     0.099 C 
HETATM   27  C12 UNL     1      22.526   1.597  50.209  1.00  0.00     0.028 C 
HETATM   28  C13 UNL     1      21.854   2.779  49.484  1.00  0.00     0.034 C 
HETATM   29  C14 UNL     1      22.317   3.974  50.280  1.00  0.00     0.120 C 
HETATM   30  C15 UNL     1      22.396   3.431  51.647  1.00  0.00     0.057 C 
BRANCH  29  31
HETATM   31  O1  UNL     1      21.439   5.054  50.138  1.00  0.00    -0.396 OA
HETATM   32  H16 UNL     1      20.679   4.712  49.589  1.00  0.00     0.210 HD
ENDBRANCH  29  31
ENDBRANCH   7  26
BRANCH  13  33
HETATM   33  O3  UNL     1      28.978   1.343  55.036  1.00  0.00    -0.356 OA
HETATM   34  C20 UNL     1      29.935   2.273  54.538  1.00  0.00     0.210 C 
ENDBRANCH  13  33
TORSDOF 9
ENDMDL
MODEL 2
REMARK VINA RESULT:      -8.0      1.450      2.524
REMARK  9 active torsions:
REMARK  status: ('A' for Active; 'I' for Inactive)
REMARK    1  A    between atoms: C2_2  and  C3_3 
REMARK    2  A    between atoms: C3_3  and  C4_4 
REMARK    3  A    between atoms: C4_4  and  C5_5 
REMARK    4  A    between atoms: C5_5  and  C6_6 
REMARK    5  A    between atoms: C6_6  and  N1_7 
REMARK    6  A    between atoms: N1_7  and  C7_8 
REMARK    7  A    between atoms: N4_14  and  C11_15 
REMARK    8  A    between atoms: C14_18  and  O1_19 
REMARK    9  A    between atoms: C19_26  and  O3_27 
ROOT
HETATM    1  C7  UNL     1      20.913  -0.380  54.182  1.00  0.00     0.724 A 
HETATM    2  N2  UNL     1      21.538  -1.199  55.039  1.00  0.00    -0.075 NA
HETATM    3  C8  UNL     1      22.876  -1.282  55.068  1.00  0.00     0.147 A 
HETATM    4  C9  UNL     1      23.729  -0.562  54.252  1.00  0.00     0.011 A 
HETATM    5  C10 UNL     1      22.982   0.269  53.388  1.00  0.00     0.161 A 
HETATM    6  N3  UNL     1      21.646   0.389  53.318  1.00  0.00    -0.044 NA
HETATM    7  N4  UNL     1      23.361   1.203  52.368  1.00  0.00    -0.277 N 
HETATM    8  C16 UNL     1      24.677   1.533  51.827  1.00  0.00     0.334 C 
HETATM    9  O2  UNL     1      24.933   2.533  51.129  1.00  0.00    -0.246 OA
HETATM   10  N5  UNL     1      25.909   0.735  52.031  1.00  0.00    -0.285 N 
HETATM   11  C17 UNL     1      26.798   1.920  52.110  1.00  0.00     0.104 C 
HETATM   12  C18 UNL     1      27.817   1.907  53.026  1.00  0.00     0.054 C 
HETATM   13  C19 UNL     1      27.960   0.990  54.209  1.00  0.00     0.070 C 
HETATM   14  C21 UNL     1      27.159  -0.068  54.531  1.00  0.00     0.045 C 
HETATM   15  C22 UNL     1      26.134  -0.640  53.573  1.00  0.00    -0.035 C 
HETATM   16  C23 UNL     1      26.243  -0.710  52.196  1.00  0.00     0.108 C 
HETATM   17  C24 UNL     1      25.103  -0.962  54.628  1.00  0.00     0.084 C 
ENDROOT
BRANCH   1  18
HETATM   18  N1  UNL     1      19.506  -0.273  54.130  1.00  0.00    -0.219 N 
HETATM   19  H8  UNL     1      18.958   0.163  54.886  1.00  0.00     0.178 HD
BRANCH  18  20
HETATM   20  C6  UNL     1      18.903  -0.824  52.934  1.00  0.00     0.165 C 
BRANCH  20  21
HETATM   21  C5  UNL     1      17.756  -1.706  53.182  1.00  0.00    -0.006 C 
BRANCH  21  22
HETATM   22  C4  UNL     1      17.752  -2.876  53.805  1.00  0.00     0.005 C 
BRANCH  22  23
HETATM   23  C3  UNL     1      17.196  -4.020  53.160  1.00  0.00     0.050 C 
BRANCH  23  24
HETATM   24  C2  UNL     1      16.354  -4.799  53.784  1.00  0.00    -0.155 C 
HETATM   25  C1  UNL     1      15.706  -5.659  54.556  1.00  0.00     0.096 C 
ENDBRANCH  23  24
ENDBRANCH  22  23
ENDBRANCH  21  22
ENDBRANCH  20  21
ENDBRANCH  18  20
ENDBRANCH   1  18
BRANCH   7  26
HETATM   26  C11 UNL     1      22.461   2.008  51.697  1.00  0.00     0.099 C 
HETATM   27  C12 UNL     1      22.467   1.517  50.235  1.00  0.00     0.028 C 
HETATM   28  C13 UNL     1      21.805   2.690  49.486  1.00  0.00     0.034 C 
HETATM   29  C14 UNL     1      22.351   3.900  50.202  1.00  0.00     0.120 C 
HETATM   30  C15 UNL     1      22.475   3.418  51.589  1.00  0.00     0.057 C 
BRANCH  29  31
HETATM   31  O1  UNL     1      21.510   5.008  50.050  1.00  0.00    -0.396 OA
HETATM   32  H16 UNL     1      21.321   5.068  49.071  1.00  0.00     0.210 HD
ENDBRANCH  29  31
ENDBRANCH   7  26
BRANCH  13  33
HETATM   33  O3  UNL     1      29.023   1.305  55.003  1.00  0.00    -0.356 OA
HETATM   34  C20 UNL     1      29.914   2.320  54.553  1.00  0.00     0.210 C 
ENDBRANCH  13  33
TORSDOF 9
ENDMDL
MODEL 3
REMARK VINA RESULT:      -8.0      2.741      7.019
REMARK  9 active torsions:
REMARK  status: ('A' for Active; 'I' for Inactive)
REMARK    1  A    between atoms: C2_2  and  C3_3 
REMARK    2  A    between atoms: C3_3  and  C4_4 
REMARK    3  A    between atoms: C4_4  and  C5_5 
REMARK    4  A    between atoms: C5_5  and  C6_6 
REMARK    5  A    between atoms: C6_6  and  N1_7 
REMARK    6  A    between atoms: N1_7  and  C7_8 
REMARK    7  A    between atoms: N4_14  and  C11_15 
REMARK    8  A    between atoms: C14_18  and  O1_19 
REMARK    9  A    between atoms: C19_26  and  O3_27 
ROOT
HETATM    1  C7  UNL     1      23.419   5.471  52.044  1.00  0.00     0.724 A 
HETATM    2  N2  UNL     1      22.141   5.655  51.686  1.00  0.00    -0.075 NA
HETATM    3  C8  UNL     1      21.280   4.628  51.636  1.00  0.00     0.147 A 
HETATM    4  C9  UNL     1      21.600   3.316  51.934  1.00  0.00     0.011 A 
HETATM    5  C10 UNL     1      22.961   3.222  52.297  1.00  0.00     0.161 A 
HETATM    6  N3  UNL     1      23.863   4.215  52.363  1.00  0.00    -0.044 NA
HETATM    7  N4  UNL     1      23.788   2.120  52.694  1.00  0.00    -0.277 N 
HETATM    8  C16 UNL     1      23.492   0.691  52.766  1.00  0.00     0.334 C 
HETATM    9  O2  UNL     1      24.189  -0.154  53.363  1.00  0.00    -0.246 OA
HETATM   10  N5  UNL     1      22.320   0.029  52.148  1.00  0.00    -0.285 N 
HETATM   11  C17 UNL     1      22.143  -0.941  53.255  1.00  0.00     0.104 C 
HETATM   12  C18 UNL     1      20.867  -1.247  53.653  1.00  0.00     0.054 C 
HETATM   13  C19 UNL     1      19.613  -0.475  53.347  1.00  0.00     0.070 C 
HETATM   14  C21 UNL     1      19.496   0.613  52.529  1.00  0.00     0.045 C 
HETATM   15  C22 UNL     1      20.599   1.051  51.587  1.00  0.00    -0.035 C 
HETATM   16  C23 UNL     1      21.491   0.228  50.923  1.00  0.00     0.108 C 
HETATM   17  C24 UNL     1      20.358   2.532  51.750  1.00  0.00     0.084 C 
ENDROOT
BRANCH   1  18
HETATM   18  N1  UNL     1      24.347   6.534  52.105  1.00  0.00    -0.219 N 
HETATM   19  H8  UNL     1      24.772   6.844  52.991  1.00  0.00     0.178 HD
BRANCH  18  20
HETATM   20  C6  UNL     1      24.647   7.148  50.828  1.00  0.00     0.165 C 
BRANCH  20  21
HETATM   21  C5  UNL     1      25.587   6.391  49.994  1.00  0.00    -0.006 C 
BRANCH  21  22
HETATM   22  C4  UNL     1      25.306   5.593  48.974  1.00  0.00     0.005 C 
BRANCH  22  23
HETATM   23  C3  UNL     1      25.327   4.178  49.154  1.00  0.00     0.050 C 
BRANCH  23  24
HETATM   24  C2  UNL     1      24.244   3.465  48.994  1.00  0.00    -0.155 C 
HETATM   25  C1  UNL     1      23.112   2.887  48.621  1.00  0.00     0.096 C 
ENDBRANCH  23  24
ENDBRANCH  22  23
ENDBRANCH  21  22
ENDBRANCH  20  21
ENDBRANCH  18  20
ENDBRANCH   1  18
BRANCH   7  26
HETATM   26  C11 UNL     1      25.096   2.260  53.118  1.00  0.00     0.099 C 
HETATM   27  C12 UNL     1      25.972   1.842  51.920  1.00  0.00     0.028 C 
HETATM   28  C13 UNL     1      27.346   1.609  52.577  1.00  0.00     0.034 C 
HETATM   29  C14 UNL     1      26.987   0.981  53.901  1.00  0.00     0.120 C 
HETATM   30  C15 UNL     1      25.715   1.647  54.231  1.00  0.00     0.057 C 
BRANCH  29  31
HETATM   31  O1  UNL     1      27.999   1.170  54.848  1.00  0.00    -0.396 OA
HETATM   32  H16 UNL     1      28.565   0.348  54.803  1.00  0.00     0.210 HD
ENDBRANCH  29  31
ENDBRANCH   7  26
BRANCH  13  33
HETATM   33  O3  UNL     1      18.514  -0.967  53.986  1.00  0.00    -0.356 OA
HETATM   34  C20 UNL     1      17.490  -1.559  53.192  1.00  0.00     0.210 C 
ENDBRANCH  13  33
TORSDOF 9
ENDMDL
MODEL 4
REMARK VINA RESULT:      -7.7      2.703      5.214
REMARK  9 active torsions:
REMARK  status: ('A' for Active; 'I' for Inactive)
REMARK    1  A    between atoms: C2_2  and  C3_3 
REMARK    2  A    between atoms: C3_3  and  C4_4 
REMARK    3  A    between atoms: C4_4  and  C5_5 
REMARK    4  A    between atoms: C5_5  and  C6_6 
REMARK    5  A    between atoms: C6_6  and  N1_7 
REMARK    6  A    between atoms: N1_7  and  C7_8 
REMARK    7  A    between atoms: N4_14  and  C11_15 
REMARK    8  A    between atoms: C14_18  and  O1_19 
REMARK    9  A    between atoms: C19_26  and  O3_27 
ROOT
HETATM    1  C7  UNL     1      19.379   1.446  49.653  1.00  0.00     0.724 A 
HETATM    2  N2  UNL     1      19.617   2.329  48.672  1.00  0.00    -0.075 NA
HETATM    3  C8  UNL     1      20.763   3.023  48.628  1.00  0.00     0.147 A 
HETATM    4  C9  UNL     1      21.787   2.914  49.550  1.00  0.00     0.011 A 
HETATM    5  C10 UNL     1      21.447   1.966  50.539  1.00  0.00     0.161 A 
HETATM    6  N3  UNL     1      20.317   1.246  50.630  1.00  0.00    -0.044 NA
HETATM    7  N4  UNL     1      22.136   1.479  51.698  1.00  0.00    -0.277 N 
HETATM    8  C16 UNL     1      23.411   1.887  52.284  1.00  0.00     0.334 C 
HETATM    9  O2  UNL     1      24.046   1.236  53.137  1.00  0.00    -0.246 OA
HETATM   10  N5  UNL     1      24.145   3.130  51.950  1.00  0.00    -0.285 N 
HETATM   11  C17 UNL     1      25.485   2.502  52.066  1.00  0.00     0.104 C 
HETATM   12  C18 UNL     1      26.448   2.858  51.158  1.00  0.00     0.054 C 
HETATM   13  C19 UNL     1      26.240   3.552  49.840  1.00  0.00     0.070 C 
HETATM   14  C21 UNL     1      25.067   4.052  49.351  1.00  0.00     0.045 C 
HETATM   15  C22 UNL     1      23.824   4.209  50.204  1.00  0.00    -0.035 C 
HETATM   16  C23 UNL     1      23.784   4.521  51.551  1.00  0.00     0.108 C 
HETATM   17  C24 UNL     1      22.845   3.852  49.112  1.00  0.00     0.084 C 
ENDROOT
BRANCH   1  18
HETATM   18  N1  UNL     1      18.181   0.701  49.724  1.00  0.00    -0.219 N 
HETATM   19  H8  UNL     1      17.841   0.129  48.937  1.00  0.00     0.178 HD
BRANCH  18  20
HETATM   20  C6  UNL     1      17.477   0.809  50.984  1.00  0.00     0.165 C 
BRANCH  20  21
HETATM   21  C5  UNL     1      17.322  -0.459  51.706  1.00  0.00    -0.006 C 
BRANCH  21  22
HETATM   22  C4  UNL     1      18.198  -1.047  52.510  1.00  0.00     0.005 C 
BRANCH  22  23
HETATM   23  C3  UNL     1      17.736  -1.824  53.613  1.00  0.00     0.050 C 
BRANCH  23  24
HETATM   24  C2  UNL     1      17.445  -3.090  53.466  1.00  0.00    -0.155 C 
HETATM   25  C1  UNL     1      17.015  -4.341  53.536  1.00  0.00     0.096 C 
ENDBRANCH  23  24
ENDBRANCH  22  23
ENDBRANCH  21  22
ENDBRANCH  20  21
ENDBRANCH  18  20
ENDBRANCH   1  18
BRANCH   7  26
HETATM   26  C11 UNL     1      21.663   0.452  52.493  1.00  0.00     0.099 C 
HETATM   27  C12 UNL     1      20.983   1.135  53.698  1.00  0.00     0.028 C 
HETATM   28  C13 UNL     1      20.874  -0.017  54.716  1.00  0.00     0.034 C 
HETATM   29  C14 UNL     1      22.164  -0.773  54.512  1.00  0.00     0.120 C 
HETATM   30  C15 UNL     1      22.401  -0.608  53.067  1.00  0.00     0.057 C 
BRANCH  29  31
HETATM   31  O1  UNL     1      22.048  -2.104  54.928  1.00  0.00    -0.396 OA
HETATM   32  H16 UNL     1      21.305  -2.491  54.385  1.00  0.00     0.210 HD
ENDBRANCH  29  31
ENDBRANCH   7  26
BRANCH  13  33
HETATM   33  O3  UNL     1      27.384   3.660  49.108  1.00  0.00    -0.356 OA
HETATM   34  C20 UNL     1      27.732   4.945  48.600  1.00  0.00     0.210 C 
ENDBRANCH  13  33
TORSDOF 9
ENDMDL
MODEL 5
REMARK VINA RESULT:      -7.6      3.048      8.403
REMARK  9 active torsions:
REMARK  status: ('A' for Active; 'I' for Inactive)
REMARK    1  A    between atoms: C2_2  and  C3_3 
REMARK    2  A    between atoms: C3_3  and  C4_4 
REMARK    3  A    between atoms: C4_4  and  C5_5 
REMARK    4  A    between atoms: C5_5  and  C6_6 
REMARK    5  A    between atoms: C6_6  and  N1_7 
REMARK    6  A    between atoms: N1_7  and  C7_8 
REMARK    7  A    between atoms: N4_14  and  C11_15 
REMARK    8  A    between atoms: C14_18  and  O1_19 
REMARK    9  A    between atoms: C19_26  and  O3_27 
ROOT
HETATM    1  C7  UNL     1      21.632   3.975  52.052  1.00  0.00     0.724 A 
HETATM    2  N2  UNL     1      20.720   4.681  51.369  1.00  0.00    -0.075 NA
HETATM    3  C8  UNL     1      19.517   4.164  51.081  1.00  0.00     0.147 A 
HETATM    4  C9  UNL     1      19.097   2.897  51.441  1.00  0.00     0.011 A 
HETATM    5  C10 UNL     1      20.120   2.234  52.152  1.00  0.00     0.161 A 
HETATM    6  N3  UNL     1      21.338   2.704  52.465  1.00  0.00    -0.044 NA
HETATM    7  N4  UNL     1      20.205   0.931  52.745  1.00  0.00    -0.277 N 
HETATM    8  C16 UNL     1      19.262  -0.185  52.721  1.00  0.00     0.334 C 
HETATM    9  O2  UNL     1      19.311  -1.178  53.474  1.00  0.00    -0.246 OA
HETATM   10  N5  UNL     1      18.102  -0.304  51.807  1.00  0.00    -0.285 N 
HETATM   11  C17 UNL     1      17.229  -0.948  52.817  1.00  0.00     0.104 C 
HETATM   12  C18 UNL     1      15.907  -0.586  52.858  1.00  0.00     0.054 C 
HETATM   13  C19 UNL     1      15.282   0.632  52.236  1.00  0.00     0.070 C 
HETATM   14  C21 UNL     1      15.893   1.548  51.427  1.00  0.00     0.045 C 
HETATM   15  C22 UNL     1      17.260   1.318  50.817  1.00  0.00    -0.035 C 
HETATM   16  C23 UNL     1      17.786   0.107  50.407  1.00  0.00     0.108 C 
HETATM   17  C24 UNL     1      17.717   2.753  50.925  1.00  0.00     0.084 C 
ENDROOT
BRANCH   1  18
HETATM   18  N1  UNL     1      22.907   4.495  52.368  1.00  0.00    -0.219 N 
HETATM   19  H8  UNL     1      23.034   5.432  52.777  1.00  0.00     0.178 HD
BRANCH  18  20
HETATM   20  C6  UNL     1      24.011   3.607  52.072  1.00  0.00     0.165 C 
BRANCH  20  21
HETATM   21  C5  UNL     1      24.548   2.892  53.235  1.00  0.00    -0.006 C 
BRANCH  21  22
HETATM   22  C4  UNL     1      25.589   2.072  53.275  1.00  0.00     0.005 C 
BRANCH  22  23
HETATM   23  C3  UNL     1      25.819   1.167  52.196  1.00  0.00     0.050 C 
BRANCH  23  24
HETATM   24  C2  UNL     1      26.339  -0.012  52.410  1.00  0.00    -0.155 C 
HETATM   25  C1  UNL     1      26.807  -1.251  52.378  1.00  0.00     0.096 C 
ENDBRANCH  23  24
ENDBRANCH  22  23
ENDBRANCH  21  22
ENDBRANCH  20  21
ENDBRANCH  18  20
ENDBRANCH   1  18
BRANCH   7  26
HETATM   26  C11 UNL     1      21.279   0.505  53.503  1.00  0.00     0.099 C 
HETATM   27  C12 UNL     1      22.164  -0.323  52.549  1.00  0.00     0.028 C 
HETATM   28  C13 UNL     1      23.070  -1.099  53.524  1.00  0.00     0.034 C 
HETATM   29  C14 UNL     1      22.139  -1.429  54.664  1.00  0.00     0.120 C 
HETATM   30  C15 UNL     1      21.250  -0.254  54.695  1.00  0.00     0.057 C 
BRANCH  29  31
HETATM   31  O1  UNL     1      22.842  -1.651  55.852  1.00  0.00    -0.396 OA
HETATM   32  H16 UNL     1      23.152  -2.600  55.807  1.00  0.00     0.210 HD
ENDBRANCH  29  31
ENDBRANCH   7  26
BRANCH  13  33
HETATM   33  O3  UNL     1      13.964   0.777  52.555  1.00  0.00    -0.356 OA
HETATM   34  C20 UNL     1      13.573   1.955  53.254  1.00  0.00     0.210 C 
ENDBRANCH  13  33
TORSDOF 9
ENDMDL
MODEL 6
REMARK VINA RESULT:      -7.6      2.737      7.646
REMARK  9 active torsions:
REMARK  status: ('A' for Active; 'I' for Inactive)
REMARK    1  A    between atoms: C2_2  and  C3_3 
REMARK    2  A    between atoms: C3_3  and  C4_4 
REMARK    3  A    between atoms: C4_4  and  C5_5 
REMARK    4  A    between atoms: C5_5  and  C6_6 
REMARK    5  A    between atoms: C6_6  and  N1_7 
REMARK    6  A    between atoms: N1_7  and  C7_8 
REMARK    7  A    between atoms: N4_14  and  C11_15 
REMARK    8  A    between atoms: C14_18  and  O1_19 
REMARK    9  A    between atoms: C19_26  and  O3_27 
ROOT
HETATM    1  C7  UNL     1      25.126   1.256  52.752  1.00  0.00     0.724 A 
HETATM    2  N2  UNL     1      25.792   2.144  51.999  1.00  0.00    -0.075 NA
HETATM    3  C8  UNL     1      25.220   2.709  50.926  1.00  0.00     0.147 A 
HETATM    4  C9  UNL     1      23.934   2.452  50.490  1.00  0.00     0.011 A 
HETATM    5  C10 UNL     1      23.316   1.510  51.342  1.00  0.00     0.161 A 
HETATM    6  N3  UNL     1      23.841   0.915  52.425  1.00  0.00    -0.044 NA
HETATM    7  N4  UNL     1      22.013   0.911  51.347  1.00  0.00    -0.277 N 
HETATM    8  C16 UNL     1      20.913   1.027  50.392  1.00  0.00     0.334 C 
HETATM    9  O2  UNL     1      19.737   0.675  50.611  1.00  0.00    -0.246 OA
HETATM   10  N5  UNL     1      21.024   1.584  49.024  1.00  0.00    -0.285 N 
HETATM   11  C17 UNL     1      19.685   2.221  49.054  1.00  0.00     0.104 C 
HETATM   12  C18 UNL     1      19.543   3.460  48.485  1.00  0.00     0.054 C 
HETATM   13  C19 UNL     1      20.641   4.424  48.128  1.00  0.00     0.070 C 
HETATM   14  C21 UNL     1      21.987   4.203  48.203  1.00  0.00     0.045 C 
HETATM   15  C22 UNL     1      22.579   2.825  48.422  1.00  0.00    -0.035 C 
HETATM   16  C23 UNL     1      22.068   1.626  47.959  1.00  0.00     0.108 C 
HETATM   17  C24 UNL     1      23.725   3.289  49.288  1.00  0.00     0.084 C 
ENDROOT
BRANCH   1  18
HETATM   18  N1  UNL     1      25.704   0.646  53.887  1.00  0.00    -0.219 N 
HETATM   19  H8  UNL     1      26.025   1.190  54.701  1.00  0.00     0.178 HD
BRANCH  18  20
HETATM   20  C6  UNL     1      25.807  -0.796  53.810  1.00  0.00     0.165 C 
BRANCH  20  21
HETATM   21  C5  UNL     1      26.668  -1.289  52.728  1.00  0.00    -0.006 C 
BRANCH  21  22
HETATM   22  C4  UNL     1      27.374  -2.410  52.700  1.00  0.00     0.005 C 
BRANCH  22  23
HETATM   23  C3  UNL     1      28.774  -2.372  52.973  1.00  0.00     0.050 C 
BRANCH  23  24
HETATM   24  C2  UNL     1      29.361  -1.255  53.310  1.00  0.00    -0.155 C 
HETATM   25  C1  UNL     1      30.171  -0.268  53.661  1.00  0.00     0.096 C 
ENDBRANCH  23  24
ENDBRANCH  22  23
ENDBRANCH  21  22
ENDBRANCH  20  21
ENDBRANCH  18  20
ENDBRANCH   1  18
BRANCH   7  26
HETATM   26  C11 UNL     1      21.561   0.074  52.349  1.00  0.00     0.099 C 
HETATM   27  C12 UNL     1      21.074   1.001  53.482  1.00  0.00     0.028 C 
HETATM   28  C13 UNL     1      20.999   0.044  54.687  1.00  0.00     0.034 C 
HETATM   29  C14 UNL     1      22.198  -0.849  54.487  1.00  0.00     0.120 C 
HETATM   30  C15 UNL     1      22.281  -0.942  53.018  1.00  0.00     0.057 C 
BRANCH  29  31
HETATM   31  O1  UNL     1      22.035  -2.078  55.134  1.00  0.00    -0.396 OA
HETATM   32  H16 UNL     1      22.880  -2.225  55.646  1.00  0.00     0.210 HD
ENDBRANCH  29  31
ENDBRANCH   7  26
BRANCH  13  33
HETATM   33  O3  UNL     1      20.173   5.627  47.688  1.00  0.00    -0.356 OA
HETATM   34  C20 UNL     1      18.806   5.942  47.937  1.00  0.00     0.210 C 
ENDBRANCH  13  33
TORSDOF 9
ENDMDL
MODEL 7
REMARK VINA RESULT:      -7.5      3.369      8.105
REMARK  9 active torsions:
REMARK  status: ('A' for Active; 'I' for Inactive)
REMARK    1  A    between atoms: C2_2  and  C3_3 
REMARK    2  A    between atoms: C3_3  and  C4_4 
REMARK    3  A    between atoms: C4_4  and  C5_5 
REMARK    4  A    between atoms: C5_5  and  C6_6 
REMARK    5  A    between atoms: C6_6  and  N1_7 
REMARK    6  A    between atoms: N1_7  and  C7_8 
REMARK    7  A    between atoms: N4_14  and  C11_15 
REMARK    8  A    between atoms: C14_18  and  O1_19 
REMARK    9  A    between atoms: C19_26  and  O3_27 
ROOT
HETATM    1  C7  UNL     1      21.675   4.024  52.071  1.00  0.00     0.724 A 
HETATM    2  N2  UNL     1      20.760   4.713  51.375  1.00  0.00    -0.075 NA
HETATM    3  C8  UNL     1      19.567   4.178  51.079  1.00  0.00     0.147 A 
HETATM    4  C9  UNL     1      19.161   2.907  51.442  1.00  0.00     0.011 A 
HETATM    5  C10 UNL     1      20.186   2.262  52.167  1.00  0.00     0.161 A 
HETATM    6  N3  UNL     1      21.395   2.751  52.489  1.00  0.00    -0.044 NA
HETATM    7  N4  UNL     1      20.284   0.964  52.768  1.00  0.00    -0.277 N 
HETATM    8  C16 UNL     1      19.357  -0.165  52.741  1.00  0.00     0.334 C 
HETATM    9  O2  UNL     1      19.412  -1.153  53.500  1.00  0.00    -0.246 OA
HETATM   10  N5  UNL     1      18.208  -0.305  51.817  1.00  0.00    -0.285 N 
HETATM   11  C17 UNL     1      17.333  -0.955  52.823  1.00  0.00     0.104 C 
HETATM   12  C18 UNL     1      16.007  -0.612  52.849  1.00  0.00     0.054 C 
HETATM   13  C19 UNL     1      15.370   0.594  52.215  1.00  0.00     0.070 C 
HETATM   14  C21 UNL     1      15.976   1.514  51.406  1.00  0.00     0.045 C 
HETATM   15  C22 UNL     1      17.353   1.300  50.811  1.00  0.00    -0.035 C 
HETATM   16  C23 UNL     1      17.899   0.093  50.412  1.00  0.00     0.108 C 
HETATM   17  C24 UNL     1      17.788   2.741  50.915  1.00  0.00     0.084 C 
ENDROOT
BRANCH   1  18
HETATM   18  N1  UNL     1      22.940   4.563  52.396  1.00  0.00    -0.219 N 
HETATM   19  H8  UNL     1      23.217   4.771  53.367  1.00  0.00     0.178 HD
BRANCH  18  20
HETATM   20  C6  UNL     1      23.807   4.797  51.260  1.00  0.00     0.165 C 
BRANCH  20  21
HETATM   21  C5  UNL     1      24.384   3.582  50.674  1.00  0.00    -0.006 C 
BRANCH  21  22
HETATM   22  C4  UNL     1      24.222   3.120  49.442  1.00  0.00     0.005 C 
BRANCH  22  23
HETATM   23  C3  UNL     1      22.938   3.187  48.823  1.00  0.00     0.050 C 
BRANCH  23  24
HETATM   24  C2  UNL     1      22.144   2.149  48.812  1.00  0.00    -0.155 C 
HETATM   25  C1  UNL     1      21.449   1.043  49.028  1.00  0.00     0.096 C 
ENDBRANCH  23  24
ENDBRANCH  22  23
ENDBRANCH  21  22
ENDBRANCH  20  21
ENDBRANCH  18  20
ENDBRANCH   1  18
BRANCH   7  26
HETATM   26  C11 UNL     1      21.357   0.557  53.538  1.00  0.00     0.099 C 
HETATM   27  C12 UNL     1      22.289  -0.218  52.584  1.00  0.00     0.028 C 
HETATM   28  C13 UNL     1      23.201  -0.985  53.560  1.00  0.00     0.034 C 
HETATM   29  C14 UNL     1      22.259  -1.373  54.672  1.00  0.00     0.120 C 
HETATM   30  C15 UNL     1      21.330  -0.230  54.712  1.00  0.00     0.057 C 
BRANCH  29  31
HETATM   31  O1  UNL     1      22.946  -1.599  55.870  1.00  0.00    -0.396 OA
HETATM   32  H16 UNL     1      23.268  -2.543  55.820  1.00  0.00     0.210 HD
ENDBRANCH  29  31
ENDBRANCH   7  26
BRANCH  13  33
HETATM   33  O3  UNL     1      14.048   0.723  52.520  1.00  0.00    -0.356 OA
HETATM   34  C20 UNL     1      13.632   1.905  53.197  1.00  0.00     0.210 C 
ENDBRANCH  13  33
TORSDOF 9
ENDMDL
MODEL 8
REMARK VINA RESULT:      -7.4      2.700      5.167
REMARK  9 active torsions:
REMARK  status: ('A' for Active; 'I' for Inactive)
REMARK    1  A    between atoms: C2_2  and  C3_3 
REMARK    2  A    between atoms: C3_3  and  C4_4 
REMARK    3  A    between atoms: C4_4  and  C5_5 
REMARK    4  A    between atoms: C5_5  and  C6_6 
REMARK    5  A    between atoms: C6_6  and  N1_7 
REMARK    6  A    between atoms: N1_7  and  C7_8 
REMARK    7  A    between atoms: N4_14  and  C11_15 
REMARK    8  A    between atoms: C14_18  and  O1_19 
REMARK    9  A    between atoms: C19_26  and  O3_27 
ROOT
HETATM    1  C7  UNL     1      23.782   4.087  48.971  1.00  0.00     0.724 A 
HETATM    2  N2  UNL     1      25.096   4.350  48.944  1.00  0.00    -0.075 NA
HETATM    3  C8  UNL     1      25.939   3.763  49.805  1.00  0.00     0.147 A 
HETATM    4  C9  UNL     1      25.566   2.857  50.780  1.00  0.00     0.011 A 
HETATM    5  C10 UNL     1      24.171   2.644  50.731  1.00  0.00     0.161 A 
HETATM    6  N3  UNL     1      23.284   3.205  49.893  1.00  0.00    -0.044 NA
HETATM    7  N4  UNL     1      23.286   1.817  51.499  1.00  0.00    -0.277 N 
HETATM    8  C16 UNL     1      23.547   0.976  52.664  1.00  0.00     0.334 C 
HETATM    9  O2  UNL     1      22.773   0.101  53.102  1.00  0.00    -0.246 OA
HETATM   10  N5  UNL     1      24.771   1.027  53.498  1.00  0.00    -0.285 N 
HETATM   11  C17 UNL     1      24.805  -0.437  53.736  1.00  0.00     0.104 C 
HETATM   12  C18 UNL     1      26.022  -1.067  53.731  1.00  0.00     0.054 C 
HETATM   13  C19 UNL     1      27.315  -0.536  53.177  1.00  0.00     0.070 C 
HETATM   14  C21 UNL     1      27.542   0.714  52.674  1.00  0.00     0.045 C 
HETATM   15  C22 UNL     1      26.561   1.856  52.844  1.00  0.00    -0.035 C 
HETATM   16  C23 UNL     1      25.736   2.078  53.932  1.00  0.00     0.108 C 
HETATM   17  C24 UNL     1      26.807   2.470  51.487  1.00  0.00     0.084 C 
ENDROOT
BRANCH   1  18
HETATM   18  N1  UNL     1      22.872   4.691  48.076  1.00  0.00    -0.219 N 
HETATM   19  H8  UNL     1      23.182   5.194  47.232  1.00  0.00     0.178 HD
BRANCH  18  20
HETATM   20  C6  UNL     1      21.479   4.546  48.442  1.00  0.00     0.165 C 
BRANCH  20  21
HETATM   21  C5  UNL     1      20.872   5.750  49.021  1.00  0.00    -0.006 C 
BRANCH  21  22
HETATM   22  C4  UNL     1      20.862   6.122  50.294  1.00  0.00     0.005 C 
BRANCH  22  23
HETATM   23  C3  UNL     1      21.625   7.254  50.707  1.00  0.00     0.050 C 
BRANCH  23  24
HETATM   24  C2  UNL     1      22.930   7.204  50.749  1.00  0.00    -0.155 C 
HETATM   25  C1  UNL     1      24.220   7.174  51.047  1.00  0.00     0.096 C 
ENDBRANCH  23  24
ENDBRANCH  22  23
ENDBRANCH  21  22
ENDBRANCH  20  21
ENDBRANCH  18  20
ENDBRANCH   1  18
BRANCH   7  26
HETATM   26  C11 UNL     1      21.941   1.670  51.217  1.00  0.00     0.099 C 
HETATM   27  C12 UNL     1      21.195   2.469  52.306  1.00  0.00     0.028 C 
HETATM   28  C13 UNL     1      19.759   1.921  52.195  1.00  0.00     0.034 C 
HETATM   29  C14 UNL     1      19.975   0.455  51.913  1.00  0.00     0.120 C 
HETATM   30  C15 UNL     1      21.207   0.468  51.105  1.00  0.00     0.057 C 
BRANCH  29  31
HETATM   31  O1  UNL     1      18.869  -0.111  51.270  1.00  0.00    -0.396 OA
HETATM   32  H16 UNL     1      19.207  -0.950  50.846  1.00  0.00     0.210 HD
ENDBRANCH  29  31
ENDBRANCH   7  26
BRANCH  13  33
HETATM   33  O3  UNL     1      28.326  -1.449  53.212  1.00  0.00    -0.356 OA
HETATM   34  C20 UNL     1      29.612  -1.005  53.634  1.00  0.00     0.210 C 
ENDBRANCH  13  33
TORSDOF 9
ENDMDL
MODEL 9
REMARK VINA RESULT:      -7.2      3.788      8.799
REMARK  9 active torsions:
REMARK  status: ('A' for Active; 'I' for Inactive)
REMARK    1  A    between atoms: C2_2  and  C3_3 
REMARK    2  A    between atoms: C3_3  and  C4_4 
REMARK    3  A    between atoms: C4_4  and  C5_5 
REMARK    4  A    between atoms: C5_5  and  C6_6 
REMARK    5  A    between atoms: C6_6  and  N1_7 
REMARK    6  A    between atoms: N1_7  and  C7_8 
REMARK    7  A    between atoms: N4_14  and  C11_15 
REMARK    8  A    between atoms: C14_18  and  O1_19 
REMARK    9  A    between atoms: C19_26  and  O3_27 
ROOT
HETATM    1  C7  UNL     1      26.160   4.779  49.437  1.00  0.00     0.724 A 
HETATM    2  N2  UNL     1      25.184   5.315  48.691  1.00  0.00    -0.075 NA
HETATM    3  C8  UNL     1      23.914   4.903  48.810  1.00  0.00     0.147 A 
HETATM    4  C9  UNL     1      23.483   3.919  49.679  1.00  0.00     0.011 A 
HETATM    5  C10 UNL     1      24.575   3.416  50.418  1.00  0.00     0.161 A 
HETATM    6  N3  UNL     1      25.862   3.792  50.338  1.00  0.00    -0.044 NA
HETATM    7  N4  UNL     1      24.682   2.411  51.435  1.00  0.00    -0.277 N 
HETATM    8  C16 UNL     1      23.675   1.503  51.979  1.00  0.00     0.334 C 
HETATM    9  O2  UNL     1      23.799   0.846  53.032  1.00  0.00    -0.246 OA
HETATM   10  N5  UNL     1      22.352   1.230  51.370  1.00  0.00    -0.285 N 
HETATM   11  C17 UNL     1      21.650   1.116  52.672  1.00  0.00     0.104 C 
HETATM   12  C18 UNL     1      20.392   1.649  52.779  1.00  0.00     0.054 C 
HETATM   13  C19 UNL     1      19.746   2.641  51.851  1.00  0.00     0.070 C 
HETATM   14  C21 UNL     1      20.250   3.114  50.673  1.00  0.00     0.045 C 
HETATM   15  C22 UNL     1      21.451   2.495  49.989  1.00  0.00    -0.035 C 
HETATM   16  C23 UNL     1      21.797   1.155  49.986  1.00  0.00     0.108 C 
HETATM   17  C24 UNL     1      22.021   3.795  49.477  1.00  0.00     0.084 C 
ENDROOT
BRANCH   1  18
HETATM   18  N1  UNL     1      27.506   5.194  49.332  1.00  0.00    -0.219 N 
HETATM   19  H8  UNL     1      28.255   4.783  49.908  1.00  0.00     0.178 HD
BRANCH  18  20
HETATM   20  C6  UNL     1      27.742   6.236  48.355  1.00  0.00     0.165 C 
BRANCH  20  21
HETATM   21  C5  UNL     1      29.106   6.268  47.816  1.00  0.00    -0.006 C 
BRANCH  21  22
HETATM   22  C4  UNL     1      30.167   5.603  48.252  1.00  0.00     0.005 C 
BRANCH  22  23
HETATM   23  C3  UNL     1      31.328   6.318  48.669  1.00  0.00     0.050 C 
BRANCH  23  24
HETATM   24  C2  UNL     1      31.263   7.589  48.967  1.00  0.00    -0.155 C 
HETATM   25  C1  UNL     1      31.320   8.807  49.485  1.00  0.00     0.096 C 
ENDBRANCH  23  24
ENDBRANCH  22  23
ENDBRANCH  21  22
ENDBRANCH  20  21
ENDBRANCH  18  20
ENDBRANCH   1  18
BRANCH   7  26
HETATM   26  C11 UNL     1      25.850   2.137  52.120  1.00  0.00     0.099 C 
HETATM   27  C12 UNL     1      26.289   0.733  51.656  1.00  0.00     0.028 C 
HETATM   28  C13 UNL     1      27.308   0.328  52.739  1.00  0.00     0.034 C 
HETATM   29  C14 UNL     1      26.703   0.889  54.002  1.00  0.00     0.120 C 
HETATM   30  C15 UNL     1      26.049   2.118  53.519  1.00  0.00     0.057 C 
BRANCH  29  31
HETATM   31  O1  UNL     1      27.675   1.102  54.985  1.00  0.00    -0.396 OA
HETATM   32  H16 UNL     1      27.633   2.077  55.197  1.00  0.00     0.210 HD
ENDBRANCH  29  31
ENDBRANCH   7  26
BRANCH  13  33
HETATM   33  O3  UNL     1      18.531   3.072  52.294  1.00  0.00    -0.356 OA
HETATM   34  C20 UNL     1      17.516   3.317  51.324  1.00  0.00     0.210 C 
ENDBRANCH  13  33
TORSDOF 9
ENDMDL
