MODEL 1
REMARK VINA RESULT:      -8.5      0.000      0.000
REMARK  2 active torsions:
REMARK  status: ('A' for Active; 'I' for Inactive)
REMARK    1  A    between atoms: C5_5  and  C6_6 
REMARK       I    between atoms: C6_6  and  N1_7 
REMARK    2  A    between atoms: C13_15  and  N2_16 
ROOT
HETATM    1  C1  UNL     1      21.434   0.907  54.200  1.00  0.00     0.044 C 
HETATM    2  C2  UNL     1      22.319   0.196  53.257  1.00  0.00    -0.078 C 
HETATM    3  C3  UNL     1      23.567  -0.082  53.546  1.00  0.00     0.003 C 
HETATM    4  C4  UNL     1      24.781  -0.677  53.126  1.00  0.00     0.013 C 
HETATM    5  C5  UNL     1      26.031  -0.893  53.484  1.00  0.00     0.013 C 
HETATM    6  C7  UNL     1      26.483  -0.322  54.754  1.00  0.00     0.079 C 
HETATM    7  C8  UNL     1      27.584   0.673  54.539  1.00  0.00    -0.065 A 
HETATM    8  C9  UNL     1      27.691   1.609  53.647  1.00  0.00    -0.051 A 
HETATM    9  C10 UNL     1      26.880   2.068  52.567  1.00  0.00     0.004 C 
HETATM   10  C11 UNL     1      26.278   2.885  51.734  1.00  0.00    -0.024 C 
HETATM   11  C12 UNL     1      25.371   2.461  50.598  1.00  0.00     0.064 C 
HETATM   12  C13 UNL     1      24.030   3.109  50.831  1.00  0.00     0.248 C 
HETATM   13  C14 UNL     1      23.032   2.577  49.814  1.00  0.00     0.174 A 
HETATM   14  N3  UNL     1      21.673   3.140  50.043  1.00  0.00    -0.277 N 
HETATM   15  N4  UNL     1      20.381   3.693  50.262  1.00  0.00    -0.169 NA
HETATM   16  C15 UNL     1      19.645   2.924  51.063  1.00  0.00     0.254 C 
HETATM   17  N5  UNL     1      20.225   1.741  51.495  1.00  0.00    -0.246 NA
HETATM   18  C16 UNL     1      21.350   1.192  51.246  1.00  0.00     0.049 C 
HETATM   19  C17 UNL     1      21.789  -0.119  51.879  1.00  0.00     0.091 C 
HETATM   20  C18 UNL     1      22.057   1.678  50.072  1.00  0.00     0.112 A 
HETATM   21  C19 UNL     1      21.545   0.930  48.744  1.00  0.00     0.049 C 
HETATM   22  C20 UNL     1      28.825   1.526  54.578  1.00  0.00     0.073 A 
ENDROOT
BRANCH   5  23
HETATM   23  C6  UNL     1      26.832  -1.636  52.526  1.00  0.00     0.245 C 
HETATM   24  N1  UNL     1      27.553  -2.794  52.919  1.00  0.00    -0.366 N 
HETATM   25  H6  UNL     1      28.467  -2.843  53.440  1.00  0.00     0.159 HD
HETATM   26  H7  UNL     1      27.455  -3.838  52.848  1.00  0.00     0.159 HD
HETATM   27  O1  UNL     1      26.795  -1.134  51.376  1.00  0.00    -0.268 OA
ENDBRANCH   5  23
BRANCH  12  28
HETATM   28  N2  UNL     1      23.572   2.858  52.155  1.00  0.00     0.085 N 
HETATM   29  H15 UNL     1      22.926   2.033  52.163  1.00  0.00     0.313 HD
HETATM   30  H16 UNL     1      23.047   3.713  52.488  1.00  0.00     0.313 HD
ENDBRANCH  12  28
TORSDOF 2
ENDMDL
MODEL 2
REMARK VINA RESULT:      -8.1      2.245      4.133
REMARK  2 active torsions:
REMARK  status: ('A' for Active; 'I' for Inactive)
REMARK    1  A    between atoms: C5_5  and  C6_6 
REMARK       I    between atoms: C6_6  and  N1_7 
REMARK    2  A    between atoms: C13_15  and  N2_16 
ROOT
HETATM    1  C1  UNL     1      22.584   2.188  48.076  1.00  0.00     0.044 C 
HETATM    2  C2  UNL     1      22.807   2.732  49.429  1.00  0.00    -0.078 C 
HETATM    3  C3  UNL     1      23.837   2.380  50.162  1.00  0.00     0.003 C 
HETATM    4  C4  UNL     1      24.533   2.530  51.384  1.00  0.00     0.013 C 
HETATM    5  C5  UNL     1      25.579   2.104  52.064  1.00  0.00     0.013 C 
HETATM    6  C7  UNL     1      26.391   1.042  51.466  1.00  0.00     0.079 C 
HETATM    7  C8  UNL     1      26.373  -0.196  52.313  1.00  0.00    -0.065 A 
HETATM    8  C9  UNL     1      25.377  -0.775  52.909  1.00  0.00    -0.051 A 
HETATM    9  C10 UNL     1      23.979  -0.515  53.017  1.00  0.00     0.004 C 
HETATM   10  C11 UNL     1      22.684  -0.724  53.072  1.00  0.00    -0.024 C 
HETATM   11  C12 UNL     1      21.632   0.353  53.235  1.00  0.00     0.064 C 
HETATM   12  C13 UNL     1      20.713   0.265  52.042  1.00  0.00     0.248 C 
HETATM   13  C14 UNL     1      19.743   1.436  52.069  1.00  0.00     0.174 A 
HETATM   14  N3  UNL     1      18.854   1.429  50.875  1.00  0.00    -0.277 N 
HETATM   15  N4  UNL     1      18.000   1.407  49.738  1.00  0.00    -0.169 NA
HETATM   16  C15 UNL     1      18.500   2.125  48.733  1.00  0.00     0.254 C 
HETATM   17  N5  UNL     1      19.698   2.780  48.971  1.00  0.00    -0.246 NA
HETATM   18  C16 UNL     1      20.437   2.875  50.008  1.00  0.00     0.049 C 
HETATM   19  C17 UNL     1      21.753   3.636  50.021  1.00  0.00     0.091 C 
HETATM   20  C18 UNL     1      19.813   2.527  51.275  1.00  0.00     0.112 A 
HETATM   21  C19 UNL     1      19.017   3.782  51.886  1.00  0.00     0.049 C 
HETATM   22  C20 UNL     1      26.671  -1.444  53.100  1.00  0.00     0.073 A 
ENDROOT
BRANCH   5  23
HETATM   23  C6  UNL     1      25.762   2.712  53.371  1.00  0.00     0.245 C 
HETATM   24  N1  UNL     1      27.028   2.698  54.013  1.00  0.00    -0.366 N 
HETATM   25  H6  UNL     1      27.486   1.901  54.526  1.00  0.00     0.159 HD
HETATM   26  H7  UNL     1      27.828   3.359  54.178  1.00  0.00     0.159 HD
HETATM   27  O1  UNL     1      24.703   3.218  53.818  1.00  0.00    -0.268 OA
ENDBRANCH   5  23
BRANCH  12  28
HETATM   28  N2  UNL     1      21.459   0.263  50.831  1.00  0.00     0.085 N 
HETATM   29  H15 UNL     1      22.247  -0.425  50.893  1.00  0.00     0.313 HD
HETATM   30  H16 UNL     1      21.854   1.232  50.688  1.00  0.00     0.313 HD
ENDBRANCH  12  28
TORSDOF 2
ENDMDL
MODEL 3
REMARK VINA RESULT:      -8.1      2.667      7.025
REMARK  2 active torsions:
REMARK  status: ('A' for Active; 'I' for Inactive)
REMARK    1  A    between atoms: C5_5  and  C6_6 
REMARK       I    between atoms: C6_6  and  N1_7 
REMARK    2  A    between atoms: C13_15  and  N2_16 
ROOT
HETATM    1  C1  UNL     1      26.829   4.479  49.808  1.00  0.00     0.044 C 
HETATM    2  C2  UNL     1      25.851   3.399  49.572  1.00  0.00    -0.078 C 
HETATM    3  C3  UNL     1      24.649   3.636  49.103  1.00  0.00     0.003 C 
HETATM    4  C4  UNL     1      23.404   3.100  48.698  1.00  0.00     0.013 C 
HETATM    5  C5  UNL     1      22.207   3.427  48.250  1.00  0.00     0.013 C 
HETATM    6  C7  UNL     1      21.899   4.852  48.115  1.00  0.00     0.079 C 
HETATM    7  C8  UNL     1      20.765   5.248  49.012  1.00  0.00    -0.065 A 
HETATM    8  C9  UNL     1      20.540   4.932  50.250  1.00  0.00    -0.051 A 
HETATM    9  C10 UNL     1      21.212   4.135  51.223  1.00  0.00     0.004 C 
HETATM   10  C11 UNL     1      21.699   3.745  52.378  1.00  0.00    -0.024 C 
HETATM   11  C12 UNL     1      22.473   2.464  52.611  1.00  0.00     0.064 C 
HETATM   12  C13 UNL     1      23.823   2.851  53.162  1.00  0.00     0.248 C 
HETATM   13  C14 UNL     1      24.702   1.613  53.250  1.00  0.00     0.174 A 
HETATM   14  N3  UNL     1      26.069   1.954  53.729  1.00  0.00    -0.277 N 
HETATM   15  N4  UNL     1      27.370   2.287  54.200  1.00  0.00    -0.169 NA
HETATM   16  C15 UNL     1      28.206   2.544  53.195  1.00  0.00     0.254 C 
HETATM   17  N5  UNL     1      27.700   2.407  51.912  1.00  0.00    -0.246 NA
HETATM   18  C16 UNL     1      26.561   2.034  51.471  1.00  0.00     0.049 C 
HETATM   19  C17 UNL     1      26.219   1.996  49.990  1.00  0.00     0.091 C 
HETATM   20  C18 UNL     1      25.714   1.313  52.407  1.00  0.00     0.112 A 
HETATM   21  C19 UNL     1      26.078  -0.254  52.420  1.00  0.00     0.049 C 
HETATM   22  C20 UNL     1      19.525   5.812  49.654  1.00  0.00     0.073 A 
ENDROOT
BRANCH   5  23
HETATM   23  C6  UNL     1      21.311   2.311  48.000  1.00  0.00     0.245 C 
HETATM   24  N1  UNL     1      20.001   2.526  47.496  1.00  0.00    -0.366 N 
HETATM   25  H6  UNL     1      19.149   2.851  48.024  1.00  0.00     0.159 HD
HETATM   26  H7  UNL     1      19.495   2.454  46.579  1.00  0.00     0.159 HD
HETATM   27  O1  UNL     1      21.833   1.204  48.277  1.00  0.00    -0.268 OA
ENDBRANCH   5  23
BRANCH  12  28
HETATM   28  N2  UNL     1      24.436   3.840  52.343  1.00  0.00     0.085 N 
HETATM   29  H15 UNL     1      24.601   3.460  51.381  1.00  0.00     0.313 HD
HETATM   30  H16 UNL     1      25.364   4.097  52.779  1.00  0.00     0.313 HD
ENDBRANCH  12  28
TORSDOF 2
ENDMDL
MODEL 4
REMARK VINA RESULT:      -7.9      4.352      6.596
REMARK  2 active torsions:
REMARK  status: ('A' for Active; 'I' for Inactive)
REMARK    1  A    between atoms: C5_5  and  C6_6 
REMARK       I    between atoms: C6_6  and  N1_7 
REMARK    2  A    between atoms: C13_15  and  N2_16 
ROOT
HETATM    1  C1  UNL     1      21.926   5.366  46.325  1.00  0.00     0.044 C 
HETATM    2  C2  UNL     1      22.382   5.939  47.606  1.00  0.00    -0.078 C 
HETATM    3  C3  UNL     1      23.604   6.385  47.775  1.00  0.00     0.003 C 
HETATM    4  C4  UNL     1      24.540   6.985  48.651  1.00  0.00     0.013 C 
HETATM    5  C5  UNL     1      25.792   7.387  48.745  1.00  0.00     0.013 C 
HETATM    6  C7  UNL     1      26.672   7.141  47.601  1.00  0.00     0.079 C 
HETATM    7  C8  UNL     1      27.802   6.228  47.974  1.00  0.00    -0.065 A 
HETATM    8  C9  UNL     1      27.788   5.139  48.677  1.00  0.00    -0.051 A 
HETATM    9  C10 UNL     1      26.779   4.389  49.352  1.00  0.00     0.004 C 
HETATM   10  C11 UNL     1      26.094   3.362  49.799  1.00  0.00    -0.024 C 
HETATM   11  C12 UNL     1      24.844   3.451  50.650  1.00  0.00     0.064 C 
HETATM   12  C13 UNL     1      23.742   2.747  49.900  1.00  0.00     0.248 C 
HETATM   13  C14 UNL     1      22.424   2.958  50.630  1.00  0.00     0.174 A 
HETATM   14  N3  UNL     1      21.291   2.334  49.893  1.00  0.00    -0.277 N 
HETATM   15  N4  UNL     1      20.216   1.724  49.188  1.00  0.00    -0.169 NA
HETATM   16  C15 UNL     1      19.635   2.575  48.344  1.00  0.00     0.254 C 
HETATM   17  N5  UNL     1      20.129   3.870  48.328  1.00  0.00    -0.246 NA
HETATM   18  C16 UNL     1      21.037   4.455  49.008  1.00  0.00     0.049 C 
HETATM   19  C17 UNL     1      21.437   5.905  48.782  1.00  0.00     0.091 C 
HETATM   20  C18 UNL     1      21.441   3.798  50.240  1.00  0.00     0.112 A 
HETATM   21  C19 UNL     1      20.460   4.197  51.450  1.00  0.00     0.049 C 
HETATM   22  C20 UNL     1      29.116   5.520  48.177  1.00  0.00     0.073 A 
ENDROOT
BRANCH   5  23
HETATM   23  C6  UNL     1      26.160   7.980  50.020  1.00  0.00     0.245 C 
HETATM   24  N1  UNL     1      25.855   7.329  51.244  1.00  0.00    -0.366 N 
HETATM   25  H6  UNL     1      24.928   7.288  51.742  1.00  0.00     0.159 HD
HETATM   26  H7  UNL     1      26.352   6.753  51.968  1.00  0.00     0.159 HD
HETATM   27  O1  UNL     1      26.748   9.080  49.885  1.00  0.00    -0.268 OA
ENDBRANCH   5  23
BRANCH  12  28
HETATM   28  N2  UNL     1      23.653   3.229  48.564  1.00  0.00     0.085 N 
HETATM   29  H15 UNL     1      22.719   2.988  48.155  1.00  0.00     0.313 HD
HETATM   30  H16 UNL     1      24.412   2.763  47.996  1.00  0.00     0.313 HD
ENDBRANCH  12  28
TORSDOF 2
ENDMDL
MODEL 5
REMARK VINA RESULT:      -7.8      2.638      4.920
REMARK  2 active torsions:
REMARK  status: ('A' for Active; 'I' for Inactive)
REMARK    1  A    between atoms: C5_5  and  C6_6 
REMARK       I    between atoms: C6_6  and  N1_7 
REMARK    2  A    between atoms: C13_15  and  N2_16 
ROOT
HETATM    1  C1  UNL     1      22.647   2.122  47.525  1.00  0.00     0.044 C 
HETATM    2  C2  UNL     1      23.017   2.924  48.707  1.00  0.00    -0.078 C 
HETATM    3  C3  UNL     1      23.522   2.381  49.789  1.00  0.00     0.003 C 
HETATM    4  C4  UNL     1      24.028   2.582  51.095  1.00  0.00     0.013 C 
HETATM    5  C5  UNL     1      24.504   1.955  52.153  1.00  0.00     0.013 C 
HETATM    6  C7  UNL     1      24.536   0.492  52.117  1.00  0.00     0.079 C 
HETATM    7  C8  UNL     1      23.664  -0.096  53.186  1.00  0.00    -0.065 A 
HETATM    8  C9  UNL     1      22.469   0.244  53.558  1.00  0.00    -0.051 A 
HETATM    9  C10 UNL     1      21.534   1.242  53.151  1.00  0.00     0.004 C 
HETATM   10  C11 UNL     1      20.393   1.813  52.843  1.00  0.00    -0.024 C 
HETATM   11  C12 UNL     1      20.230   3.252  52.400  1.00  0.00     0.064 C 
HETATM   12  C13 UNL     1      19.586   3.230  51.037  1.00  0.00     0.248 C 
HETATM   13  C14 UNL     1      19.558   4.642  50.472  1.00  0.00     0.174 A 
HETATM   14  N3  UNL     1      18.989   4.664  49.097  1.00  0.00    -0.277 N 
HETATM   15  N4  UNL     1      18.430   4.677  47.788  1.00  0.00    -0.169 NA
HETATM   16  C15 UNL     1      19.370   4.553  46.852  1.00  0.00     0.254 C 
HETATM   17  N5  UNL     1      20.682   4.479  47.291  1.00  0.00    -0.246 NA
HETATM   18  C16 UNL     1      21.206   4.545  48.454  1.00  0.00     0.049 C 
HETATM   19  C17 UNL     1      22.700   4.399  48.698  1.00  0.00     0.091 C 
HETATM   20  C18 UNL     1      20.374   5.112  49.503  1.00  0.00     0.112 A 
HETATM   21  C19 UNL     1      20.472   6.717  49.509  1.00  0.00     0.049 C 
HETATM   22  C20 UNL     1      23.038  -0.888  54.303  1.00  0.00     0.073 A 
ENDROOT
BRANCH   5  23
HETATM   23  C6  UNL     1      24.888   2.810  53.263  1.00  0.00     0.245 C 
HETATM   24  N1  UNL     1      26.073   2.558  54.003  1.00  0.00    -0.366 N 
HETATM   25  H6  UNL     1      26.228   1.833  54.751  1.00  0.00     0.159 HD
HETATM   26  H7  UNL     1      27.052   2.935  54.063  1.00  0.00     0.159 HD
HETATM   27  O1  UNL     1      24.070   3.742  53.457  1.00  0.00    -0.268 OA
ENDBRANCH   5  23
BRANCH  12  28
HETATM   28  N2  UNL     1      20.290   2.357  50.161  1.00  0.00     0.085 N 
HETATM   29  H15 UNL     1      19.613   1.799  49.587  1.00  0.00     0.313 HD
HETATM   30  H16 UNL     1      20.871   1.700  50.750  1.00  0.00     0.313 HD
ENDBRANCH  12  28
TORSDOF 2
ENDMDL
MODEL 6
REMARK VINA RESULT:      -7.6      5.649      7.638
REMARK  2 active torsions:
REMARK  status: ('A' for Active; 'I' for Inactive)
REMARK    1  A    between atoms: C5_5  and  C6_6 
REMARK       I    between atoms: C6_6  and  N1_7 
REMARK    2  A    between atoms: C13_15  and  N2_16 
ROOT
HETATM    1  C1  UNL     1      26.541   3.541  50.448  1.00  0.00     0.044 C 
HETATM    2  C2  UNL     1      26.308   4.423  49.287  1.00  0.00    -0.078 C 
HETATM    3  C3  UNL     1      27.223   5.254  48.848  1.00  0.00     0.003 C 
HETATM    4  C4  UNL     1      27.576   6.237  47.893  1.00  0.00     0.013 C 
HETATM    5  C5  UNL     1      28.539   7.062  47.533  1.00  0.00     0.013 C 
HETATM    6  C7  UNL     1      29.736   7.119  48.374  1.00  0.00     0.079 C 
HETATM    7  C8  UNL     1      29.915   8.483  48.970  1.00  0.00    -0.065 A 
HETATM    8  C9  UNL     1      29.039   9.271  49.511  1.00  0.00    -0.051 A 
HETATM    9  C10 UNL     1      27.636   9.197  49.759  1.00  0.00     0.004 C 
HETATM   10  C11 UNL     1      26.481   9.324  50.369  1.00  0.00    -0.024 C 
HETATM   11  C12 UNL     1      25.145   8.882  49.809  1.00  0.00     0.064 C 
HETATM   12  C13 UNL     1      24.560   7.888  50.780  1.00  0.00     0.248 C 
HETATM   13  C14 UNL     1      23.300   7.283  50.180  1.00  0.00     0.174 A 
HETATM   14  N3  UNL     1      22.719   6.246  51.076  1.00  0.00    -0.277 N 
HETATM   15  N4  UNL     1      22.162   5.266  51.945  1.00  0.00    -0.169 NA
HETATM   16  C15 UNL     1      22.620   4.046  51.666  1.00  0.00     0.254 C 
HETATM   17  N5  UNL     1      23.491   3.937  50.594  1.00  0.00    -0.246 NA
HETATM   18  C16 UNL     1      23.938   4.791  49.756  1.00  0.00     0.049 C 
HETATM   19  C17 UNL     1      24.934   4.437  48.664  1.00  0.00     0.091 C 
HETATM   20  C18 UNL     1      23.202   6.041  49.659  1.00  0.00     0.112 A 
HETATM   21  C19 UNL     1      21.958   5.896  48.650  1.00  0.00     0.049 C 
HETATM   22  C20 UNL     1      30.406   9.809  49.488  1.00  0.00     0.073 A 
ENDROOT
BRANCH   5  23
HETATM   23  C6  UNL     1      28.258   7.869  46.357  1.00  0.00     0.245 C 
HETATM   24  N1  UNL     1      29.258   8.102  45.376  1.00  0.00    -0.366 N 
HETATM   25  H6  UNL     1      30.063   8.780  45.420  1.00  0.00     0.159 HD
HETATM   26  H7  UNL     1      29.514   7.747  44.421  1.00  0.00     0.159 HD
HETATM   27  O1  UNL     1      27.080   8.300  46.340  1.00  0.00    -0.268 OA
ENDBRANCH   5  23
BRANCH  12  28
HETATM   28  N2  UNL     1      25.504   6.869  51.088  1.00  0.00     0.085 N 
HETATM   29  H15 UNL     1      25.751   6.334  50.221  1.00  0.00     0.313 HD
HETATM   30  H16 UNL     1      25.061   6.212  51.786  1.00  0.00     0.313 HD
ENDBRANCH  12  28
TORSDOF 2
ENDMDL
MODEL 7
REMARK VINA RESULT:      -7.5      9.792     12.073
REMARK  2 active torsions:
REMARK  status: ('A' for Active; 'I' for Inactive)
REMARK    1  A    between atoms: C5_5  and  C6_6 
REMARK       I    between atoms: C6_6  and  N1_7 
REMARK    2  A    between atoms: C13_15  and  N2_16 
ROOT
HETATM    1  C1  UNL     1      32.394   9.227  44.009  1.00  0.00     0.044 C 
HETATM    2  C2  UNL     1      32.899   8.937  45.364  1.00  0.00    -0.078 C 
HETATM    3  C3  UNL     1      33.337   7.749  45.706  1.00  0.00     0.003 C 
HETATM    4  C4  UNL     1      33.891   6.932  46.721  1.00  0.00     0.013 C 
HETATM    5  C5  UNL     1      34.288   5.704  46.990  1.00  0.00     0.013 C 
HETATM    6  C7  UNL     1      34.105   4.688  45.951  1.00  0.00     0.079 C 
HETATM    7  C8  UNL     1      33.175   3.605  46.411  1.00  0.00    -0.065 A 
HETATM    8  C9  UNL     1      32.049   3.697  47.049  1.00  0.00    -0.051 A 
HETATM    9  C10 UNL     1      31.263   4.775  47.554  1.00  0.00     0.004 C 
HETATM   10  C11 UNL     1      30.213   5.502  47.858  1.00  0.00    -0.024 C 
HETATM   11  C12 UNL     1      30.255   6.848  48.552  1.00  0.00     0.064 C 
HETATM   12  C13 UNL     1      29.591   7.844  47.636  1.00  0.00     0.248 C 
HETATM   13  C14 UNL     1      29.761   9.243  48.209  1.00  0.00     0.174 A 
HETATM   14  N3  UNL     1      29.176  10.272  47.306  1.00  0.00    -0.277 N 
HETATM   15  N4  UNL     1      28.603  11.247  46.444  1.00  0.00    -0.169 NA
HETATM   16  C15 UNL     1      29.497  11.727  45.580  1.00  0.00     0.254 C 
HETATM   17  N5  UNL     1      30.792  11.245  45.693  1.00  0.00    -0.246 NA
HETATM   18  C16 UNL     1      31.341  10.432  46.510  1.00  0.00     0.049 C 
HETATM   19  C17 UNL     1      32.801  10.019  46.412  1.00  0.00     0.091 C 
HETATM   20  C18 UNL     1      30.619  10.177  47.746  1.00  0.00     0.112 A 
HETATM   21  C19 UNL     1      30.952  11.303  48.846  1.00  0.00     0.049 C 
HETATM   22  C20 UNL     1      32.458   2.321  46.737  1.00  0.00     0.073 A 
ENDROOT
BRANCH   5  23
HETATM   23  C6  UNL     1      34.813   5.499  48.329  1.00  0.00     0.245 C 
HETATM   24  N1  UNL     1      35.105   4.195  48.808  1.00  0.00    -0.366 N 
HETATM   25  H6  UNL     1      34.430   3.469  49.163  1.00  0.00     0.159 HD
HETATM   26  H7  UNL     1      35.949   3.588  48.955  1.00  0.00     0.159 HD
HETATM   27  O1  UNL     1      34.958   6.576  48.957  1.00  0.00    -0.268 OA
ENDBRANCH   5  23
BRANCH  12  28
HETATM   28  N2  UNL     1      30.144   7.772  46.327  1.00  0.00     0.085 N 
HETATM   29  H15 UNL     1      30.388   6.780  46.093  1.00  0.00     0.313 HD
HETATM   30  H16 UNL     1      31.022   8.359  46.309  1.00  0.00     0.313 HD
ENDBRANCH  12  28
TORSDOF 2
ENDMDL
MODEL 8
REMARK VINA RESULT:      -7.3      5.789      7.954
REMARK  2 active torsions:
REMARK  status: ('A' for Active; 'I' for Inactive)
REMARK    1  A    between atoms: C5_5  and  C6_6 
REMARK       I    between atoms: C6_6  and  N1_7 
REMARK    2  A    between atoms: C13_15  and  N2_16 
ROOT
HETATM    1  C1  UNL     1      23.079   7.811  45.476  1.00  0.00     0.044 C 
HETATM    2  C2  UNL     1      23.613   8.262  46.775  1.00  0.00    -0.078 C 
HETATM    3  C3  UNL     1      24.892   8.214  47.059  1.00  0.00     0.003 C 
HETATM    4  C4  UNL     1      25.911   8.472  48.006  1.00  0.00     0.013 C 
HETATM    5  C5  UNL     1      27.208   8.364  48.221  1.00  0.00     0.013 C 
HETATM    6  C7  UNL     1      28.014   7.709  47.190  1.00  0.00     0.079 C 
HETATM    7  C8  UNL     1      28.660   6.462  47.718  1.00  0.00    -0.065 A 
HETATM    8  C9  UNL     1      28.160   5.522  48.458  1.00  0.00    -0.051 A 
HETATM    9  C10 UNL     1      26.884   5.276  49.048  1.00  0.00     0.004 C 
HETATM   10  C11 UNL     1      25.816   4.632  49.458  1.00  0.00    -0.024 C 
HETATM   11  C12 UNL     1      24.634   5.263  50.163  1.00  0.00     0.064 C 
HETATM   12  C13 UNL     1      23.412   4.983  49.326  1.00  0.00     0.248 C 
HETATM   13  C14 UNL     1      22.226   5.744  49.901  1.00  0.00     0.174 A 
HETATM   14  N3  UNL     1      21.006   5.551  49.070  1.00  0.00    -0.277 N 
HETATM   15  N4  UNL     1      19.842   5.350  48.277  1.00  0.00    -0.169 NA
HETATM   16  C15 UNL     1      19.715   6.290  47.342  1.00  0.00     0.254 C 
HETATM   17  N5  UNL     1      20.676   7.288  47.328  1.00  0.00    -0.246 NA
HETATM   18  C16 UNL     1      21.680   7.528  48.079  1.00  0.00     0.049 C 
HETATM   19  C17 UNL     1      22.634   8.688  47.842  1.00  0.00     0.091 C 
HETATM   20  C18 UNL     1      21.688   6.865  49.374  1.00  0.00     0.112 A 
HETATM   21  C19 UNL     1      20.844   7.706  50.453  1.00  0.00     0.049 C 
HETATM   22  C20 UNL     1      29.568   5.320  48.090  1.00  0.00     0.073 A 
ENDROOT
BRANCH   5  23
HETATM   23  C6  UNL     1      27.670   8.867  49.503  1.00  0.00     0.245 C 
HETATM   24  N1  UNL     1      26.976   8.557  50.702  1.00  0.00    -0.366 N 
HETATM   25  H6  UNL     1      26.086   8.985  51.065  1.00  0.00     0.159 HD
HETATM   26  H7  UNL     1      27.080   7.903  51.518  1.00  0.00     0.159 HD
HETATM   27  O1  UNL     1      28.704   9.571  49.398  1.00  0.00    -0.268 OA
ENDBRANCH   5  23
BRANCH  12  28
HETATM   28  N2  UNL     1      23.633   5.356  47.971  1.00  0.00     0.085 N 
HETATM   29  H15 UNL     1      24.585   5.046  47.662  1.00  0.00     0.313 HD
HETATM   30  H16 UNL     1      23.574   6.409  47.907  1.00  0.00     0.313 HD
ENDBRANCH  12  28
TORSDOF 2
ENDMDL
MODEL 9
REMARK VINA RESULT:      -7.2     10.104     12.759
REMARK  2 active torsions:
REMARK  status: ('A' for Active; 'I' for Inactive)
REMARK    1  A    between atoms: C5_5  and  C6_6 
REMARK       I    between atoms: C6_6  and  N1_7 
REMARK    2  A    between atoms: C13_15  and  N2_16 
ROOT
HETATM    1  C1  UNL     1      34.340   7.300  44.476  1.00  0.00     0.044 C 
HETATM    2  C2  UNL     1      32.919   7.065  44.793  1.00  0.00    -0.078 C 
HETATM    3  C3  UNL     1      32.128   8.026  45.207  1.00  0.00     0.003 C 
HETATM    4  C4  UNL     1      30.826   8.401  45.617  1.00  0.00     0.013 C 
HETATM    5  C5  UNL     1      30.107   9.416  46.053  1.00  0.00     0.013 C 
HETATM    6  C7  UNL     1      30.797  10.686  46.289  1.00  0.00     0.079 C 
HETATM    7  C8  UNL     1      30.724  11.082  47.734  1.00  0.00    -0.065 A 
HETATM    8  C9  UNL     1      30.891  10.360  48.799  1.00  0.00    -0.051 A 
HETATM    9  C10 UNL     1      31.192   8.988  49.048  1.00  0.00     0.004 C 
HETATM   10  C11 UNL     1      31.722   7.919  49.596  1.00  0.00    -0.024 C 
HETATM   11  C12 UNL     1      31.459   6.493  49.159  1.00  0.00     0.064 C 
HETATM   12  C13 UNL     1      32.788   5.889  48.780  1.00  0.00     0.248 C 
HETATM   13  C14 UNL     1      32.558   4.515  48.170  1.00  0.00     0.174 A 
HETATM   14  N3  UNL     1      33.838   3.903  47.720  1.00  0.00    -0.277 N 
HETATM   15  N4  UNL     1      35.068   3.319  47.305  1.00  0.00    -0.169 NA
HETATM   16  C15 UNL     1      35.341   3.600  46.031  1.00  0.00     0.254 C 
HETATM   17  N5  UNL     1      34.398   4.347  45.343  1.00  0.00    -0.246 NA
HETATM   18  C16 UNL     1      33.255   4.810  45.675  1.00  0.00     0.049 C 
HETATM   19  C17 UNL     1      32.399   5.649  44.740  1.00  0.00     0.091 C 
HETATM   20  C18 UNL     1      32.641   4.222  46.854  1.00  0.00     0.112 A 
HETATM   21  C19 UNL     1      31.842   2.879  46.474  1.00  0.00     0.049 C 
HETATM   22  C20 UNL     1      30.588  11.773  49.065  1.00  0.00     0.073 A 
ENDROOT
BRANCH   5  23
HETATM   23  C6  UNL     1      28.706   9.123  46.305  1.00  0.00     0.245 C 
HETATM   24  N1  UNL     1      27.692  10.054  45.958  1.00  0.00    -0.366 N 
HETATM   25  H6  UNL     1      27.410  10.927  46.474  1.00  0.00     0.159 HD
HETATM   26  H7  UNL     1      26.982  10.188  45.196  1.00  0.00     0.159 HD
HETATM   27  O1  UNL     1      28.539   8.000  46.839  1.00  0.00    -0.268 OA
ENDBRANCH   5  23
BRANCH  12  28
HETATM   28  N2  UNL     1      33.482   6.730  47.866  1.00  0.00     0.085 N 
HETATM   29  H15 UNL     1      33.111   7.709  47.925  1.00  0.00     0.313 HD
HETATM   30  H16 UNL     1      33.322   6.357  46.891  1.00  0.00     0.313 HD
ENDBRANCH  12  28
TORSDOF 2
ENDMDL
