MODEL 1
REMARK VINA RESULT:      -9.9      0.000      0.000
REMARK  1 active torsions:
REMARK  status: ('A' for Active; 'I' for Inactive)
REMARK    1  A    between atoms: C16_19  and  C17_20 
ROOT
HETATM    1  C1  UNL     1      17.000  -0.544  51.198  1.00  0.00     0.179 C 
HETATM    2  N1  UNL     1      18.244   0.225  51.243  1.00  0.00    -0.284 N 
HETATM    3  C2  UNL     1      19.182   0.337  50.286  1.00  0.00     0.126 A 
HETATM    4  C3  UNL     1      20.166   1.162  50.778  1.00  0.00     0.015 A 
HETATM    5  C4  UNL     1      19.788   1.538  52.050  1.00  0.00     0.067 A 
HETATM    6  N2  UNL     1      18.616   0.944  52.289  1.00  0.00    -0.177 NA
HETATM    7  C5  UNL     1      20.573   2.425  52.942  1.00  0.00     0.064 C 
HETATM    8  C6  UNL     1      21.517   3.234  52.092  1.00  0.00     0.030 C 
HETATM    9  C7  UNL     1      22.313   2.303  51.234  1.00  0.00     0.044 A 
HETATM   10  C8  UNL     1      23.439   3.033  50.617  1.00  0.00    -0.017 A 
HETATM   11  C9  UNL     1      23.531   4.049  49.805  1.00  0.00    -0.000 C 
HETATM   12  C10 UNL     1      23.001   3.907  48.623  1.00  0.00     0.096 C 
HETATM   13  N3  UNL     1      22.524   3.029  47.588  1.00  0.00    -0.395 N 
HETATM   14  C11 UNL     1      22.293   1.632  47.865  1.00  0.00     0.147 C 
HETATM   15  C12 UNL     1      21.346   1.384  48.958  1.00  0.00     0.002 C 
HETATM   16  C13 UNL     1      21.421   1.670  50.243  1.00  0.00    -0.029 C 
HETATM   17  C14 UNL     1      24.395   2.153  51.289  1.00  0.00    -0.019 A 
HETATM   18  C15 UNL     1      25.732   1.863  51.476  1.00  0.00     0.022 A 
HETATM   19  C16 UNL     1      26.061   0.810  52.308  1.00  0.00    -0.029 A 
HETATM   20  C22 UNL     1      24.999   0.119  52.894  1.00  0.00     0.010 A 
HETATM   21  C23 UNL     1      23.673   0.426  52.691  1.00  0.00     0.010 A 
HETATM   22  C24 UNL     1      23.339   1.478  51.862  1.00  0.00    -0.029 A 
HETATM   23  H10 UNL     1      22.389   3.552  46.674  1.00  0.00     0.159 HD
ENDROOT
BRANCH  19  24
HETATM   24  C17 UNL     1      27.460   0.424  52.572  1.00  0.00     0.154 C 
HETATM   25  C18 UNL     1      27.524  -1.046  52.839  1.00  0.00     0.037 C 
HETATM   26  C19 UNL     1      28.874  -1.552  53.225  1.00  0.00     0.005 C 
HETATM   27  C20 UNL     1      29.597  -0.526  54.051  1.00  0.00     0.026 C 
HETATM   28  C21 UNL     1      28.602   0.477  54.593  1.00  0.00     0.168 C 
HETATM   29  O1  UNL     1      27.987   1.200  53.588  1.00  0.00    -0.381 OA
ENDBRANCH  19  24
TORSDOF 1
ENDMDL
MODEL 2
REMARK VINA RESULT:      -9.4      1.703      4.155
REMARK  1 active torsions:
REMARK  status: ('A' for Active; 'I' for Inactive)
REMARK    1  A    between atoms: C16_19  and  C17_20 
ROOT
HETATM    1  C1  UNL     1      20.143   6.735  46.614  1.00  0.00     0.179 C 
HETATM    2  N1  UNL     1      20.602   5.542  47.327  1.00  0.00    -0.284 N 
HETATM    3  C2  UNL     1      20.383   5.212  48.612  1.00  0.00     0.126 A 
HETATM    4  C3  UNL     1      21.006   4.006  48.832  1.00  0.00     0.015 A 
HETATM    5  C4  UNL     1      21.599   3.628  47.646  1.00  0.00     0.067 A 
HETATM    6  N2  UNL     1      21.327   4.592  46.762  1.00  0.00    -0.177 NA
HETATM    7  C5  UNL     1      22.383   2.386  47.446  1.00  0.00     0.064 C 
HETATM    8  C6  UNL     1      21.995   1.404  48.520  1.00  0.00     0.030 C 
HETATM    9  C7  UNL     1      22.146   2.064  49.854  1.00  0.00     0.044 A 
HETATM   10  C8  UNL     1      22.063   1.049  50.925  1.00  0.00    -0.017 A 
HETATM   11  C9  UNL     1      21.146   0.207  51.313  1.00  0.00    -0.000 C 
HETATM   12  C10 UNL     1      20.022   0.715  51.732  1.00  0.00     0.096 C 
HETATM   13  N3  UNL     1      19.302   1.849  52.248  1.00  0.00    -0.395 N 
HETATM   14  C11 UNL     1      19.881   3.169  52.188  1.00  0.00     0.147 C 
HETATM   15  C12 UNL     1      20.245   3.606  50.836  1.00  0.00     0.002 C 
HETATM   16  C13 UNL     1      21.137   3.131  49.988  1.00  0.00    -0.029 C 
HETATM   17  C14 UNL     1      23.420   1.378  51.361  1.00  0.00    -0.019 A 
HETATM   18  C15 UNL     1      24.420   1.092  52.268  1.00  0.00     0.022 A 
HETATM   19  C16 UNL     1      25.603   1.799  52.181  1.00  0.00    -0.029 A 
HETATM   20  C22 UNL     1      25.686   2.758  51.170  1.00  0.00     0.010 A 
HETATM   21  C23 UNL     1      24.674   3.027  50.276  1.00  0.00     0.010 A 
HETATM   22  C24 UNL     1      23.490   2.321  50.359  1.00  0.00    -0.029 A 
HETATM   23  H10 UNL     1      18.359   1.559  52.640  1.00  0.00     0.159 HD
ENDROOT
BRANCH  19  24
HETATM   24  C17 UNL     1      26.730   1.565  53.104  1.00  0.00     0.154 C 
HETATM   25  C18 UNL     1      27.534   0.402  52.616  1.00  0.00     0.037 C 
HETATM   26  C19 UNL     1      28.649  -0.009  53.518  1.00  0.00     0.005 C 
HETATM   27  C20 UNL     1      28.251   0.179  54.955  1.00  0.00     0.026 C 
HETATM   28  C21 UNL     1      26.745   0.297  55.049  1.00  0.00     0.168 C 
HETATM   29  O1  UNL     1      26.265   1.418  54.399  1.00  0.00    -0.381 OA
ENDBRANCH  19  24
TORSDOF 1
ENDMDL
MODEL 3
REMARK VINA RESULT:      -8.7      8.031     10.749
REMARK  1 active torsions:
REMARK  status: ('A' for Active; 'I' for Inactive)
REMARK    1  A    between atoms: C16_19  and  C17_20 
ROOT
HETATM    1  C1  UNL     1      27.746  14.031  45.900  1.00  0.00     0.179 C 
HETATM    2  N1  UNL     1      27.714  12.591  46.162  1.00  0.00    -0.284 N 
HETATM    3  C2  UNL     1      27.786  11.966  47.350  1.00  0.00     0.126 A 
HETATM    4  C3  UNL     1      27.716  10.615  47.101  1.00  0.00     0.015 A 
HETATM    5  C4  UNL     1      27.600  10.455  45.736  1.00  0.00     0.067 A 
HETATM    6  N2  UNL     1      27.604  11.682  45.208  1.00  0.00    -0.177 NA
HETATM    7  C5  UNL     1      27.503   9.149  45.039  1.00  0.00     0.064 C 
HETATM    8  C6  UNL     1      27.031   8.118  46.030  1.00  0.00     0.030 C 
HETATM    9  C7  UNL     1      27.928   8.154  47.227  1.00  0.00     0.044 A 
HETATM   10  C8  UNL     1      27.678   6.969  48.072  1.00  0.00    -0.017 A 
HETATM   11  C9  UNL     1      26.640   6.511  48.716  1.00  0.00    -0.000 C 
HETATM   12  C10 UNL     1      26.157   7.265  49.663  1.00  0.00     0.096 C 
HETATM   13  N3  UNL     1      26.351   8.344  50.594  1.00  0.00    -0.395 N 
HETATM   14  C11 UNL     1      27.479   9.232  50.457  1.00  0.00     0.147 C 
HETATM   15  C12 UNL     1      27.557   9.911  49.158  1.00  0.00     0.002 C 
HETATM   16  C13 UNL     1      27.735   9.429  47.944  1.00  0.00    -0.029 C 
HETATM   17  C14 UNL     1      29.061   6.528  47.888  1.00  0.00    -0.019 A 
HETATM   18  C15 UNL     1      29.993   5.558  48.198  1.00  0.00     0.022 A 
HETATM   19  C16 UNL     1      31.267   5.688  47.680  1.00  0.00    -0.029 A 
HETATM   20  C22 UNL     1      31.506   6.806  46.880  1.00  0.00     0.010 A 
HETATM   21  C23 UNL     1      30.561   7.761  46.585  1.00  0.00     0.010 A 
HETATM   22  C24 UNL     1      29.285   7.635  47.099  1.00  0.00    -0.029 A 
HETATM   23  H10 UNL     1      25.583   8.360  51.328  1.00  0.00     0.159 HD
ENDROOT
BRANCH  19  24
HETATM   24  C17 UNL     1      32.331   4.704  47.954  1.00  0.00     0.154 C 
HETATM   25  C18 UNL     1      33.646   5.410  48.040  1.00  0.00     0.037 C 
HETATM   26  C19 UNL     1      34.826   4.513  48.211  1.00  0.00     0.005 C 
HETATM   27  C20 UNL     1      34.621   3.233  47.451  1.00  0.00     0.026 C 
HETATM   28  C21 UNL     1      33.524   3.426  46.425  1.00  0.00     0.168 C 
HETATM   29  O1  UNL     1      32.301   3.693  47.010  1.00  0.00    -0.381 OA
ENDBRANCH  19  24
TORSDOF 1
ENDMDL
MODEL 4
REMARK VINA RESULT:      -8.7      3.791      6.369
REMARK  1 active torsions:
REMARK  status: ('A' for Active; 'I' for Inactive)
REMARK    1  A    between atoms: C16_19  and  C17_20 
ROOT
HETATM    1  C1  UNL     1      25.991   9.569  49.741  1.00  0.00     0.179 C 
HETATM    2  N1  UNL     1      25.589   8.168  49.621  1.00  0.00    -0.284 N 
HETATM    3  C2  UNL     1      24.356   7.678  49.401  1.00  0.00     0.126 A 
HETATM    4  C3  UNL     1      24.466   6.308  49.365  1.00  0.00     0.015 A 
HETATM    5  C4  UNL     1      25.793   5.996  49.568  1.00  0.00     0.067 A 
HETATM    6  N2  UNL     1      26.436   7.158  49.719  1.00  0.00    -0.177 NA
HETATM    7  C5  UNL     1      26.347   4.621  49.611  1.00  0.00     0.064 C 
HETATM    8  C6  UNL     1      25.387   3.703  48.901  1.00  0.00     0.030 C 
HETATM    9  C7  UNL     1      24.025   3.877  49.495  1.00  0.00     0.044 A 
HETATM   10  C8  UNL     1      23.137   2.791  49.031  1.00  0.00    -0.017 A 
HETATM   11  C9  UNL     1      22.708   2.401  47.863  1.00  0.00    -0.000 C 
HETATM   12  C10 UNL     1      21.990   3.251  47.187  1.00  0.00     0.096 C 
HETATM   13  N3  UNL     1      21.162   4.428  47.179  1.00  0.00    -0.395 N 
HETATM   14  C11 UNL     1      21.128   5.303  48.326  1.00  0.00     0.147 C 
HETATM   15  C12 UNL     1      22.438   5.834  48.717  1.00  0.00     0.002 C 
HETATM   16  C13 UNL     1      23.517   5.222  49.164  1.00  0.00    -0.029 C 
HETATM   17  C14 UNL     1      22.944   2.342  50.410  1.00  0.00    -0.019 A 
HETATM   18  C15 UNL     1      22.321   1.419  51.225  1.00  0.00     0.022 A 
HETATM   19  C16 UNL     1      22.536   1.499  52.587  1.00  0.00    -0.029 A 
HETATM   20  C22 UNL     1      23.376   2.524  53.028  1.00  0.00     0.010 A 
HETATM   21  C23 UNL     1      23.986   3.434  52.196  1.00  0.00     0.010 A 
HETATM   22  C24 UNL     1      23.775   3.356  50.834  1.00  0.00    -0.029 A 
HETATM   23  H10 UNL     1      20.635   4.520  46.262  1.00  0.00     0.159 HD
ENDROOT
BRANCH  19  24
HETATM   24  C17 UNL     1      21.916   0.558  53.539  1.00  0.00     0.154 C 
HETATM   25  C18 UNL     1      22.449  -0.817  53.291  1.00  0.00     0.037 C 
HETATM   26  C19 UNL     1      21.824  -1.888  54.120  1.00  0.00     0.005 C 
HETATM   27  C20 UNL     1      20.367  -1.590  54.341  1.00  0.00     0.026 C 
HETATM   28  C21 UNL     1      19.900  -0.574  53.322  1.00  0.00     0.168 C 
HETATM   29  O1  UNL     1      20.537   0.644  53.466  1.00  0.00    -0.381 OA
ENDBRANCH  19  24
TORSDOF 1
ENDMDL
MODEL 5
REMARK VINA RESULT:      -8.7      7.886     11.483
REMARK  1 active torsions:
REMARK  status: ('A' for Active; 'I' for Inactive)
REMARK    1  A    between atoms: C16_19  and  C17_20 
ROOT
HETATM    1  C1  UNL     1      35.789   6.631  48.627  1.00  0.00     0.179 C 
HETATM    2  N1  UNL     1      34.424   6.914  48.181  1.00  0.00    -0.284 N 
HETATM    3  C2  UNL     1      33.523   7.736  48.748  1.00  0.00     0.126 A 
HETATM    4  C3  UNL     1      32.385   7.680  47.979  1.00  0.00     0.015 A 
HETATM    5  C4  UNL     1      32.632   6.806  46.942  1.00  0.00     0.067 A 
HETATM    6  N2  UNL     1      33.882   6.366  47.107  1.00  0.00    -0.177 NA
HETATM    7  C5  UNL     1      31.660   6.450  45.880  1.00  0.00     0.064 C 
HETATM    8  C6  UNL     1      30.620   7.538  45.808  1.00  0.00     0.030 C 
HETATM    9  C7  UNL     1      30.047   7.749  47.173  1.00  0.00     0.044 A 
HETATM   10  C8  UNL     1      28.833   8.585  47.080  1.00  0.00    -0.017 A 
HETATM   11  C9  UNL     1      28.591   9.797  46.662  1.00  0.00    -0.000 C 
HETATM   12  C10 UNL     1      29.188  10.767  47.294  1.00  0.00     0.096 C 
HETATM   13  N3  UNL     1      29.861  11.231  48.477  1.00  0.00    -0.395 N 
HETATM   14  C11 UNL     1      30.334  10.291  49.464  1.00  0.00     0.147 C 
HETATM   15  C12 UNL     1      31.262   9.283  48.940  1.00  0.00     0.002 C 
HETATM   16  C13 UNL     1      31.081   8.325  48.053  1.00  0.00    -0.029 C 
HETATM   17  C14 UNL     1      28.027   7.502  47.644  1.00  0.00    -0.019 A 
HETATM   18  C15 UNL     1      26.760   7.114  48.030  1.00  0.00     0.022 A 
HETATM   19  C16 UNL     1      26.595   5.843  48.544  1.00  0.00    -0.029 A 
HETATM   20  C22 UNL     1      27.740   5.049  48.632  1.00  0.00     0.010 A 
HETATM   21  C23 UNL     1      28.994   5.458  48.241  1.00  0.00     0.010 A 
HETATM   22  C24 UNL     1      29.164   6.728  47.726  1.00  0.00    -0.029 A 
HETATM   23  H10 UNL     1      29.937  12.291  48.484  1.00  0.00     0.159 HD
ENDROOT
BRANCH  19  24
HETATM   24  C17 UNL     1      25.280   5.337  48.983  1.00  0.00     0.154 C 
HETATM   25  C18 UNL     1      24.203   6.209  48.421  1.00  0.00     0.037 C 
HETATM   26  C19 UNL     1      22.823   5.868  48.874  1.00  0.00     0.005 C 
HETATM   27  C20 UNL     1      22.847   5.396  50.301  1.00  0.00     0.026 C 
HETATM   28  C21 UNL     1      24.146   5.821  50.951  1.00  0.00     0.168 C 
HETATM   29  O1  UNL     1      25.246   5.228  50.362  1.00  0.00    -0.381 OA
ENDBRANCH  19  24
TORSDOF 1
ENDMDL
MODEL 6
REMARK VINA RESULT:      -8.7      4.184      6.260
REMARK  1 active torsions:
REMARK  status: ('A' for Active; 'I' for Inactive)
REMARK    1  A    between atoms: C16_19  and  C17_20 
ROOT
HETATM    1  C1  UNL     1      17.706   4.356  50.690  1.00  0.00     0.179 C 
HETATM    2  N1  UNL     1      19.123   4.139  50.397  1.00  0.00    -0.284 N 
HETATM    3  C2  UNL     1      20.177   4.358  51.203  1.00  0.00     0.126 A 
HETATM    4  C3  UNL     1      21.305   4.009  50.498  1.00  0.00     0.015 A 
HETATM    5  C4  UNL     1      20.895   3.576  49.256  1.00  0.00     0.067 A 
HETATM    6  N2  UNL     1      19.563   3.674  49.240  1.00  0.00    -0.177 NA
HETATM    7  C5  UNL     1      21.800   3.111  48.176  1.00  0.00     0.064 C 
HETATM    8  C6  UNL     1      23.106   2.697  48.801  1.00  0.00     0.030 C 
HETATM    9  C7  UNL     1      23.618   3.824  49.641  1.00  0.00     0.044 A 
HETATM   10  C8  UNL     1      25.022   3.565  50.020  1.00  0.00    -0.017 A 
HETATM   11  C9  UNL     1      25.625   2.628  50.698  1.00  0.00    -0.000 C 
HETATM   12  C10 UNL     1      25.283   2.495  51.948  1.00  0.00     0.096 C 
HETATM   13  N3  UNL     1      24.686   3.065  53.126  1.00  0.00    -0.395 N 
HETATM   14  C11 UNL     1      23.899   4.271  53.035  1.00  0.00     0.147 C 
HETATM   15  C12 UNL     1      22.763   4.181  52.111  1.00  0.00     0.002 C 
HETATM   16  C13 UNL     1      22.728   4.009  50.804  1.00  0.00    -0.029 C 
HETATM   17  C14 UNL     1      25.447   4.781  49.326  1.00  0.00    -0.019 A 
HETATM   18  C15 UNL     1      26.523   5.580  48.995  1.00  0.00     0.022 A 
HETATM   19  C16 UNL     1      26.287   6.716  48.245  1.00  0.00    -0.029 A 
HETATM   20  C22 UNL     1      24.961   6.962  47.884  1.00  0.00     0.010 A 
HETATM   21  C23 UNL     1      23.904   6.151  48.227  1.00  0.00     0.010 A 
HETATM   22  C24 UNL     1      24.136   5.014  48.975  1.00  0.00    -0.029 A 
HETATM   23  H10 UNL     1      24.912   2.488  53.989  1.00  0.00     0.159 HD
ENDROOT
BRANCH  19  24
HETATM   24  C17 UNL     1      27.370   7.631  47.841  1.00  0.00     0.154 C 
HETATM   25  C18 UNL     1      28.665   6.883  47.817  1.00  0.00     0.037 C 
HETATM   26  C19 UNL     1      29.864   7.720  47.523  1.00  0.00     0.005 C 
HETATM   27  C20 UNL     1      29.707   9.085  48.131  1.00  0.00     0.026 C 
HETATM   28  C21 UNL     1      28.627   9.044  49.190  1.00  0.00     0.168 C 
HETATM   29  O1  UNL     1      27.386   8.746  48.661  1.00  0.00    -0.381 OA
ENDBRANCH  19  24
TORSDOF 1
ENDMDL
MODEL 7
REMARK VINA RESULT:      -8.4      8.591     10.129
REMARK  1 active torsions:
REMARK  status: ('A' for Active; 'I' for Inactive)
REMARK    1  A    between atoms: C16_19  and  C17_20 
ROOT
HETATM    1  C1  UNL     1      23.216  10.061  46.301  1.00  0.00     0.179 C 
HETATM    2  N1  UNL     1      24.479   9.845  47.007  1.00  0.00    -0.284 N 
HETATM    3  C2  UNL     1      25.719  10.171  46.602  1.00  0.00     0.126 A 
HETATM    4  C3  UNL     1      26.585   9.775  47.593  1.00  0.00     0.015 A 
HETATM    5  C4  UNL     1      25.830   9.206  48.596  1.00  0.00     0.067 A 
HETATM    6  N2  UNL     1      24.557   9.271  48.196  1.00  0.00    -0.177 NA
HETATM    7  C5  UNL     1      26.375   8.640  49.854  1.00  0.00     0.064 C 
HETATM    8  C6  UNL     1      27.737   9.236  50.089  1.00  0.00     0.030 C 
HETATM    9  C7  UNL     1      28.572   9.030  48.865  1.00  0.00     0.044 A 
HETATM   10  C8  UNL     1      29.986   9.332  49.169  1.00  0.00    -0.017 A 
HETATM   11  C9  UNL     1      30.625  10.396  49.570  1.00  0.00    -0.000 C 
HETATM   12  C10 UNL     1      30.592  11.433  48.781  1.00  0.00     0.096 C 
HETATM   13  N3  UNL     1      30.380  11.967  47.463  1.00  0.00    -0.395 N 
HETATM   14  C11 UNL     1      29.743  11.167  46.445  1.00  0.00     0.147 C 
HETATM   15  C12 UNL     1      28.410  10.677  46.811  1.00  0.00     0.002 C 
HETATM   16  C13 UNL     1      28.030   9.846  47.762  1.00  0.00    -0.029 C 
HETATM   17  C14 UNL     1      30.364   7.959  48.838  1.00  0.00    -0.019 A 
HETATM   18  C15 UNL     1      31.410   7.062  48.744  1.00  0.00     0.022 A 
HETATM   19  C16 UNL     1      31.129   5.772  48.338  1.00  0.00    -0.029 A 
HETATM   20  C22 UNL     1      29.793   5.483  48.051  1.00  0.00     0.010 A 
HETATM   21  C23 UNL     1      28.768   6.394  48.152  1.00  0.00     0.010 A 
HETATM   22  C24 UNL     1      29.044   7.684  48.559  1.00  0.00    -0.029 A 
HETATM   23  H10 UNL     1      30.745  12.962  47.389  1.00  0.00     0.159 HD
ENDROOT
BRANCH  19  24
HETATM   24  C17 UNL     1      32.177   4.742  48.208  1.00  0.00     0.154 C 
HETATM   25  C18 UNL     1      33.500   5.409  48.004  1.00  0.00     0.037 C 
HETATM   26  C19 UNL     1      34.637   4.476  47.753  1.00  0.00     0.005 C 
HETATM   27  C20 UNL     1      34.172   3.294  46.950  1.00  0.00     0.026 C 
HETATM   28  C21 UNL     1      32.851   3.622  46.288  1.00  0.00     0.168 C 
HETATM   29  O1  UNL     1      31.845   3.845  47.209  1.00  0.00    -0.381 OA
ENDBRANCH  19  24
TORSDOF 1
ENDMDL
MODEL 8
REMARK VINA RESULT:      -8.3      2.357      3.300
REMARK  1 active torsions:
REMARK  status: ('A' for Active; 'I' for Inactive)
REMARK    1  A    between atoms: C16_19  and  C17_20 
ROOT
HETATM    1  C1  UNL     1      18.883   3.368  46.160  1.00  0.00     0.179 C 
HETATM    2  N1  UNL     1      19.667   3.628  47.369  1.00  0.00    -0.284 N 
HETATM    3  C2  UNL     1      20.950   4.021  47.453  1.00  0.00     0.126 A 
HETATM    4  C3  UNL     1      21.250   4.136  48.790  1.00  0.00     0.015 A 
HETATM    5  C4  UNL     1      20.115   3.802  49.497  1.00  0.00     0.067 A 
HETATM    6  N2  UNL     1      19.180   3.501  48.591  1.00  0.00    -0.177 NA
HETATM    7  C5  UNL     1      20.007   3.789  50.976  1.00  0.00     0.064 C 
HETATM    8  C6  UNL     1      21.096   4.664  51.537  1.00  0.00     0.030 C 
HETATM    9  C7  UNL     1      22.409   4.222  50.974  1.00  0.00     0.044 A 
HETATM   10  C8  UNL     1      23.512   4.857  51.724  1.00  0.00    -0.017 A 
HETATM   11  C9  UNL     1      23.882   6.090  51.931  1.00  0.00    -0.000 C 
HETATM   12  C10 UNL     1      24.220   6.786  50.883  1.00  0.00     0.096 C 
HETATM   13  N3  UNL     1      24.650   6.810  49.510  1.00  0.00    -0.395 N 
HETATM   14  C11 UNL     1      24.571   5.619  48.700  1.00  0.00     0.147 C 
HETATM   15  C12 UNL     1      23.224   5.044  48.605  1.00  0.00     0.002 C 
HETATM   16  C13 UNL     1      22.445   4.517  49.529  1.00  0.00    -0.029 C 
HETATM   17  C14 UNL     1      24.008   3.543  52.133  1.00  0.00    -0.019 A 
HETATM   18  C15 UNL     1      24.979   2.869  52.846  1.00  0.00     0.022 A 
HETATM   19  C16 UNL     1      24.929   1.489  52.875  1.00  0.00    -0.029 A 
HETATM   20  C22 UNL     1      23.887   0.885  52.168  1.00  0.00     0.010 A 
HETATM   21  C23 UNL     1      22.930   1.579  51.463  1.00  0.00     0.010 A 
HETATM   22  C24 UNL     1      22.976   2.958  51.433  1.00  0.00    -0.029 A 
HETATM   23  H10 UNL     1      25.001   7.773  49.235  1.00  0.00     0.159 HD
ENDROOT
BRANCH  19  24
HETATM   24  C17 UNL     1      25.921   0.681  53.609  1.00  0.00     0.154 C 
HETATM   25  C18 UNL     1      27.156   1.494  53.828  1.00  0.00     0.037 C 
HETATM   26  C19 UNL     1      28.283   0.759  54.472  1.00  0.00     0.005 C 
HETATM   27  C20 UNL     1      28.303  -0.671  54.008  1.00  0.00     0.026 C 
HETATM   28  C21 UNL     1      27.484  -0.801  52.741  1.00  0.00     0.168 C 
HETATM   29  O1  UNL     1      26.148  -0.514  52.949  1.00  0.00    -0.381 OA
ENDBRANCH  19  24
TORSDOF 1
ENDMDL
MODEL 9
REMARK VINA RESULT:      -8.1      3.773      6.982
REMARK  1 active torsions:
REMARK  status: ('A' for Active; 'I' for Inactive)
REMARK    1  A    between atoms: C16_19  and  C17_20 
ROOT
HETATM    1  C1  UNL     1      20.570  -1.486  54.205  1.00  0.00     0.179 C 
HETATM    2  N1  UNL     1      21.169  -0.532  53.272  1.00  0.00    -0.284 N 
HETATM    3  C2  UNL     1      22.189   0.315  53.496  1.00  0.00     0.126 A 
HETATM    4  C3  UNL     1      22.401   1.012  52.330  1.00  0.00     0.015 A 
HETATM    5  C4  UNL     1      21.483   0.557  51.408  1.00  0.00     0.067 A 
HETATM    6  N2  UNL     1      20.756  -0.378  52.025  1.00  0.00    -0.177 NA
HETATM    7  C5  UNL     1      21.361   1.051  50.014  1.00  0.00     0.064 C 
HETATM    8  C6  UNL     1      22.666   1.695  49.626  1.00  0.00     0.030 C 
HETATM    9  C7  UNL     1      23.022   2.722  50.654  1.00  0.00     0.044 A 
HETATM   10  C8  UNL     1      24.125   3.567  50.153  1.00  0.00    -0.017 A 
HETATM   11  C9  UNL     1      25.355   3.337  49.785  1.00  0.00    -0.000 C 
HETATM   12  C10 UNL     1      26.159   2.857  50.691  1.00  0.00     0.096 C 
HETATM   13  N3  UNL     1      26.460   2.652  52.083  1.00  0.00    -0.395 N 
HETATM   14  C11 UNL     1      25.444   2.856  53.087  1.00  0.00     0.147 C 
HETATM   15  C12 UNL     1      24.237   2.044  52.895  1.00  0.00     0.002 C 
HETATM   16  C13 UNL     1      23.341   2.048  51.927  1.00  0.00    -0.029 C 
HETATM   17  C14 UNL     1      23.274   4.753  50.240  1.00  0.00    -0.019 A 
HETATM   18  C15 UNL     1      23.206   6.118  50.041  1.00  0.00     0.022 A 
HETATM   19  C16 UNL     1      22.017   6.761  50.325  1.00  0.00    -0.029 A 
HETATM   20  C22 UNL     1      20.972   5.965  50.797  1.00  0.00     0.010 A 
HETATM   21  C23 UNL     1      21.063   4.605  50.988  1.00  0.00     0.010 A 
HETATM   22  C24 UNL     1      22.250   3.958  50.705  1.00  0.00    -0.029 A 
HETATM   23  H10 UNL     1      27.470   2.352  52.217  1.00  0.00     0.159 HD
ENDROOT
BRANCH  19  24
HETATM   24  C17 UNL     1      21.847   8.215  50.144  1.00  0.00     0.154 C 
HETATM   25  C18 UNL     1      20.392   8.525  49.986  1.00  0.00     0.037 C 
HETATM   26  C19 UNL     1      20.088   9.956  49.690  1.00  0.00     0.005 C 
HETATM   27  C20 UNL     1      21.161  10.547  48.821  1.00  0.00     0.026 C 
HETATM   28  C21 UNL     1      21.953   9.433  48.170  1.00  0.00     0.168 C 
HETATM   29  O1  UNL     1      22.630   8.662  49.096  1.00  0.00    -0.381 OA
ENDBRANCH  19  24
TORSDOF 1
ENDMDL
