MODEL 1
REMARK VINA RESULT:      -8.0      0.000      0.000
REMARK  5 active torsions:
REMARK  status: ('A' for Active; 'I' for Inactive)
REMARK    1  A    between atoms: O1_2  and  C2_3 
REMARK    2  A    between atoms: C9_12  and  N3_13 
REMARK    3  A    between atoms: N3_13  and  C10_14 
REMARK    4  A    between atoms: C10_14  and  C11_15 
REMARK    5  A    between atoms: C17_21  and  O2_22 
ROOT
HETATM    1  C2  UNL     1      24.258  -0.325  53.396  1.00  0.00     0.045 A 
HETATM    2  C3  UNL     1      25.077   0.281  52.579  1.00  0.00     0.077 A 
HETATM    3  C4  UNL     1      26.327   0.614  53.298  1.00  0.00     0.071 A 
HETATM    4  C5  UNL     1      25.454  -0.038  54.191  1.00  0.00     0.060 A 
HETATM    5  C6  UNL     1      26.043  -0.142  55.405  1.00  0.00     0.001 A 
HETATM    6  C7  UNL     1      27.010   0.535  54.551  1.00  0.00     0.101 A 
HETATM    7  N1  UNL     1      28.183   0.989  54.751  1.00  0.00    -0.266 NA
HETATM    8  C8  UNL     1      29.016   1.635  53.826  1.00  0.00     0.224 A 
HETATM    9  N2  UNL     1      28.433   1.713  52.731  1.00  0.00    -0.247 NA
HETATM   10  C9  UNL     1      27.168   1.282  52.336  1.00  0.00     0.356 A 
ENDROOT
BRANCH  10  11
HETATM   11  N3  UNL     1      26.473   2.503  51.837  1.00  0.00     0.113 NA
HETATM   12  H8  UNL     1      26.747   3.331  52.367  1.00  0.00     0.319 HD
BRANCH  11  13
HETATM   13  C10 UNL     1      26.417   2.591  50.431  1.00  0.00     0.314 C 
BRANCH  13  14
HETATM   14  C11 UNL     1      26.423   3.929  49.840  1.00  0.00     0.004 A 
HETATM   15  C12 UNL     1      27.424   4.545  49.119  1.00  0.00     0.018 A 
HETATM   16  C13 UNL     1      27.318   5.815  48.593  1.00  0.00    -0.061 A 
HETATM   17  C14 UNL     1      28.495   6.341  47.832  1.00  0.00     0.048 C 
HETATM   18  C15 UNL     1      26.151   6.533  48.785  1.00  0.00     0.009 A 
HETATM   19  C16 UNL     1      25.132   5.932  49.507  1.00  0.00     0.038 A 
HETATM   20  C17 UNL     1      25.242   4.657  50.034  1.00  0.00     0.076 A 
BRANCH  20  21
HETATM   21  O2  UNL     1      24.166   4.141  50.742  1.00  0.00    -0.355 OA
HETATM   22  C18 UNL     1      23.508   4.873  51.746  1.00  0.00     0.210 C 
ENDBRANCH  20  21
ENDBRANCH  13  14
ENDBRANCH  11  13
ENDBRANCH  10  11
BRANCH   1  23
HETATM   23  O1  UNL     1      22.957  -0.893  53.379  1.00  0.00    -0.363 OA
HETATM   24  C1  UNL     1      22.354  -1.064  54.679  1.00  0.00     0.209 C 
ENDBRANCH   1  23
TORSDOF 5
ENDMDL
MODEL 2
REMARK VINA RESULT:      -7.8      1.642      2.490
REMARK  5 active torsions:
REMARK  status: ('A' for Active; 'I' for Inactive)
REMARK    1  A    between atoms: O1_2  and  C2_3 
REMARK    2  A    between atoms: C9_12  and  N3_13 
REMARK    3  A    between atoms: N3_13  and  C10_14 
REMARK    4  A    between atoms: C10_14  and  C11_15 
REMARK    5  A    between atoms: C17_21  and  O2_22 
ROOT
HETATM    1  C2  UNL     1      24.138  -0.221  53.287  1.00  0.00     0.045 A 
HETATM    2  C3  UNL     1      24.837   0.541  52.490  1.00  0.00     0.077 A 
HETATM    3  C4  UNL     1      26.102   0.918  53.158  1.00  0.00     0.071 A 
HETATM    4  C5  UNL     1      25.359   0.098  54.030  1.00  0.00     0.060 A 
HETATM    5  C6  UNL     1      26.043  -0.072  55.186  1.00  0.00     0.001 A 
HETATM    6  C7  UNL     1      26.880   0.778  54.349  1.00  0.00     0.101 A 
HETATM    7  N1  UNL     1      28.019   1.321  54.522  1.00  0.00    -0.266 NA
HETATM    8  C8  UNL     1      28.721   2.134  53.621  1.00  0.00     0.224 A 
HETATM    9  N2  UNL     1      28.054   2.266  52.580  1.00  0.00    -0.247 NA
HETATM   10  C9  UNL     1      26.806   1.758  52.222  1.00  0.00     0.356 A 
ENDROOT
BRANCH  10  11
HETATM   11  N3  UNL     1      25.971   2.951  51.903  1.00  0.00     0.113 NA
HETATM   12  H8  UNL     1      25.926   3.596  52.693  1.00  0.00     0.319 HD
BRANCH  11  13
HETATM   13  C10 UNL     1      26.198   3.476  50.615  1.00  0.00     0.314 C 
BRANCH  13  14
HETATM   14  C11 UNL     1      25.028   3.719  49.771  1.00  0.00     0.004 A 
HETATM   15  C12 UNL     1      24.069   2.820  49.354  1.00  0.00     0.018 A 
HETATM   16  C13 UNL     1      22.993   3.161  48.563  1.00  0.00    -0.061 A 
HETATM   17  C14 UNL     1      22.039   2.067  48.197  1.00  0.00     0.048 C 
HETATM   18  C15 UNL     1      22.842   4.474  48.152  1.00  0.00     0.009 A 
HETATM   19  C16 UNL     1      23.796   5.394  48.562  1.00  0.00     0.038 A 
HETATM   20  C17 UNL     1      24.875   5.047  49.355  1.00  0.00     0.076 A 
BRANCH  20  21
HETATM   21  O2  UNL     1      25.776   6.040  49.713  1.00  0.00    -0.355 OA
HETATM   22  C18 UNL     1      25.386   7.183  50.433  1.00  0.00     0.210 C 
ENDBRANCH  20  21
ENDBRANCH  13  14
ENDBRANCH  11  13
ENDBRANCH  10  11
BRANCH   1  23
HETATM   23  O1  UNL     1      22.894  -0.907  53.292  1.00  0.00    -0.363 OA
HETATM   24  C1  UNL     1      22.199  -0.890  54.557  1.00  0.00     0.209 C 
ENDBRANCH   1  23
TORSDOF 5
ENDMDL
MODEL 3
REMARK VINA RESULT:      -7.7      2.033      6.914
REMARK  5 active torsions:
REMARK  status: ('A' for Active; 'I' for Inactive)
REMARK    1  A    between atoms: O1_2  and  C2_3 
REMARK    2  A    between atoms: C9_12  and  N3_13 
REMARK    3  A    between atoms: N3_13  and  C10_14 
REMARK    4  A    between atoms: C10_14  and  C11_15 
REMARK    5  A    between atoms: C17_21  and  O2_22 
ROOT
HETATM    1  C2  UNL     1      27.059   4.561  49.036  1.00  0.00     0.045 A 
HETATM    2  C3  UNL     1      26.425   3.812  49.897  1.00  0.00     0.077 A 
HETATM    3  C4  UNL     1      25.026   4.277  50.012  1.00  0.00     0.071 A 
HETATM    4  C5  UNL     1      25.695   5.095  49.081  1.00  0.00     0.060 A 
HETATM    5  C6  UNL     1      24.843   6.031  48.604  1.00  0.00     0.001 A 
HETATM    6  C7  UNL     1      24.071   5.235  49.549  1.00  0.00     0.101 A 
HETATM    7  N1  UNL     1      22.862   5.283  49.946  1.00  0.00    -0.266 NA
HETATM    8  C8  UNL     1      22.238   4.444  50.881  1.00  0.00     0.224 A 
HETATM    9  N2  UNL     1      23.058   3.606  51.294  1.00  0.00    -0.247 NA
HETATM   10  C9  UNL     1      24.402   3.409  50.981  1.00  0.00     0.356 A 
ENDROOT
BRANCH  10  11
HETATM   11  N3  UNL     1      25.130   3.513  52.278  1.00  0.00     0.113 NA
HETATM   12  H8  UNL     1      25.107   4.466  52.643  1.00  0.00     0.319 HD
BRANCH  11  13
HETATM   13  C10 UNL     1      24.870   2.446  53.162  1.00  0.00     0.314 C 
BRANCH  13  14
HETATM   14  C11 UNL     1      25.811   1.326  53.160  1.00  0.00     0.004 A 
HETATM   15  C12 UNL     1      27.176   1.351  53.358  1.00  0.00     0.018 A 
HETATM   16  C13 UNL     1      27.971   0.224  53.347  1.00  0.00    -0.061 A 
HETATM   17  C14 UNL     1      29.437   0.420  53.580  1.00  0.00     0.048 C 
HETATM   18  C15 UNL     1      27.391  -1.013  53.128  1.00  0.00     0.009 A 
HETATM   19  C16 UNL     1      26.020  -1.059  52.927  1.00  0.00     0.038 A 
HETATM   20  C17 UNL     1      25.226   0.074  52.938  1.00  0.00     0.076 A 
BRANCH  20  21
HETATM   21  O2  UNL     1      23.862  -0.076  52.727  1.00  0.00    -0.355 OA
HETATM   22  C18 UNL     1      23.037  -0.778  53.623  1.00  0.00     0.210 C 
ENDBRANCH  20  21
ENDBRANCH  13  14
ENDBRANCH  11  13
ENDBRANCH  10  11
BRANCH   1  23
HETATM   23  O1  UNL     1      28.355   4.676  48.468  1.00  0.00    -0.363 OA
HETATM   24  C1  UNL     1      28.755   6.022  48.136  1.00  0.00     0.209 C 
ENDBRANCH   1  23
TORSDOF 5
ENDMDL
MODEL 4
REMARK VINA RESULT:      -7.7      2.284      7.468
REMARK  5 active torsions:
REMARK  status: ('A' for Active; 'I' for Inactive)
REMARK    1  A    between atoms: O1_2  and  C2_3 
REMARK    2  A    between atoms: C9_12  and  N3_13 
REMARK    3  A    between atoms: N3_13  and  C10_14 
REMARK    4  A    between atoms: C10_14  and  C11_15 
REMARK    5  A    between atoms: C17_21  and  O2_22 
ROOT
HETATM    1  C2  UNL     1      27.904   4.978  48.566  1.00  0.00     0.045 A 
HETATM    2  C3  UNL     1      27.058   4.177  49.156  1.00  0.00     0.077 A 
HETATM    3  C4  UNL     1      25.750   4.855  49.280  1.00  0.00     0.071 A 
HETATM    4  C5  UNL     1      26.650   5.731  48.643  1.00  0.00     0.060 A 
HETATM    5  C6  UNL     1      26.024   6.896  48.359  1.00  0.00     0.001 A 
HETATM    6  C7  UNL     1      25.025   6.057  49.008  1.00  0.00     0.101 A 
HETATM    7  N1  UNL     1      23.802   6.235  49.311  1.00  0.00    -0.266 NA
HETATM    8  C8  UNL     1      22.942   5.329  49.950  1.00  0.00     0.224 A 
HETATM    9  N2  UNL     1      23.560   4.279  50.196  1.00  0.00    -0.247 NA
HETATM   10  C9  UNL     1      24.881   3.914  49.944  1.00  0.00     0.356 A 
ENDROOT
BRANCH  10  11
HETATM   11  N3  UNL     1      25.456   3.567  51.276  1.00  0.00     0.113 NA
HETATM   12  H8  UNL     1      26.232   4.183  51.519  1.00  0.00     0.319 HD
BRANCH  11  13
HETATM   13  C10 UNL     1      24.485   3.288  52.259  1.00  0.00     0.314 C 
BRANCH  13  14
HETATM   14  C11 UNL     1      24.472   1.940  52.828  1.00  0.00     0.004 A 
HETATM   15  C12 UNL     1      23.453   1.011  52.813  1.00  0.00     0.018 A 
HETATM   16  C13 UNL     1      23.553  -0.244  53.374  1.00  0.00    -0.061 A 
HETATM   17  C14 UNL     1      22.356  -1.136  53.272  1.00  0.00     0.048 C 
HETATM   18  C15 UNL     1      24.733  -0.618  53.993  1.00  0.00     0.009 A 
HETATM   19  C16 UNL     1      25.770   0.302  54.018  1.00  0.00     0.038 A 
HETATM   20  C17 UNL     1      25.665   1.561  53.455  1.00  0.00     0.076 A 
BRANCH  20  21
HETATM   21  O2  UNL     1      26.760   2.411  53.531  1.00  0.00    -0.355 OA
HETATM   22  C18 UNL     1      28.071   1.971  53.277  1.00  0.00     0.210 C 
ENDBRANCH  20  21
ENDBRANCH  13  14
ENDBRANCH  11  13
ENDBRANCH  10  11
BRANCH   1  23
HETATM   23  O1  UNL     1      29.261   4.979  48.145  1.00  0.00    -0.363 OA
HETATM   24  C1  UNL     1      29.807   6.286  47.865  1.00  0.00     0.209 C 
ENDBRANCH   1  23
TORSDOF 5
ENDMDL
MODEL 5
REMARK VINA RESULT:      -7.7      1.962      3.130
REMARK  5 active torsions:
REMARK  status: ('A' for Active; 'I' for Inactive)
REMARK    1  A    between atoms: O1_2  and  C2_3 
REMARK    2  A    between atoms: C9_12  and  N3_13 
REMARK    3  A    between atoms: N3_13  and  C10_14 
REMARK    4  A    between atoms: C10_14  and  C11_15 
REMARK    5  A    between atoms: C17_21  and  O2_22 
ROOT
HETATM    1  C2  UNL     1      27.201   0.381  54.280  1.00  0.00     0.045 A 
HETATM    2  C3  UNL     1      26.849   1.506  53.719  1.00  0.00     0.077 A 
HETATM    3  C4  UNL     1      25.441   1.412  53.275  1.00  0.00     0.071 A 
HETATM    4  C5  UNL     1      25.805   0.192  53.877  1.00  0.00     0.060 A 
HETATM    5  C6  UNL     1      24.753  -0.659  53.849  1.00  0.00     0.001 A 
HETATM    6  C7  UNL     1      24.289   0.568  53.214  1.00  0.00     0.101 A 
HETATM    7  N1  UNL     1      23.178   0.916  52.699  1.00  0.00    -0.266 NA
HETATM    8  C8  UNL     1      22.863   2.148  52.107  1.00  0.00     0.224 A 
HETATM    9  N2  UNL     1      23.857   2.892  52.150  1.00  0.00    -0.247 NA
HETATM   10  C9  UNL     1      25.136   2.682  52.663  1.00  0.00     0.356 A 
ENDROOT
BRANCH  10  11
HETATM   11  N3  UNL     1      26.064   2.915  51.520  1.00  0.00     0.113 NA
HETATM   12  H8  UNL     1      26.762   2.174  51.450  1.00  0.00     0.319 HD
BRANCH  11  13
HETATM   13  C10 UNL     1      25.419   3.347  50.343  1.00  0.00     0.314 C 
BRANCH  13  14
HETATM   14  C11 UNL     1      26.029   4.456  49.610  1.00  0.00     0.004 A 
HETATM   15  C12 UNL     1      27.317   4.563  49.129  1.00  0.00     0.018 A 
HETATM   16  C13 UNL     1      27.787   5.658  48.435  1.00  0.00    -0.061 A 
HETATM   17  C14 UNL     1      29.212   5.618  47.979  1.00  0.00     0.048 C 
HETATM   18  C15 UNL     1      26.937   6.723  48.193  1.00  0.00     0.009 A 
HETATM   19  C16 UNL     1      25.638   6.635  48.668  1.00  0.00     0.038 A 
HETATM   20  C17 UNL     1      25.170   5.535  49.365  1.00  0.00     0.076 A 
BRANCH  20  21
HETATM   21  O2  UNL     1      23.852   5.541  49.799  1.00  0.00    -0.355 OA
HETATM   22  C18 UNL     1      23.431   6.293  50.910  1.00  0.00     0.210 C 
ENDBRANCH  20  21
ENDBRANCH  13  14
ENDBRANCH  11  13
ENDBRANCH  10  11
BRANCH   1  23
HETATM   23  O1  UNL     1      28.342  -0.195  54.897  1.00  0.00    -0.363 OA
HETATM   24  C1  UNL     1      29.381  -0.607  53.984  1.00  0.00     0.209 C 
ENDBRANCH   1  23
TORSDOF 5
ENDMDL
MODEL 6
REMARK VINA RESULT:      -7.5      1.220      1.398
REMARK  5 active torsions:
REMARK  status: ('A' for Active; 'I' for Inactive)
REMARK    1  A    between atoms: O1_2  and  C2_3 
REMARK    2  A    between atoms: C9_12  and  N3_13 
REMARK    3  A    between atoms: N3_13  and  C10_14 
REMARK    4  A    between atoms: C10_14  and  C11_15 
REMARK    5  A    between atoms: C17_21  and  O2_22 
ROOT
HETATM    1  C2  UNL     1      23.055  -0.488  53.436  1.00  0.00     0.045 A 
HETATM    2  C3  UNL     1      24.038  -0.126  52.656  1.00  0.00     0.077 A 
HETATM    3  C4  UNL     1      25.306  -0.169  53.416  1.00  0.00     0.071 A 
HETATM    4  C5  UNL     1      24.257  -0.561  54.270  1.00  0.00     0.060 A 
HETATM    5  C6  UNL     1      24.753  -0.843  55.497  1.00  0.00     0.001 A 
HETATM    6  C7  UNL     1      25.899  -0.454  54.685  1.00  0.00     0.101 A 
HETATM    7  N1  UNL     1      27.145  -0.351  54.927  1.00  0.00    -0.266 NA
HETATM    8  C8  UNL     1      28.155   0.047  54.040  1.00  0.00     0.224 A 
HETATM    9  N2  UNL     1      27.653   0.301  52.931  1.00  0.00    -0.247 NA
HETATM   10  C9  UNL     1      26.331   0.250  52.492  1.00  0.00     0.356 A 
ENDROOT
BRANCH  10  11
HETATM   11  N3  UNL     1      26.024   1.623  52.002  1.00  0.00     0.113 NA
HETATM   12  H8  UNL     1      26.255   2.329  52.702  1.00  0.00     0.319 HD
BRANCH  11  13
HETATM   13  C10 UNL     1      26.409   1.850  50.665  1.00  0.00     0.314 C 
BRANCH  13  14
HETATM   14  C11 UNL     1      26.066   3.144  50.076  1.00  0.00     0.004 A 
HETATM   15  C12 UNL     1      26.904   4.074  49.498  1.00  0.00     0.018 A 
HETATM   16  C13 UNL     1      26.470   5.266  48.959  1.00  0.00    -0.061 A 
HETATM   17  C14 UNL     1      27.508   6.168  48.367  1.00  0.00     0.048 C 
HETATM   18  C15 UNL     1      25.120   5.569  48.984  1.00  0.00     0.009 A 
HETATM   19  C16 UNL     1      24.260   4.646  49.559  1.00  0.00     0.038 A 
HETATM   20  C17 UNL     1      24.700   3.452  50.101  1.00  0.00     0.076 A 
BRANCH  20  21
HETATM   21  O2  UNL     1      23.761   2.593  50.654  1.00  0.00    -0.355 OA
HETATM   22  C18 UNL     1      22.701   3.054  51.455  1.00  0.00     0.210 C 
ENDBRANCH  20  21
ENDBRANCH  13  14
ENDBRANCH  11  13
ENDBRANCH  10  11
BRANCH   1  23
HETATM   23  O1  UNL     1      21.648  -0.667  53.371  1.00  0.00    -0.363 OA
HETATM   24  C1  UNL     1      20.892   0.137  54.301  1.00  0.00     0.209 C 
ENDBRANCH   1  23
TORSDOF 5
ENDMDL
MODEL 7
REMARK VINA RESULT:      -7.3      3.497      5.161
REMARK  5 active torsions:
REMARK  status: ('A' for Active; 'I' for Inactive)
REMARK    1  A    between atoms: O1_2  and  C2_3 
REMARK    2  A    between atoms: C9_12  and  N3_13 
REMARK    3  A    between atoms: N3_13  and  C10_14 
REMARK    4  A    between atoms: C10_14  and  C11_15 
REMARK    5  A    between atoms: C17_21  and  O2_22 
ROOT
HETATM    1  C2  UNL     1      19.738   0.463  51.155  1.00  0.00     0.045 A 
HETATM    2  C3  UNL     1      21.015   0.412  51.423  1.00  0.00     0.077 A 
HETATM    3  C4  UNL     1      21.215  -0.259  52.726  1.00  0.00     0.071 A 
HETATM    4  C5  UNL     1      19.834  -0.211  52.452  1.00  0.00     0.060 A 
HETATM    5  C6  UNL     1      19.151  -0.790  53.466  1.00  0.00     0.001 A 
HETATM    6  C7  UNL     1      20.559  -0.887  53.830  1.00  0.00     0.101 A 
HETATM    7  N1  UNL     1      21.168  -1.374  54.836  1.00  0.00    -0.266 NA
HETATM    8  C8  UNL     1      22.551  -1.396  55.066  1.00  0.00     0.224 A 
HETATM    9  N2  UNL     1      23.136  -0.850  54.114  1.00  0.00    -0.247 NA
HETATM   10  C9  UNL     1      22.640  -0.267  52.949  1.00  0.00     0.356 A 
ENDROOT
BRANCH  10  11
HETATM   11  N3  UNL     1      23.145   1.136  52.964  1.00  0.00     0.113 NA
HETATM   12  H8  UNL     1      22.789   1.652  53.769  1.00  0.00     0.319 HD
BRANCH  11  13
HETATM   13  C10 UNL     1      24.513   1.251  52.641  1.00  0.00     0.314 C 
BRANCH  13  14
HETATM   14  C11 UNL     1      24.869   2.121  51.521  1.00  0.00     0.004 A 
HETATM   15  C12 UNL     1      24.032   2.815  50.673  1.00  0.00     0.018 A 
HETATM   16  C13 UNL     1      24.478   3.623  49.649  1.00  0.00    -0.061 A 
HETATM   17  C14 UNL     1      23.440   4.310  48.817  1.00  0.00     0.048 C 
HETATM   18  C15 UNL     1      25.839   3.763  49.440  1.00  0.00     0.009 A 
HETATM   19  C16 UNL     1      26.697   3.074  50.282  1.00  0.00     0.038 A 
HETATM   20  C17 UNL     1      26.245   2.264  51.308  1.00  0.00     0.076 A 
BRANCH  20  21
HETATM   21  O2  UNL     1      27.184   1.616  52.098  1.00  0.00    -0.355 OA
HETATM   22  C18 UNL     1      27.923   2.286  53.090  1.00  0.00     0.210 C 
ENDBRANCH  20  21
ENDBRANCH  13  14
ENDBRANCH  11  13
ENDBRANCH  10  11
BRANCH   1  23
HETATM   23  O1  UNL     1      18.878   0.940  50.131  1.00  0.00    -0.363 OA
HETATM   24  C1  UNL     1      17.586   0.300  50.078  1.00  0.00     0.209 C 
ENDBRANCH   1  23
TORSDOF 5
ENDMDL
MODEL 8
REMARK VINA RESULT:      -7.2      2.783      7.463
REMARK  5 active torsions:
REMARK  status: ('A' for Active; 'I' for Inactive)
REMARK    1  A    between atoms: O1_2  and  C2_3 
REMARK    2  A    between atoms: C9_12  and  N3_13 
REMARK    3  A    between atoms: N3_13  and  C10_14 
REMARK    4  A    between atoms: C10_14  and  C11_15 
REMARK    5  A    between atoms: C17_21  and  O2_22 
ROOT
HETATM    1  C2  UNL     1      29.035   5.410  48.233  1.00  0.00     0.045 A 
HETATM    2  C3  UNL     1      27.867   4.948  48.592  1.00  0.00     0.077 A 
HETATM    3  C4  UNL     1      26.879   6.048  48.569  1.00  0.00     0.071 A 
HETATM    4  C5  UNL     1      28.131   6.561  48.180  1.00  0.00     0.060 A 
HETATM    5  C6  UNL     1      28.017   7.884  47.917  1.00  0.00     0.001 A 
HETATM    6  C7  UNL     1      26.685   7.439  48.305  1.00  0.00     0.101 A 
HETATM    7  N1  UNL     1      25.566   8.036  48.420  1.00  0.00    -0.266 NA
HETATM    8  C8  UNL     1      24.340   7.479  48.813  1.00  0.00     0.224 A 
HETATM    9  N2  UNL     1      24.494   6.269  49.049  1.00  0.00    -0.247 NA
HETATM   10  C9  UNL     1      25.628   5.461  48.982  1.00  0.00     0.356 A 
ENDROOT
BRANCH  10  11
HETATM   11  N3  UNL     1      25.782   4.882  50.348  1.00  0.00     0.113 NA
HETATM   12  H8  UNL     1      26.413   5.442  50.921  1.00  0.00     0.319 HD
BRANCH  11  13
HETATM   13  C10 UNL     1      24.571   4.437  50.916  1.00  0.00     0.314 C 
BRANCH  13  14
HETATM   14  C11 UNL     1      24.570   3.119  51.551  1.00  0.00     0.004 A 
HETATM   15  C12 UNL     1      25.550   2.150  51.519  1.00  0.00     0.018 A 
HETATM   16  C13 UNL     1      25.450   0.937  52.168  1.00  0.00    -0.061 A 
HETATM   17  C14 UNL     1      26.603  -0.007  52.035  1.00  0.00     0.048 C 
HETATM   18  C15 UNL     1      24.311   0.653  52.900  1.00  0.00     0.009 A 
HETATM   19  C16 UNL     1      23.313   1.615  52.946  1.00  0.00     0.038 A 
HETATM   20  C17 UNL     1      23.418   2.830  52.292  1.00  0.00     0.076 A 
BRANCH  20  21
HETATM   21  O2  UNL     1      22.365   3.728  52.398  1.00  0.00    -0.355 OA
HETATM   22  C18 UNL     1      21.046   3.384  52.053  1.00  0.00     0.210 C 
ENDBRANCH  20  21
ENDBRANCH  13  14
ENDBRANCH  11  13
ENDBRANCH  10  11
BRANCH   1  23
HETATM   23  O1  UNL     1      30.360   4.936  48.044  1.00  0.00    -0.363 OA
HETATM   24  C1  UNL     1      31.387   5.943  48.168  1.00  0.00     0.209 C 
ENDBRANCH   1  23
TORSDOF 5
ENDMDL
MODEL 9
REMARK VINA RESULT:      -7.2      3.001      7.076
REMARK  5 active torsions:
REMARK  status: ('A' for Active; 'I' for Inactive)
REMARK    1  A    between atoms: O1_2  and  C2_3 
REMARK    2  A    between atoms: C9_12  and  N3_13 
REMARK    3  A    between atoms: N3_13  and  C10_14 
REMARK    4  A    between atoms: C10_14  and  C11_15 
REMARK    5  A    between atoms: C17_21  and  O2_22 
ROOT
HETATM    1  C2  UNL     1      24.404   3.662  51.441  1.00  0.00     0.045 A 
HETATM    2  C3  UNL     1      23.915   2.774  52.264  1.00  0.00     0.077 A 
HETATM    3  C4  UNL     1      24.842   1.625  52.352  1.00  0.00     0.071 A 
HETATM    4  C5  UNL     1      25.384   2.573  51.461  1.00  0.00     0.060 A 
HETATM    5  C6  UNL     1      26.565   2.121  50.982  1.00  0.00     0.001 A 
HETATM    6  C7  UNL     1      26.084   1.088  51.890  1.00  0.00     0.101 A 
HETATM    7  N1  UNL     1      26.551  -0.039  52.254  1.00  0.00    -0.266 NA
HETATM    8  C8  UNL     1      25.972  -0.953  53.147  1.00  0.00     0.224 A 
HETATM    9  N2  UNL     1      24.889  -0.499  53.556  1.00  0.00    -0.247 NA
HETATM   10  C9  UNL     1      24.229   0.694  53.267  1.00  0.00     0.356 A 
ENDROOT
BRANCH  10  11
HETATM   11  N3  UNL     1      22.895   0.290  52.740  1.00  0.00     0.113 NA
HETATM   12  H8  UNL     1      22.976  -0.467  52.060  1.00  0.00     0.319 HD
BRANCH  11  13
HETATM   13  C10 UNL     1      21.895   0.203  53.730  1.00  0.00     0.314 C 
BRANCH  13  14
HETATM   14  C11 UNL     1      20.548  -0.167  53.295  1.00  0.00     0.004 A 
HETATM   15  C12 UNL     1      19.787  -1.249  53.684  1.00  0.00     0.018 A 
HETATM   16  C13 UNL     1      18.514  -1.497  53.216  1.00  0.00    -0.061 A 
HETATM   17  C14 UNL     1      17.819  -2.716  53.738  1.00  0.00     0.048 C 
HETATM   18  C15 UNL     1      17.944  -0.625  52.305  1.00  0.00     0.009 A 
HETATM   19  C16 UNL     1      18.693   0.470  51.902  1.00  0.00     0.038 A 
HETATM   20  C17 UNL     1      19.970   0.715  52.373  1.00  0.00     0.076 A 
BRANCH  20  21
HETATM   21  O2  UNL     1      20.640   1.839  51.909  1.00  0.00    -0.355 OA
HETATM   22  C18 UNL     1      20.169   3.143  52.145  1.00  0.00     0.210 C 
ENDBRANCH  20  21
ENDBRANCH  13  14
ENDBRANCH  11  13
ENDBRANCH  10  11
BRANCH   1  23
HETATM   23  O1  UNL     1      24.062   4.936  50.915  1.00  0.00    -0.363 OA
HETATM   24  C1  UNL     1      25.124   5.599  50.197  1.00  0.00     0.209 C 
ENDBRANCH   1  23
TORSDOF 5
ENDMDL
