MODEL 1
REMARK VINA RESULT:      -9.9      0.000      0.000
REMARK  3 active torsions:
REMARK  status: ('A' for Active; 'I' for Inactive)
REMARK    1  A    between atoms: N2_11  and  C10_12 
REMARK    2  A    between atoms: C13_15  and  C14_16 
REMARK    3  A    between atoms: N4_19  and  C16_20 
ROOT
HETATM    1  C10 UNL     1      26.645   6.498  48.209  1.00  0.00     0.156 A 
HETATM    2  C11 UNL     1      25.212   6.885  48.246  1.00  0.00     0.005 A 
HETATM    3  C12 UNL     1      24.522   5.962  48.895  1.00  0.00     0.010 A 
HETATM    4  C13 UNL     1      25.418   4.898  49.342  1.00  0.00    -0.025 A 
HETATM    5  C21 UNL     1      26.640   5.209  48.945  1.00  0.00     0.016 A 
ENDROOT
BRANCH   1   6
HETATM    6  N2  UNL     1      27.505   7.476  48.834  1.00  0.00    -0.262 NA
HETATM    7  C9  UNL     1      28.656   7.709  48.279  1.00  0.00     0.127 C 
HETATM    8  C8  UNL     1      29.548   7.335  47.130  1.00  0.00     0.121 C 
HETATM    9  N6  UNL     1      29.603   8.638  48.775  1.00  0.00    -0.229 NA
HETATM   10  C7  UNL     1      30.876   6.992  47.690  1.00  0.00    -0.022 A 
HETATM   11  C3  UNL     1      31.897   7.906  47.759  1.00  0.00     0.062 A 
HETATM   12  C6  UNL     1      31.081   5.720  48.163  1.00  0.00     0.011 A 
HETATM   13  C2  UNL     1      31.868   9.292  47.313  1.00  0.00     0.030 C 
HETATM   14  N1  UNL     1      33.084   7.551  48.286  1.00  0.00    -0.261 NA
HETATM   15  C1  UNL     1      31.507  10.502  47.677  1.00  0.00    -0.005 C 
HETATM   16  C23 UNL     1      30.900  11.339  48.728  1.00  0.00     0.147 C 
HETATM   17  N7  UNL     1      30.494  10.499  49.863  1.00  0.00    -0.381 N 
HETATM   18  C22 UNL     1      29.381   9.679  49.451  1.00  0.00     0.204 C 
HETATM   19  H23 UNL     1      30.720  10.282  50.859  1.00  0.00     0.160 HD
HETATM   20  C4  UNL     1      33.301   6.305  48.756  1.00  0.00     0.117 A 
HETATM   21  C5  UNL     1      32.292   5.375  48.696  1.00  0.00     0.020 A 
ENDBRANCH   1   6
BRANCH   4  22
HETATM   22  C14 UNL     1      25.009   3.721  50.084  1.00  0.00     0.010 A 
HETATM   23  C15 UNL     1      23.799   3.077  50.066  1.00  0.00     0.152 A 
HETATM   24  N3  UNL     1      23.845   2.030  50.902  1.00  0.00    -0.184 NA
HETATM   25  N4  UNL     1      25.047   1.959  51.474  1.00  0.00    -0.275 N 
HETATM   26  C20 UNL     1      25.754   2.993  50.972  1.00  0.00     0.126 A 
BRANCH  25  27
HETATM   27  C16 UNL     1      25.433   0.939  52.436  1.00  0.00     0.121 C 
HETATM   28  C17 UNL     1      26.689   0.221  51.952  1.00  0.00     0.043 C 
HETATM   29  C18 UNL     1      26.700  -1.167  52.492  1.00  0.00     0.101 C 
HETATM   30  N5  UNL     1      26.474  -1.285  53.903  1.00  0.00    -0.268 NA
HETATM   31  S1  UNL     1      26.526   0.238  54.775  1.00  0.00    -0.083 SA
HETATM   32  H17 UNL     1      27.071  -1.979  54.383  1.00  0.00     0.135 HD
HETATM   33  C19 UNL     1      25.859   1.597  53.755  1.00  0.00     0.118 C 
ENDBRANCH  25  27
ENDBRANCH   4  22
TORSDOF 3
ENDMDL
MODEL 2
REMARK VINA RESULT:      -9.9      5.264      9.207
REMARK  3 active torsions:
REMARK  status: ('A' for Active; 'I' for Inactive)
REMARK    1  A    between atoms: N2_11  and  C10_12 
REMARK    2  A    between atoms: C13_15  and  C14_16 
REMARK    3  A    between atoms: N4_19  and  C16_20 
ROOT
HETATM    1  C10 UNL     1      26.077   3.412  49.747  1.00  0.00     0.156 A 
HETATM    2  C11 UNL     1      26.315   4.748  49.145  1.00  0.00     0.005 A 
HETATM    3  C12 UNL     1      25.160   5.375  48.991  1.00  0.00     0.010 A 
HETATM    4  C13 UNL     1      24.070   4.529  49.470  1.00  0.00    -0.025 A 
HETATM    5  C21 UNL     1      24.601   3.398  49.904  1.00  0.00     0.016 A 
ENDROOT
BRANCH   1   6
HETATM    6  N2  UNL     1      26.757   3.237  51.008  1.00  0.00    -0.262 NA
HETATM    7  C9  UNL     1      26.834   2.033  51.489  1.00  0.00     0.127 C 
HETATM    8  C8  UNL     1      26.463   0.599  51.239  1.00  0.00     0.121 C 
HETATM    9  N6  UNL     1      27.468   1.705  52.713  1.00  0.00    -0.229 NA
HETATM   10  C7  UNL     1      25.780   0.097  52.454  1.00  0.00    -0.022 A 
HETATM   11  C3  UNL     1      26.449  -0.590  53.436  1.00  0.00     0.062 A 
HETATM   12  C6  UNL     1      24.437   0.338  52.601  1.00  0.00     0.011 A 
HETATM   13  C2  UNL     1      27.863  -0.937  53.458  1.00  0.00     0.030 C 
HETATM   14  N1  UNL     1      25.788  -1.018  54.528  1.00  0.00    -0.261 NA
HETATM   15  C1  UNL     1      29.053  -0.465  53.754  1.00  0.00    -0.005 C 
HETATM   16  C23 UNL     1      29.830   0.686  54.251  1.00  0.00     0.147 C 
HETATM   17  N7  UNL     1      28.930   1.813  54.528  1.00  0.00    -0.381 N 
HETATM   18  C22 UNL     1      28.420   2.312  53.273  1.00  0.00     0.204 C 
HETATM   19  H23 UNL     1      28.526   2.383  55.304  1.00  0.00     0.160 HD
HETATM   20  C4  UNL     1      24.468  -0.788  54.687  1.00  0.00     0.117 A 
HETATM   21  C5  UNL     1      23.779  -0.103  53.715  1.00  0.00     0.020 A 
ENDBRANCH   1   6
BRANCH   4  22
HETATM   22  C14 UNL     1      22.666   4.891  49.454  1.00  0.00     0.010 A 
HETATM   23  C15 UNL     1      21.572   4.075  49.586  1.00  0.00     0.152 A 
HETATM   24  N3  UNL     1      20.458   4.817  49.514  1.00  0.00    -0.184 NA
HETATM   25  N4  UNL     1      20.778   6.100  49.339  1.00  0.00    -0.275 N 
HETATM   26  C20 UNL     1      22.126   6.140  49.303  1.00  0.00     0.126 A 
BRANCH  25  27
HETATM   27  C16 UNL     1      19.806   7.174  49.220  1.00  0.00     0.121 C 
HETATM   28  C17 UNL     1      20.444   8.498  49.629  1.00  0.00     0.043 C 
HETATM   29  C18 UNL     1      19.390   9.408  50.158  1.00  0.00     0.101 C 
HETATM   30  N5  UNL     1      18.228   9.558  49.332  1.00  0.00    -0.268 NA
HETATM   31  S1  UNL     1      18.393   8.882  47.721  1.00  0.00    -0.083 SA
HETATM   32  H17 UNL     1      17.862  10.522  49.267  1.00  0.00     0.135 HD
HETATM   33  C19 UNL     1      19.427   7.378  47.747  1.00  0.00     0.118 C 
ENDBRANCH  25  27
ENDBRANCH   4  22
TORSDOF 3
ENDMDL
MODEL 3
REMARK VINA RESULT:      -9.7      6.213      8.703
REMARK  3 active torsions:
REMARK  status: ('A' for Active; 'I' for Inactive)
REMARK    1  A    between atoms: N2_11  and  C10_12 
REMARK    2  A    between atoms: C13_15  and  C14_16 
REMARK    3  A    between atoms: N4_19  and  C16_20 
ROOT
HETATM    1  C10 UNL     1      20.363  -0.350  52.426  1.00  0.00     0.156 A 
HETATM    2  C11 UNL     1      19.994  -0.023  53.827  1.00  0.00     0.005 A 
HETATM    3  C12 UNL     1      21.077  -0.048  54.586  1.00  0.00     0.010 A 
HETATM    4  C13 UNL     1      22.243  -0.386  53.774  1.00  0.00    -0.025 A 
HETATM    5  C21 UNL     1      21.829  -0.560  52.530  1.00  0.00     0.016 A 
ENDROOT
BRANCH   1   6
HETATM    6  N2  UNL     1      20.031   0.706  51.499  1.00  0.00    -0.262 NA
HETATM    7  C9  UNL     1      21.013   1.321  50.910  1.00  0.00     0.127 C 
HETATM    8  C8  UNL     1      22.508   1.384  50.790  1.00  0.00     0.121 C 
HETATM    9  N6  UNL     1      20.846   2.374  49.978  1.00  0.00    -0.229 NA
HETATM   10  C7  UNL     1      22.913   2.793  51.004  1.00  0.00    -0.022 A 
HETATM   11  C3  UNL     1      23.121   3.659  49.959  1.00  0.00     0.062 A 
HETATM   12  C6  UNL     1      23.075   3.243  52.290  1.00  0.00     0.011 A 
HETATM   13  C2  UNL     1      22.998   3.368  48.539  1.00  0.00     0.030 C 
HETATM   14  N1  UNL     1      23.478   4.934  50.203  1.00  0.00    -0.261 NA
HETATM   15  C1  UNL     1      22.126   3.277  47.560  1.00  0.00    -0.005 C 
HETATM   16  C23 UNL     1      20.711   3.385  47.160  1.00  0.00     0.147 C 
HETATM   17  N7  UNL     1      19.887   3.717  48.330  1.00  0.00    -0.381 N 
HETATM   18  C22 UNL     1      19.864   2.578  49.214  1.00  0.00     0.204 C 
HETATM   19  H23 UNL     1      19.312   4.481  48.752  1.00  0.00     0.160 HD
HETATM   20  C4  UNL     1      23.640   5.392  51.462  1.00  0.00     0.117 A 
HETATM   21  C5  UNL     1      23.438   4.540  52.522  1.00  0.00     0.020 A 
ENDBRANCH   1   6
BRANCH   4  22
HETATM   22  C14 UNL     1      23.599  -0.506  54.272  1.00  0.00     0.010 A 
HETATM   23  C15 UNL     1      24.066  -1.282  55.301  1.00  0.00     0.152 A 
HETATM   24  N3  UNL     1      25.388  -1.094  55.430  1.00  0.00    -0.184 NA
HETATM   25  N4  UNL     1      25.812  -0.218  54.519  1.00  0.00    -0.275 N 
HETATM   26  C20 UNL     1      24.717   0.138  53.814  1.00  0.00     0.126 A 
BRANCH  25  27
HETATM   27  C16 UNL     1      27.194   0.212  54.383  1.00  0.00     0.121 C 
HETATM   28  C17 UNL     1      27.854  -0.528  53.223  1.00  0.00     0.043 C 
HETATM   29  C18 UNL     1      29.317  -0.639  53.482  1.00  0.00     0.101 C 
HETATM   30  N5  UNL     1      29.978   0.582  53.839  1.00  0.00    -0.268 NA
HETATM   31  S1  UNL     1      29.005   2.025  53.612  1.00  0.00    -0.083 SA
HETATM   32  H17 UNL     1      30.905   0.719  53.403  1.00  0.00     0.135 HD
HETATM   33  C19 UNL     1      27.246   1.688  53.965  1.00  0.00     0.118 C 
ENDBRANCH  25  27
ENDBRANCH   4  22
TORSDOF 3
ENDMDL
MODEL 4
REMARK VINA RESULT:      -9.7      3.018      8.945
REMARK  3 active torsions:
REMARK  status: ('A' for Active; 'I' for Inactive)
REMARK    1  A    between atoms: N2_11  and  C10_12 
REMARK    2  A    between atoms: C13_15  and  C14_16 
REMARK    3  A    between atoms: N4_19  and  C16_20 
ROOT
HETATM    1  C10 UNL     1      24.760   5.709  49.551  1.00  0.00     0.156 A 
HETATM    2  C11 UNL     1      24.526   6.642  48.420  1.00  0.00     0.005 A 
HETATM    3  C12 UNL     1      25.677   6.919  47.830  1.00  0.00     0.010 A 
HETATM    4  C13 UNL     1      26.761   6.206  48.501  1.00  0.00    -0.025 A 
HETATM    5  C21 UNL     1      26.230   5.510  49.493  1.00  0.00     0.016 A 
ENDROOT
BRANCH   1   6
HETATM    6  N2  UNL     1      24.040   4.466  49.409  1.00  0.00    -0.262 NA
HETATM    7  C9  UNL     1      23.926   3.711  50.461  1.00  0.00     0.127 C 
HETATM    8  C8  UNL     1      24.277   3.596  51.916  1.00  0.00     0.121 C 
HETATM    9  N6  UNL     1      23.250   2.467  50.476  1.00  0.00    -0.229 NA
HETATM   10  C7  UNL     1      24.915   2.274  52.118  1.00  0.00    -0.022 A 
HETATM   11  C3  UNL     1      24.204   1.179  52.540  1.00  0.00     0.062 A 
HETATM   12  C6  UNL     1      26.257   2.146  51.863  1.00  0.00     0.011 A 
HETATM   13  C2  UNL     1      22.784   1.120  52.856  1.00  0.00     0.030 C 
HETATM   14  N1  UNL     1      24.824  -0.006  52.699  1.00  0.00    -0.261 NA
HETATM   15  C1  UNL     1      21.595   0.986  52.313  1.00  0.00    -0.005 C 
HETATM   16  C23 UNL     1      20.825   0.808  51.068  1.00  0.00     0.147 C 
HETATM   17  N7  UNL     1      21.738   0.781  49.917  1.00  0.00    -0.381 N 
HETATM   18  C22 UNL     1      22.293   2.101  49.741  1.00  0.00     0.204 C 
HETATM   19  H23 UNL     1      22.129   0.152  49.181  1.00  0.00     0.160 HD
HETATM   20  C4  UNL     1      26.143  -0.149  52.452  1.00  0.00     0.117 A 
HETATM   21  C5  UNL     1      26.873   0.937  52.030  1.00  0.00     0.020 A 
ENDBRANCH   1   6
BRANCH   4  22
HETATM   22  C14 UNL     1      28.160   6.273  48.126  1.00  0.00     0.010 A 
HETATM   23  C15 UNL     1      28.783   7.179  47.308  1.00  0.00     0.152 A 
HETATM   24  N3  UNL     1      30.087   6.877  47.229  1.00  0.00    -0.184 NA
HETATM   25  N4  UNL     1      30.349   5.800  47.969  1.00  0.00    -0.275 N 
HETATM   26  C20 UNL     1      29.170   5.434  48.515  1.00  0.00     0.126 A 
BRANCH  25  27
HETATM   27  C16 UNL     1      31.668   5.205  48.105  1.00  0.00     0.121 C 
HETATM   28  C17 UNL     1      31.868   4.140  47.031  1.00  0.00     0.043 C 
HETATM   29  C18 UNL     1      32.823   3.111  47.532  1.00  0.00     0.101 C 
HETATM   30  N5  UNL     1      34.047   3.616  48.080  1.00  0.00    -0.268 NA
HETATM   31  S1  UNL     1      34.322   5.325  47.786  1.00  0.00    -0.083 SA
HETATM   32  H17 UNL     1      34.893   3.081  47.822  1.00  0.00     0.135 HD
HETATM   33  C19 UNL     1      32.749   6.251  47.804  1.00  0.00     0.118 C 
ENDBRANCH  25  27
ENDBRANCH   4  22
TORSDOF 3
ENDMDL
MODEL 5
REMARK VINA RESULT:      -9.5      3.070      9.776
REMARK  3 active torsions:
REMARK  status: ('A' for Active; 'I' for Inactive)
REMARK    1  A    between atoms: N2_11  and  C10_12 
REMARK    2  A    between atoms: C13_15  and  C14_16 
REMARK    3  A    between atoms: N4_19  and  C16_20 
ROOT
HETATM    1  C10 UNL     1      22.877   3.800  51.146  1.00  0.00     0.156 A 
HETATM    2  C11 UNL     1      22.381   4.274  49.829  1.00  0.00     0.005 A 
HETATM    3  C12 UNL     1      23.402   4.682  49.093  1.00  0.00     0.010 A 
HETATM    4  C13 UNL     1      24.647   4.517  49.839  1.00  0.00    -0.025 A 
HETATM    5  C21 UNL     1      24.342   4.009  51.022  1.00  0.00     0.016 A 
ENDROOT
BRANCH   1   6
HETATM    6  N2  UNL     1      22.548   2.418  51.403  1.00  0.00    -0.262 NA
HETATM    7  C9  UNL     1      23.213   1.804  52.335  1.00  0.00     0.127 C 
HETATM    8  C8  UNL     1      24.300   1.965  53.359  1.00  0.00     0.121 C 
HETATM    9  N6  UNL     1      23.003   0.452  52.701  1.00  0.00    -0.229 NA
HETATM   10  C7  UNL     1      25.267   0.861  53.160  1.00  0.00    -0.022 A 
HETATM   11  C3  UNL     1      25.206  -0.302  53.886  1.00  0.00     0.062 A 
HETATM   12  C6  UNL     1      26.247   1.008  52.210  1.00  0.00     0.011 A 
HETATM   13  C2  UNL     1      24.246  -0.639  54.927  1.00  0.00     0.030 C 
HETATM   14  N1  UNL     1      26.102  -1.283  53.663  1.00  0.00    -0.261 NA
HETATM   15  C1  UNL     1      23.035  -1.110  55.122  1.00  0.00    -0.005 C 
HETATM   16  C23 UNL     1      21.801  -1.622  54.499  1.00  0.00     0.147 C 
HETATM   17  N7  UNL     1      21.931  -1.592  53.037  1.00  0.00    -0.381 N 
HETATM   18  C22 UNL     1      21.938  -0.216  52.604  1.00  0.00     0.204 C 
HETATM   19  H23 UNL     1      22.020  -2.208  52.197  1.00  0.00     0.160 HD
HETATM   20  C4  UNL     1      27.070  -1.154  52.732  1.00  0.00     0.117 A 
HETATM   21  C5  UNL     1      27.149   0.003  51.995  1.00  0.00     0.020 A 
ENDBRANCH   1   6
BRANCH   4  22
HETATM   22  C14 UNL     1      25.966   4.861  49.346  1.00  0.00     0.010 A 
HETATM   23  C15 UNL     1      27.013   4.027  49.052  1.00  0.00     0.152 A 
HETATM   24  N3  UNL     1      28.052   4.758  48.623  1.00  0.00    -0.184 NA
HETATM   25  N4  UNL     1      27.728   6.051  48.623  1.00  0.00    -0.275 N 
HETATM   26  C20 UNL     1      26.454   6.109  49.065  1.00  0.00     0.126 A 
BRANCH  25  27
HETATM   27  C16 UNL     1      28.627   7.117  48.214  1.00  0.00     0.121 C 
HETATM   28  C17 UNL     1      29.990   6.535  47.855  1.00  0.00     0.043 C 
HETATM   29  C18 UNL     1      31.042   7.561  48.101  1.00  0.00     0.101 C 
HETATM   30  N5  UNL     1      30.796   8.852  47.528  1.00  0.00    -0.268 NA
HETATM   31  S1  UNL     1      29.455   8.897  46.396  1.00  0.00    -0.083 SA
HETATM   32  H17 UNL     1      31.622   9.304  47.103  1.00  0.00     0.135 HD
HETATM   33  C19 UNL     1      28.130   7.749  46.907  1.00  0.00     0.118 C 
ENDBRANCH  25  27
ENDBRANCH   4  22
TORSDOF 3
ENDMDL
MODEL 6
REMARK VINA RESULT:      -9.4      5.901      9.940
REMARK  3 active torsions:
REMARK  status: ('A' for Active; 'I' for Inactive)
REMARK    1  A    between atoms: N2_11  and  C10_12 
REMARK    2  A    between atoms: C13_15  and  C14_16 
REMARK    3  A    between atoms: N4_19  and  C16_20 
ROOT
HETATM    1  C10 UNL     1      22.259  -0.076  54.094  1.00  0.00     0.156 A 
HETATM    2  C11 UNL     1      21.427  -1.207  54.577  1.00  0.00     0.005 A 
HETATM    3  C12 UNL     1      20.313  -1.271  53.867  1.00  0.00     0.010 A 
HETATM    4  C13 UNL     1      20.304  -0.209  52.864  1.00  0.00    -0.025 A 
HETATM    5  C21 UNL     1      21.426   0.479  52.998  1.00  0.00     0.016 A 
ENDROOT
BRANCH   1   6
HETATM    6  N2  UNL     1      23.559  -0.496  53.627  1.00  0.00    -0.262 NA
HETATM    7  C9  UNL     1      24.463   0.420  53.458  1.00  0.00     0.127 C 
HETATM    8  C8  UNL     1      24.733   1.894  53.561  1.00  0.00     0.121 C 
HETATM    9  N6  UNL     1      25.781   0.162  53.006  1.00  0.00    -0.229 NA
HETATM   10  C7  UNL     1      25.300   2.335  52.265  1.00  0.00    -0.022 A 
HETATM   11  C3  UNL     1      26.653   2.435  52.057  1.00  0.00     0.062 A 
HETATM   12  C6  UNL     1      24.439   2.644  51.242  1.00  0.00     0.011 A 
HETATM   13  C2  UNL     1      27.713   2.152  53.013  1.00  0.00     0.030 C 
HETATM   14  N1  UNL     1      27.122   2.831  50.858  1.00  0.00    -0.261 NA
HETATM   15  C1  UNL     1      28.428   1.176  53.526  1.00  0.00    -0.005 C 
HETATM   16  C23 UNL     1      28.697  -0.273  53.540  1.00  0.00     0.147 C 
HETATM   17  N7  UNL     1      27.788  -0.959  52.612  1.00  0.00    -0.381 N 
HETATM   18  C22 UNL     1      26.451  -0.896  53.150  1.00  0.00     0.204 C 
HETATM   19  H23 UNL     1      27.761  -1.475  51.704  1.00  0.00     0.160 HD
HETATM   20  C4  UNL     1      26.288   3.137  49.842  1.00  0.00     0.117 A 
HETATM   21  C5  UNL     1      24.930   3.044  50.031  1.00  0.00     0.020 A 
ENDBRANCH   1   6
BRANCH   4  22
HETATM   22  C14 UNL     1      19.239   0.026  51.909  1.00  0.00     0.010 A 
HETATM   23  C15 UNL     1      19.303   0.665  50.698  1.00  0.00     0.152 A 
HETATM   24  N3  UNL     1      18.086   0.663  50.134  1.00  0.00    -0.184 NA
HETATM   25  N4  UNL     1      17.217   0.043  50.933  1.00  0.00    -0.275 N 
HETATM   26  C20 UNL     1      17.925  -0.344  52.014  1.00  0.00     0.126 A 
BRANCH  25  27
HETATM   27  C16 UNL     1      15.808  -0.136  50.622  1.00  0.00     0.121 C 
HETATM   28  C17 UNL     1      15.362  -1.536  51.030  1.00  0.00     0.043 C 
HETATM   29  C18 UNL     1      14.232  -1.965  50.159  1.00  0.00     0.101 C 
HETATM   30  N5  UNL     1      13.154  -1.028  50.036  1.00  0.00    -0.268 NA
HETATM   31  S1  UNL     1      13.228   0.313  51.167  1.00  0.00    -0.083 SA
HETATM   32  H17 UNL     1      12.209  -1.446  50.057  1.00  0.00     0.135 HD
HETATM   33  C19 UNL     1      14.957   0.799  51.491  1.00  0.00     0.118 C 
ENDBRANCH  25  27
ENDBRANCH   4  22
TORSDOF 3
ENDMDL
MODEL 7
REMARK VINA RESULT:      -9.4      2.116      2.478
REMARK  3 active torsions:
REMARK  status: ('A' for Active; 'I' for Inactive)
REMARK    1  A    between atoms: N2_11  and  C10_12 
REMARK    2  A    between atoms: C13_15  and  C14_16 
REMARK    3  A    between atoms: N4_19  and  C16_20 
ROOT
HETATM    1  C10 UNL     1      26.047   5.658  48.721  1.00  0.00     0.156 A 
HETATM    2  C11 UNL     1      24.567   5.782  48.698  1.00  0.00     0.005 A 
HETATM    3  C12 UNL     1      24.035   4.860  49.483  1.00  0.00     0.010 A 
HETATM    4  C13 UNL     1      25.092   4.055  50.090  1.00  0.00    -0.025 A 
HETATM    5  C21 UNL     1      26.250   4.517  49.648  1.00  0.00     0.016 A 
ENDROOT
BRANCH   1   6
HETATM    6  N2  UNL     1      26.702   6.857  49.186  1.00  0.00    -0.262 NA
HETATM    7  C9  UNL     1      27.758   7.255  48.544  1.00  0.00     0.127 C 
HETATM    8  C8  UNL     1      28.670   6.940  47.392  1.00  0.00     0.121 C 
HETATM    9  N6  UNL     1      28.505   8.410  48.881  1.00  0.00    -0.229 NA
HETATM   10  C7  UNL     1      30.058   6.945  47.909  1.00  0.00    -0.022 A 
HETATM   11  C3  UNL     1      30.866   8.051  47.819  1.00  0.00     0.062 A 
HETATM   12  C6  UNL     1      30.543   5.807  48.503  1.00  0.00     0.011 A 
HETATM   13  C2  UNL     1      30.531   9.339  47.229  1.00  0.00     0.030 C 
HETATM   14  N1  UNL     1      32.118   8.012  48.312  1.00  0.00    -0.261 NA
HETATM   15  C1  UNL     1      29.936  10.483  47.481  1.00  0.00    -0.005 C 
HETATM   16  C23 UNL     1      29.202  11.296  48.468  1.00  0.00     0.147 C 
HETATM   17  N7  UNL     1      29.020  10.530  49.708  1.00  0.00    -0.381 N 
HETATM   18  C22 UNL     1      28.092   9.456  49.452  1.00  0.00     0.204 C 
HETATM   19  H23 UNL     1      29.321  10.482  50.708  1.00  0.00     0.160 HD
HETATM   20  C4  UNL     1      32.609   6.901  48.901  1.00  0.00     0.117 A 
HETATM   21  C5  UNL     1      31.816   5.783  48.999  1.00  0.00     0.020 A 
ENDBRANCH   1   6
BRANCH   4  22
HETATM   22  C14 UNL     1      24.878   2.952  51.005  1.00  0.00     0.010 A 
HETATM   23  C15 UNL     1      25.757   1.968  51.377  1.00  0.00     0.152 A 
HETATM   24  N3  UNL     1      25.154   1.143  52.246  1.00  0.00    -0.184 NA
HETATM   25  N4  UNL     1      23.902   1.549  52.461  1.00  0.00    -0.275 N 
HETATM   26  C20 UNL     1      23.739   2.653  51.703  1.00  0.00     0.126 A 
BRANCH  25  27
HETATM   27  C16 UNL     1      22.969   0.878  53.352  1.00  0.00     0.121 C 
HETATM   28  C17 UNL     1      21.633   0.675  52.643  1.00  0.00     0.043 C 
HETATM   29  C18 UNL     1      20.541   0.648  53.656  1.00  0.00     0.101 C 
HETATM   30  N5  UNL     1      20.746  -0.236  54.766  1.00  0.00    -0.268 NA
HETATM   31  S1  UNL     1      22.100  -1.338  54.573  1.00  0.00    -0.083 SA
HETATM   32  H17 UNL     1      19.909  -0.765  55.061  1.00  0.00     0.135 HD
HETATM   33  C19 UNL     1      23.459  -0.546  53.647  1.00  0.00     0.118 C 
ENDBRANCH  25  27
ENDBRANCH   4  22
TORSDOF 3
ENDMDL
MODEL 8
REMARK VINA RESULT:      -9.4      5.063      8.702
REMARK  3 active torsions:
REMARK  status: ('A' for Active; 'I' for Inactive)
REMARK    1  A    between atoms: N2_11  and  C10_12 
REMARK    2  A    between atoms: C13_15  and  C14_16 
REMARK    3  A    between atoms: N4_19  and  C16_20 
ROOT
HETATM    1  C10 UNL     1      26.068   3.369  49.708  1.00  0.00     0.156 A 
HETATM    2  C11 UNL     1      26.186   4.742  49.155  1.00  0.00     0.005 A 
HETATM    3  C12 UNL     1      24.978   5.256  48.988  1.00  0.00     0.010 A 
HETATM    4  C13 UNL     1      23.967   4.289  49.407  1.00  0.00    -0.025 A 
HETATM    5  C21 UNL     1      24.597   3.203  49.821  1.00  0.00     0.016 A 
ENDROOT
BRANCH   1   6
HETATM    6  N2  UNL     1      26.729   3.220  50.983  1.00  0.00    -0.262 NA
HETATM    7  C9  UNL     1      26.813   2.024  51.483  1.00  0.00     0.127 C 
HETATM    8  C8  UNL     1      26.464   0.583  51.247  1.00  0.00     0.121 C 
HETATM    9  N6  UNL     1      27.431   1.721  52.721  1.00  0.00    -0.229 NA
HETATM   10  C7  UNL     1      25.767   0.089  52.457  1.00  0.00    -0.022 A 
HETATM   11  C3  UNL     1      26.428  -0.576  53.459  1.00  0.00     0.062 A 
HETATM   12  C6  UNL     1      24.419   0.315  52.578  1.00  0.00     0.011 A 
HETATM   13  C2  UNL     1      27.845  -0.905  53.510  1.00  0.00     0.030 C 
HETATM   14  N1  UNL     1      25.754  -0.997  54.547  1.00  0.00    -0.261 NA
HETATM   15  C1  UNL     1      29.024  -0.414  53.819  1.00  0.00    -0.005 C 
HETATM   16  C23 UNL     1      29.778   0.753  54.312  1.00  0.00     0.147 C 
HETATM   17  N7  UNL     1      28.860   1.873  54.558  1.00  0.00    -0.381 N 
HETATM   18  C22 UNL     1      28.366   2.348  53.288  1.00  0.00     0.204 C 
HETATM   19  H23 UNL     1      28.436   2.449  55.319  1.00  0.00     0.160 HD
HETATM   20  C4  UNL     1      24.429  -0.782  54.681  1.00  0.00     0.117 A 
HETATM   21  C5  UNL     1      23.748  -0.119  53.687  1.00  0.00     0.020 A 
ENDBRANCH   1   6
BRANCH   4  22
HETATM   22  C14 UNL     1      22.534   4.509  49.362  1.00  0.00     0.010 A 
HETATM   23  C15 UNL     1      21.853   5.698  49.331  1.00  0.00     0.152 A 
HETATM   24  N3  UNL     1      20.536   5.450  49.293  1.00  0.00    -0.184 NA
HETATM   25  N4  UNL     1      20.322   4.134  49.298  1.00  0.00    -0.275 N 
HETATM   26  C20 UNL     1      21.544   3.564  49.339  1.00  0.00     0.126 A 
BRANCH  25  27
HETATM   27  C16 UNL     1      19.004   3.522  49.263  1.00  0.00     0.121 C 
HETATM   28  C17 UNL     1      18.662   3.109  47.835  1.00  0.00     0.043 C 
HETATM   29  C18 UNL     1      17.183   3.136  47.657  1.00  0.00     0.101 C 
HETATM   30  N5  UNL     1      16.426   2.441  48.656  1.00  0.00    -0.268 NA
HETATM   31  S1  UNL     1      17.389   1.440  49.729  1.00  0.00    -0.083 SA
HETATM   32  H17 UNL     1      15.629   1.892  48.294  1.00  0.00     0.135 HD
HETATM   33  C19 UNL     1      19.018   2.201  50.044  1.00  0.00     0.118 C 
ENDBRANCH  25  27
ENDBRANCH   4  22
TORSDOF 3
ENDMDL
MODEL 9
REMARK VINA RESULT:      -9.3      4.370      8.028
REMARK  3 active torsions:
REMARK  status: ('A' for Active; 'I' for Inactive)
REMARK    1  A    between atoms: N2_11  and  C10_12 
REMARK    2  A    between atoms: C13_15  and  C14_16 
REMARK    3  A    between atoms: N4_19  and  C16_20 
ROOT
HETATM    1  C10 UNL     1      25.850   1.488  53.322  1.00  0.00     0.156 A 
HETATM    2  C11 UNL     1      26.232   0.056  53.408  1.00  0.00     0.005 A 
HETATM    3  C12 UNL     1      25.143  -0.685  53.523  1.00  0.00     0.010 A 
HETATM    4  C13 UNL     1      23.959   0.171  53.522  1.00  0.00    -0.025 A 
HETATM    5  C21 UNL     1      24.370   1.423  53.407  1.00  0.00     0.016 A 
ENDROOT
BRANCH   1   6
HETATM    6  N2  UNL     1      26.295   2.114  52.098  1.00  0.00    -0.262 NA
HETATM    7  C9  UNL     1      25.469   2.917  51.498  1.00  0.00     0.127 C 
HETATM    8  C8  UNL     1      24.097   3.522  51.567  1.00  0.00     0.121 C 
HETATM    9  N6  UNL     1      25.762   3.602  50.293  1.00  0.00    -0.229 NA
HETATM   10  C7  UNL     1      23.438   3.285  50.262  1.00  0.00    -0.022 A 
HETATM   11  C3  UNL     1      23.444   4.224  49.260  1.00  0.00     0.062 A 
HETATM   12  C6  UNL     1      22.813   2.082  50.049  1.00  0.00     0.011 A 
HETATM   13  C2  UNL     1      24.052   5.545  49.299  1.00  0.00     0.030 C 
HETATM   14  N1  UNL     1      22.841   3.959  48.086  1.00  0.00    -0.261 NA
HETATM   15  C1  UNL     1      25.191   6.179  49.137  1.00  0.00    -0.005 C 
HETATM   16  C23 UNL     1      26.627   6.065  48.822  1.00  0.00     0.147 C 
HETATM   17  N7  UNL     1      26.980   4.656  48.605  1.00  0.00    -0.381 N 
HETATM   18  C22 UNL     1      26.893   3.963  49.867  1.00  0.00     0.204 C 
HETATM   19  H23 UNL     1      27.270   3.975  47.868  1.00  0.00     0.160 HD
HETATM   20  C4  UNL     1      22.223   2.780  47.862  1.00  0.00     0.117 A 
HETATM   21  C5  UNL     1      22.205   1.827  48.852  1.00  0.00     0.020 A 
ENDBRANCH   1   6
BRANCH   4  22
HETATM   22  C14 UNL     1      22.592  -0.298  53.634  1.00  0.00     0.010 A 
HETATM   23  C15 UNL     1      22.114  -1.383  54.321  1.00  0.00     0.152 A 
HETATM   24  N3  UNL     1      20.784  -1.456  54.160  1.00  0.00    -0.184 NA
HETATM   25  N4  UNL     1      20.365  -0.453  53.389  1.00  0.00    -0.275 N 
HETATM   26  C20 UNL     1      21.472   0.251  53.070  1.00  0.00     0.126 A 
BRANCH  25  27
HETATM   27  C16 UNL     1      18.977  -0.237  53.015  1.00  0.00     0.121 C 
HETATM   28  C17 UNL     1      18.878   0.012  51.513  1.00  0.00     0.043 C 
HETATM   29  C18 UNL     1      17.689   0.866  51.235  1.00  0.00     0.101 C 
HETATM   30  N5  UNL     1      16.460   0.430  51.831  1.00  0.00    -0.268 NA
HETATM   31  S1  UNL     1      16.523  -1.181  52.524  1.00  0.00    -0.083 SA
HETATM   32  H17 UNL     1      15.629   0.513  51.223  1.00  0.00     0.135 HD
HETATM   33  C19 UNL     1      18.168  -1.521  53.239  1.00  0.00     0.118 C 
ENDBRANCH  25  27
ENDBRANCH   4  22
TORSDOF 3
ENDMDL
