MODEL 1
REMARK VINA RESULT:      -8.8      0.000      0.000
REMARK  1 active torsions:
REMARK  status: ('A' for Active; 'I' for Inactive)
REMARK    1  A    between atoms: O1_2  and  C2_3 
ROOT
HETATM    1  C2  UNL     1      25.729   0.430  53.860  1.00  0.00     0.229 C 
HETATM    2  C3  UNL     1      25.308  -0.450  52.725  1.00  0.00     0.184 C 
HETATM    3  C4  UNL     1      26.514  -0.803  52.323  1.00  0.00     0.018 C 
HETATM    4  C5  UNL     1      27.616   0.132  52.833  1.00  0.00     0.087 C 
HETATM    5  C6  UNL     1      26.694   1.311  53.065  1.00  0.00     0.046 C 
HETATM    6  N1  UNL     1      26.215   2.556  52.984  1.00  0.00    -0.282 NA
HETATM    7  C7  UNL     1      24.915   2.725  53.654  1.00  0.00     0.182 C 
HETATM    8  C8  UNL     1      24.128   2.856  52.616  1.00  0.00     0.062 C 
HETATM    9  C9  UNL     1      25.215   2.751  51.627  1.00  0.00     0.098 C 
HETATM   10  N2  UNL     1      26.087   2.653  50.810  1.00  0.00    -0.192 NA
HETATM   11  C10 UNL     1      22.839   2.791  51.876  1.00  0.00     0.008 C 
HETATM   12  C11 UNL     1      22.704   3.282  50.543  1.00  0.00    -0.021 A 
HETATM   13  C12 UNL     1      23.667   4.243  50.196  1.00  0.00     0.015 A 
HETATM   14  C13 UNL     1      23.712   4.750  48.928  1.00  0.00     0.045 A 
HETATM   15  C14 UNL     1      22.805   4.315  47.990  1.00  0.00     0.138 A 
HETATM   16  F1  UNL     1      22.761   4.754  46.703  1.00  0.00    -0.204 F 
HETATM   17  C15 UNL     1      21.842   3.382  48.264  1.00  0.00     0.073 A 
HETATM   18 CL1  UNL     1      20.618   2.709  47.230  1.00  0.00    -0.081 Cl
HETATM   19  C16 UNL     1      21.854   2.917  49.551  1.00  0.00     0.039 A 
HETATM   20  C17 UNL     1      21.608   2.388  52.148  1.00  0.00     0.099 C 
HETATM   21  N3  UNL     1      20.244   2.047  52.143  1.00  0.00    -0.386 N 
HETATM   22  C18 UNL     1      19.554   3.281  52.314  1.00  0.00     0.149 C 
HETATM   23  C19 UNL     1      20.035   0.616  51.971  1.00  0.00     0.102 C 
HETATM   24  C20 UNL     1      18.536   0.433  51.730  1.00  0.00     0.036 C 
HETATM   25  C21 UNL     1      20.407  -0.207  53.125  1.00  0.00     0.002 C 
HETATM   26  C22 UNL     1      21.511  -0.678  53.636  1.00  0.00     0.067 C 
HETATM   27  C23 UNL     1      22.938  -0.855  53.656  1.00  0.00     0.312 A 
HETATM   28  O2  UNL     1      24.086  -1.182  53.960  1.00  0.00    -0.120 OA
HETATM   29  N4  UNL     1      23.890  -0.373  52.742  1.00  0.00     0.136 N 
HETATM   30  H22 UNL     1      23.769   0.121  51.835  1.00  0.00     0.335 HD
ENDROOT
BRANCH   1  31
HETATM   31  O1  UNL     1      26.520  -0.319  54.719  1.00  0.00    -0.379 OA
HETATM   32  C1  UNL     1      26.298  -0.143  56.055  1.00  0.00     0.202 C 
ENDBRANCH   1  31
TORSDOF 1
ENDMDL
MODEL 2
REMARK VINA RESULT:      -8.5      3.809      6.128
REMARK  1 active torsions:
REMARK  status: ('A' for Active; 'I' for Inactive)
REMARK    1  A    between atoms: O1_2  and  C2_3 
ROOT
HETATM    1  C2  UNL     1      23.420   5.292  49.884  1.00  0.00     0.229 C 
HETATM    2  C3  UNL     1      23.499   5.546  51.357  1.00  0.00     0.184 C 
HETATM    3  C4  UNL     1      24.327   6.573  51.312  1.00  0.00     0.018 C 
HETATM    4  C5  UNL     1      25.092   6.671  49.988  1.00  0.00     0.087 C 
HETATM    5  C6  UNL     1      24.926   5.209  49.629  1.00  0.00     0.046 C 
HETATM    6  N1  UNL     1      25.263   3.963  49.281  1.00  0.00    -0.282 NA
HETATM    7  C7  UNL     1      24.119   3.036  49.256  1.00  0.00     0.182 C 
HETATM    8  C8  UNL     1      24.379   2.310  50.314  1.00  0.00     0.062 C 
HETATM    9  C9  UNL     1      25.630   3.015  50.641  1.00  0.00     0.098 C 
HETATM   10  N2  UNL     1      26.643   3.589  50.927  1.00  0.00    -0.192 NA
HETATM   11  C10 UNL     1      24.050   1.422  51.462  1.00  0.00     0.008 C 
HETATM   12  C11 UNL     1      25.061   0.837  52.282  1.00  0.00    -0.021 A 
HETATM   13  C12 UNL     1      26.311   0.738  51.651  1.00  0.00     0.015 A 
HETATM   14  C13 UNL     1      27.396   0.268  52.336  1.00  0.00     0.045 A 
HETATM   15  C14 UNL     1      27.257  -0.112  53.651  1.00  0.00     0.138 A 
HETATM   16  F1  UNL     1      28.269  -0.593  54.421  1.00  0.00    -0.204 F 
HETATM   17  C15 UNL     1      26.067  -0.041  54.322  1.00  0.00     0.073 A 
HETATM   18 CL1  UNL     1      25.689  -0.466  55.964  1.00  0.00    -0.081 Cl
HETATM   19  C16 UNL     1      25.024   0.439  53.578  1.00  0.00     0.039 A 
HETATM   20  C17 UNL     1      22.944   0.923  51.989  1.00  0.00     0.099 C 
HETATM   21  N3  UNL     1      21.965   0.262  52.753  1.00  0.00    -0.386 N 
HETATM   22  C18 UNL     1      22.005  -1.092  52.313  1.00  0.00     0.149 C 
HETATM   23  C19 UNL     1      21.291   1.160  53.681  1.00  0.00     0.102 C 
HETATM   24  C20 UNL     1      20.458   0.269  54.602  1.00  0.00     0.036 C 
HETATM   25  C21 UNL     1      20.387   2.130  53.058  1.00  0.00     0.002 C 
HETATM   26  C22 UNL     1      20.506   3.267  52.428  1.00  0.00     0.067 C 
HETATM   27  C23 UNL     1      21.274   4.353  51.882  1.00  0.00     0.312 A 
HETATM   28  O2  UNL     1      21.620   5.391  51.317  1.00  0.00    -0.120 OA
HETATM   29  N4  UNL     1      22.666   4.543  51.920  1.00  0.00     0.136 N 
HETATM   30  H22 UNL     1      23.409   4.008  52.411  1.00  0.00     0.335 HD
ENDROOT
BRANCH   1  31
HETATM   31  O1  UNL     1      22.996   6.458  49.265  1.00  0.00    -0.379 OA
HETATM   32  C1  UNL     1      22.266   6.305  48.121  1.00  0.00     0.202 C 
ENDBRANCH   1  31
TORSDOF 1
ENDMDL
MODEL 3
REMARK VINA RESULT:      -8.2      3.964      6.312
REMARK  1 active torsions:
REMARK  status: ('A' for Active; 'I' for Inactive)
REMARK    1  A    between atoms: O1_2  and  C2_3 
ROOT
HETATM    1  C2  UNL     1      23.581   6.269  49.291  1.00  0.00     0.229 C 
HETATM    2  C3  UNL     1      23.040   6.548  50.658  1.00  0.00     0.184 C 
HETATM    3  C4  UNL     1      24.084   7.205  51.127  1.00  0.00     0.018 C 
HETATM    4  C5  UNL     1      25.362   6.959  50.319  1.00  0.00     0.087 C 
HETATM    5  C6  UNL     1      24.900   5.638  49.738  1.00  0.00     0.046 C 
HETATM    6  N1  UNL     1      24.916   4.340  49.422  1.00  0.00    -0.282 NA
HETATM    7  C7  UNL     1      23.681   3.886  48.761  1.00  0.00     0.182 C 
HETATM    8  C8  UNL     1      23.150   3.167  49.718  1.00  0.00     0.062 C 
HETATM    9  C9  UNL     1      24.257   3.389  50.665  1.00  0.00     0.098 C 
HETATM   10  N2  UNL     1      25.144   3.573  51.450  1.00  0.00    -0.192 NA
HETATM   11  C10 UNL     1      22.043   2.512  50.466  1.00  0.00     0.008 C 
HETATM   12  C11 UNL     1      22.285   1.643  51.571  1.00  0.00    -0.021 A 
HETATM   13  C12 UNL     1      23.568   1.071  51.569  1.00  0.00     0.015 A 
HETATM   14  C13 UNL     1      23.972   0.275  52.604  1.00  0.00     0.045 A 
HETATM   15  C14 UNL     1      23.113   0.034  53.651  1.00  0.00     0.138 A 
HETATM   16  F1  UNL     1      23.415  -0.741  54.727  1.00  0.00    -0.204 F 
HETATM   17  C15 UNL     1      21.852   0.560  53.714  1.00  0.00     0.073 A 
HETATM   18 CL1  UNL     1      20.629   0.378  54.935  1.00  0.00    -0.081 Cl
HETATM   19  C16 UNL     1      21.512   1.347  52.646  1.00  0.00     0.039 A 
HETATM   20  C17 UNL     1      20.725   2.470  50.365  1.00  0.00     0.099 C 
HETATM   21  N3  UNL     1      19.344   2.242  50.509  1.00  0.00    -0.386 N 
HETATM   22  C18 UNL     1      19.125   0.945  49.964  1.00  0.00     0.149 C 
HETATM   23  C19 UNL     1      18.664   3.366  51.138  1.00  0.00     0.102 C 
HETATM   24  C20 UNL     1      17.250   2.879  51.458  1.00  0.00     0.036 C 
HETATM   25  C21 UNL     1      18.547   4.565  50.305  1.00  0.00     0.002 C 
HETATM   26  C22 UNL     1      19.324   5.551  49.951  1.00  0.00     0.067 C 
HETATM   27  C23 UNL     1      20.575   6.262  49.958  1.00  0.00     0.312 A 
HETATM   28  O2  UNL     1      21.474   7.078  49.752  1.00  0.00    -0.120 OA
HETATM   29  N4  UNL     1      21.756   5.940  50.647  1.00  0.00     0.136 N 
HETATM   30  H22 UNL     1      21.951   5.197  51.348  1.00  0.00     0.335 HD
ENDROOT
BRANCH   1  31
HETATM   31  O1  UNL     1      23.920   7.480  48.704  1.00  0.00    -0.379 OA
HETATM   32  C1  UNL     1      23.849   7.532  47.340  1.00  0.00     0.202 C 
ENDBRANCH   1  31
TORSDOF 1
ENDMDL
MODEL 4
REMARK VINA RESULT:      -8.0      6.002      9.104
REMARK  1 active torsions:
REMARK  status: ('A' for Active; 'I' for Inactive)
REMARK    1  A    between atoms: O1_2  and  C2_3 
ROOT
HETATM    1  C2  UNL     1      23.767   5.373  49.305  1.00  0.00     0.229 C 
HETATM    2  C3  UNL     1      24.694   5.825  50.389  1.00  0.00     0.184 C 
HETATM    3  C4  UNL     1      23.792   5.955  51.345  1.00  0.00     0.018 C 
HETATM    4  C5  UNL     1      22.359   6.047  50.811  1.00  0.00     0.087 C 
HETATM    5  C6  UNL     1      22.761   6.518  49.429  1.00  0.00     0.046 C 
HETATM    6  N1  UNL     1      22.803   7.284  48.334  1.00  0.00    -0.282 NA
HETATM    7  C7  UNL     1      23.794   6.830  47.343  1.00  0.00     0.182 C 
HETATM    8  C8  UNL     1      24.698   7.769  47.464  1.00  0.00     0.062 C 
HETATM    9  C9  UNL     1      23.952   8.525  48.485  1.00  0.00     0.098 C 
HETATM   10  N2  UNL     1      23.362   9.142  49.327  1.00  0.00    -0.192 NA
HETATM   11  C10 UNL     1      26.064   8.354  47.381  1.00  0.00     0.008 C 
HETATM   12  C11 UNL     1      26.314   9.734  47.639  1.00  0.00    -0.021 A 
HETATM   13  C12 UNL     1      25.186  10.554  47.471  1.00  0.00     0.015 A 
HETATM   14  C13 UNL     1      25.252  11.888  47.756  1.00  0.00     0.045 A 
HETATM   15  C14 UNL     1      26.434  12.429  48.207  1.00  0.00     0.138 A 
HETATM   16  F1  UNL     1      26.607  13.742  48.518  1.00  0.00    -0.204 F 
HETATM   17  C15 UNL     1      27.568  11.686  48.391  1.00  0.00     0.073 A 
HETATM   18 CL1  UNL     1      29.140  12.175  48.947  1.00  0.00    -0.081 Cl
HETATM   19  C16 UNL     1      27.431  10.359  48.089  1.00  0.00     0.039 A 
HETATM   20  C17 UNL     1      27.267   7.911  47.056  1.00  0.00     0.099 C 
HETATM   21  N3  UNL     1      28.634   7.732  46.775  1.00  0.00    -0.386 N 
HETATM   22  C18 UNL     1      28.818   8.284  45.475  1.00  0.00     0.149 C 
HETATM   23  C19 UNL     1      29.340   7.076  47.868  1.00  0.00     0.102 C 
HETATM   24  C20 UNL     1      30.828   7.183  47.534  1.00  0.00     0.036 C 
HETATM   25  C21 UNL     1      29.021   5.658  48.048  1.00  0.00     0.002 C 
HETATM   26  C22 UNL     1      28.054   4.964  48.583  1.00  0.00     0.067 C 
HETATM   27  C23 UNL     1      26.799   4.840  49.275  1.00  0.00     0.312 A 
HETATM   28  O2  UNL     1      25.789   4.399  49.823  1.00  0.00    -0.120 OA
HETATM   29  N4  UNL     1      25.965   5.863  49.758  1.00  0.00     0.136 N 
HETATM   30  H22 UNL     1      26.109   6.891  49.800  1.00  0.00     0.335 HD
ENDROOT
BRANCH   1  31
HETATM   31  O1  UNL     1      23.104   4.238  49.747  1.00  0.00    -0.379 OA
HETATM   32  C1  UNL     1      22.822   3.294  48.801  1.00  0.00     0.202 C 
ENDBRANCH   1  31
TORSDOF 1
ENDMDL
MODEL 5
REMARK VINA RESULT:      -8.0      7.654     10.416
REMARK  1 active torsions:
REMARK  status: ('A' for Active; 'I' for Inactive)
REMARK    1  A    between atoms: O1_2  and  C2_3 
ROOT
HETATM    1  C2  UNL     1      32.094   8.405  47.450  1.00  0.00     0.229 C 
HETATM    2  C3  UNL     1      31.653   8.910  48.788  1.00  0.00     0.184 C 
HETATM    3  C4  UNL     1      32.637   8.393  49.501  1.00  0.00     0.018 C 
HETATM    4  C5  UNL     1      33.375   7.263  48.777  1.00  0.00     0.087 C 
HETATM    5  C6  UNL     1      32.230   6.933  47.842  1.00  0.00     0.046 C 
HETATM    6  N1  UNL     1      31.303   6.205  47.212  1.00  0.00    -0.282 NA
HETATM    7  C7  UNL     1      30.421   7.006  46.347  1.00  0.00     0.182 C 
HETATM    8  C8  UNL     1      29.310   6.965  47.039  1.00  0.00     0.062 C 
HETATM    9  C9  UNL     1      29.865   6.117  48.108  1.00  0.00     0.098 C 
HETATM   10  N2  UNL     1      30.307   5.439  48.993  1.00  0.00    -0.192 NA
HETATM   11  C10 UNL     1      27.978   7.448  47.494  1.00  0.00     0.008 C 
HETATM   12  C11 UNL     1      27.148   6.677  48.361  1.00  0.00    -0.021 A 
HETATM   13  C12 UNL     1      27.425   5.301  48.332  1.00  0.00     0.015 A 
HETATM   14  C13 UNL     1      26.763   4.444  49.165  1.00  0.00     0.045 A 
HETATM   15  C14 UNL     1      25.818   4.937  50.034  1.00  0.00     0.138 A 
HETATM   16  F1  UNL     1      25.102   4.173  50.903  1.00  0.00    -0.204 F 
HETATM   17  C15 UNL     1      25.500   6.265  50.112  1.00  0.00     0.073 A 
HETATM   18 CL1  UNL     1      24.351   7.078  51.131  1.00  0.00    -0.081 Cl
HETATM   19  C16 UNL     1      26.201   7.066  49.252  1.00  0.00     0.039 A 
HETATM   20  C17 UNL     1      27.226   8.512  47.265  1.00  0.00     0.099 C 
HETATM   21  N3  UNL     1      26.230   9.504  47.221  1.00  0.00    -0.386 N 
HETATM   22  C18 UNL     1      25.231   8.986  46.348  1.00  0.00     0.149 C 
HETATM   23  C19 UNL     1      26.563  10.656  48.048  1.00  0.00     0.102 C 
HETATM   24  C20 UNL     1      25.300  11.516  48.104  1.00  0.00     0.036 C 
HETATM   25  C21 UNL     1      27.652  11.492  47.537  1.00  0.00     0.002 C 
HETATM   26  C22 UNL     1      28.956  11.440  47.516  1.00  0.00     0.067 C 
HETATM   27  C23 UNL     1      30.217  10.818  47.816  1.00  0.00     0.312 A 
HETATM   28  O2  UNL     1      31.418  10.559  47.906  1.00  0.00    -0.120 OA
HETATM   29  N4  UNL     1      30.454   9.618  48.507  1.00  0.00     0.136 N 
HETATM   30  H22 UNL     1      29.801   8.986  49.013  1.00  0.00     0.335 HD
ENDROOT
BRANCH   1  31
HETATM   31  O1  UNL     1      33.386   8.856  47.221  1.00  0.00    -0.379 OA
HETATM   32  C1  UNL     1      33.727   9.077  45.917  1.00  0.00     0.202 C 
ENDBRANCH   1  31
TORSDOF 1
ENDMDL
MODEL 6
REMARK VINA RESULT:      -7.9      4.041      7.107
REMARK  1 active torsions:
REMARK  status: ('A' for Active; 'I' for Inactive)
REMARK    1  A    between atoms: O1_2  and  C2_3 
ROOT
HETATM    1  C2  UNL     1      24.155   7.661  48.800  1.00  0.00     0.229 C 
HETATM    2  C3  UNL     1      24.055   6.452  47.924  1.00  0.00     0.184 C 
HETATM    3  C4  UNL     1      23.327   6.992  46.964  1.00  0.00     0.018 C 
HETATM    4  C5  UNL     1      22.616   8.276  47.401  1.00  0.00     0.087 C 
HETATM    5  C6  UNL     1      22.656   7.956  48.881  1.00  0.00     0.046 C 
HETATM    6  N1  UNL     1      22.217   7.753  50.126  1.00  0.00    -0.282 NA
HETATM    7  C7  UNL     1      23.270   7.298  51.049  1.00  0.00     0.182 C 
HETATM    8  C8  UNL     1      22.913   6.051  51.220  1.00  0.00     0.062 C 
HETATM    9  C9  UNL     1      21.722   6.146  50.358  1.00  0.00     0.098 C 
HETATM   10  N2  UNL     1      20.758   6.206  49.648  1.00  0.00    -0.192 NA
HETATM   11  C10 UNL     1      23.123   4.612  51.539  1.00  0.00     0.008 C 
HETATM   12  C11 UNL     1      22.037   3.691  51.635  1.00  0.00    -0.021 A 
HETATM   13  C12 UNL     1      20.803   4.300  51.912  1.00  0.00     0.015 A 
HETATM   14  C13 UNL     1      19.659   3.554  51.959  1.00  0.00     0.045 A 
HETATM   15  C14 UNL     1      19.722   2.199  51.736  1.00  0.00     0.138 A 
HETATM   16  F1  UNL     1      18.646   1.366  51.760  1.00  0.00    -0.204 F 
HETATM   17  C15 UNL     1      20.892   1.544  51.462  1.00  0.00     0.073 A 
HETATM   18 CL1  UNL     1      21.178  -0.141  51.153  1.00  0.00    -0.081 Cl
HETATM   19  C16 UNL     1      21.997   2.351  51.429  1.00  0.00     0.039 A 
HETATM   20  C17 UNL     1      24.161   3.847  51.833  1.00  0.00     0.099 C 
HETATM   21  N3  UNL     1      25.050   2.808  52.161  1.00  0.00    -0.386 N 
HETATM   22  C18 UNL     1      24.899   2.622  53.565  1.00  0.00     0.149 C 
HETATM   23  C19 UNL     1      25.776   2.317  50.998  1.00  0.00     0.102 C 
HETATM   24  C20 UNL     1      26.495   1.046  51.453  1.00  0.00     0.036 C 
HETATM   25  C21 UNL     1      26.784   3.235  50.463  1.00  0.00     0.002 C 
HETATM   26  C22 UNL     1      26.790   4.300  49.710  1.00  0.00     0.067 C 
HETATM   27  C23 UNL     1      26.143   5.313  48.920  1.00  0.00     0.312 A 
HETATM   28  O2  UNL     1      25.912   6.293  48.211  1.00  0.00    -0.120 OA
HETATM   29  N4  UNL     1      24.774   5.455  48.636  1.00  0.00     0.136 N 
HETATM   30  H22 UNL     1      23.970   4.832  48.850  1.00  0.00     0.335 HD
ENDROOT
BRANCH   1  31
HETATM   31  O1  UNL     1      24.704   8.693  48.053  1.00  0.00    -0.379 OA
HETATM   32  C1  UNL     1      25.472   9.592  48.737  1.00  0.00     0.202 C 
ENDBRANCH   1  31
TORSDOF 1
ENDMDL
MODEL 7
REMARK VINA RESULT:      -7.8      9.768     13.067
REMARK  1 active torsions:
REMARK  status: ('A' for Active; 'I' for Inactive)
REMARK    1  A    between atoms: O1_2  and  C2_3 
ROOT
HETATM    1  C2  UNL     1      28.582   9.529  47.384  1.00  0.00     0.229 C 
HETATM    2  C3  UNL     1      28.851   9.092  45.978  1.00  0.00     0.184 C 
HETATM    3  C4  UNL     1      27.656   8.593  45.721  1.00  0.00     0.018 C 
HETATM    4  C5  UNL     1      26.843   8.295  46.985  1.00  0.00     0.087 C 
HETATM    5  C6  UNL     1      28.048   8.191  47.897  1.00  0.00     0.046 C 
HETATM    6  N1  UNL     1      28.896   7.672  48.790  1.00  0.00    -0.282 NA
HETATM    7  C7  UNL     1      30.087   8.507  49.016  1.00  0.00     0.182 C 
HETATM    8  C8  UNL     1      31.002   7.781  48.425  1.00  0.00     0.062 C 
HETATM    9  C9  UNL     1      30.073   6.703  48.043  1.00  0.00     0.098 C 
HETATM   10  N2  UNL     1      29.325   5.826  47.713  1.00  0.00    -0.192 NA
HETATM   11  C10 UNL     1      32.291   7.531  47.724  1.00  0.00     0.008 C 
HETATM   12  C11 UNL     1      32.741   6.214  47.410  1.00  0.00    -0.021 A 
HETATM   13  C12 UNL     1      32.177   5.217  48.222  1.00  0.00     0.015 A 
HETATM   14  C13 UNL     1      32.454   3.899  47.991  1.00  0.00     0.045 A 
HETATM   15  C14 UNL     1      33.293   3.552  46.959  1.00  0.00     0.138 A 
HETATM   16  F1  UNL     1      33.635   2.273  46.644  1.00  0.00    -0.204 F 
HETATM   17  C15 UNL     1      33.876   4.474  46.133  1.00  0.00     0.073 A 
HETATM   18 CL1  UNL     1      34.952   4.242  44.788  1.00  0.00    -0.081 Cl
HETATM   19  C16 UNL     1      33.555   5.773  46.419  1.00  0.00     0.039 A 
HETATM   20  C17 UNL     1      33.290   8.277  47.283  1.00  0.00     0.099 C 
HETATM   21  N3  UNL     1      34.470   8.796  46.721  1.00  0.00    -0.386 N 
HETATM   22  C18 UNL     1      35.482   8.552  47.693  1.00  0.00     0.149 C 
HETATM   23  C19 UNL     1      34.245   9.373  45.402  1.00  0.00     0.102 C 
HETATM   24  C20 UNL     1      35.631   9.655  44.821  1.00  0.00     0.036 C 
HETATM   25  C21 UNL     1      33.491  10.629  45.395  1.00  0.00     0.002 C 
HETATM   26  C22 UNL     1      32.240  10.983  45.494  1.00  0.00     0.067 C 
HETATM   27  C23 UNL     1      30.837  10.701  45.647  1.00  0.00     0.312 A 
HETATM   28  O2  UNL     1      29.616  10.802  45.767  1.00  0.00    -0.120 OA
HETATM   29  N4  UNL     1      30.208   9.450  45.763  1.00  0.00     0.136 N 
HETATM   30  H22 UNL     1      30.591   8.488  45.677  1.00  0.00     0.335 HD
ENDROOT
BRANCH   1  31
HETATM   31  O1  UNL     1      27.495  10.390  47.370  1.00  0.00    -0.379 OA
HETATM   32  C1  UNL     1      27.493  11.379  48.313  1.00  0.00     0.202 C 
ENDBRANCH   1  31
TORSDOF 1
ENDMDL
MODEL 8
REMARK VINA RESULT:      -7.8      5.356      7.703
REMARK  1 active torsions:
REMARK  status: ('A' for Active; 'I' for Inactive)
REMARK    1  A    between atoms: O1_2  and  C2_3 
ROOT
HETATM    1  C2  UNL     1      28.343   8.358  48.479  1.00  0.00     0.229 C 
HETATM    2  C3  UNL     1      27.740   7.601  47.337  1.00  0.00     0.184 C 
HETATM    3  C4  UNL     1      28.090   8.432  46.373  1.00  0.00     0.018 C 
HETATM    4  C5  UNL     1      28.458   9.828  46.887  1.00  0.00     0.087 C 
HETATM    5  C6  UNL     1      27.680   9.704  48.181  1.00  0.00     0.046 C 
HETATM    6  N1  UNL     1      26.805  10.006  49.145  1.00  0.00    -0.282 NA
HETATM    7  C7  UNL     1      26.714   8.976  50.193  1.00  0.00     0.182 C 
HETATM    8  C8  UNL     1      25.536   8.472  49.929  1.00  0.00     0.062 C 
HETATM    9  C9  UNL     1      25.263   9.383  48.804  1.00  0.00     0.098 C 
HETATM   10  N2  UNL     1      25.034  10.109  47.878  1.00  0.00    -0.192 NA
HETATM   11  C10 UNL     1      24.482   7.421  49.921  1.00  0.00     0.008 C 
HETATM   12  C11 UNL     1      23.159   7.677  49.453  1.00  0.00    -0.021 A 
HETATM   13  C12 UNL     1      22.799   9.034  49.493  1.00  0.00     0.015 A 
HETATM   14  C13 UNL     1      21.590   9.443  49.007  1.00  0.00     0.045 A 
HETATM   15  C14 UNL     1      20.722   8.517  48.477  1.00  0.00     0.138 A 
HETATM   16  F1  UNL     1      19.496   8.817  47.968  1.00  0.00    -0.204 F 
HETATM   17  C15 UNL     1      21.011   7.181  48.409  1.00  0.00     0.073 A 
HETATM   18 CL1  UNL     1      20.061   5.867  47.785  1.00  0.00    -0.081 Cl
HETATM   19  C16 UNL     1      22.237   6.841  48.913  1.00  0.00     0.039 A 
HETATM   20  C17 UNL     1      24.398   6.159  50.309  1.00  0.00     0.099 C 
HETATM   21  N3  UNL     1      24.017   4.840  50.614  1.00  0.00    -0.386 N 
HETATM   22  C18 UNL     1      23.257   4.943  51.814  1.00  0.00     0.149 C 
HETATM   23  C19 UNL     1      24.515   3.882  49.635  1.00  0.00     0.102 C 
HETATM   24  C20 UNL     1      23.820   2.557  49.948  1.00  0.00     0.036 C 
HETATM   25  C21 UNL     1      25.961   3.650  49.675  1.00  0.00     0.002 C 
HETATM   26  C22 UNL     1      27.031   4.266  49.254  1.00  0.00     0.067 C 
HETATM   27  C23 UNL     1      27.708   5.348  48.589  1.00  0.00     0.312 A 
HETATM   28  O2  UNL     1      28.564   6.095  48.115  1.00  0.00    -0.120 OA
HETATM   29  N4  UNL     1      27.146   6.469  47.955  1.00  0.00     0.136 N 
HETATM   30  H22 UNL     1      26.154   6.708  47.755  1.00  0.00     0.335 HD
ENDROOT
BRANCH   1  31
HETATM   31  O1  UNL     1      29.693   8.535  48.216  1.00  0.00    -0.379 OA
HETATM   32  C1  UNL     1      30.497   8.750  49.300  1.00  0.00     0.202 C 
ENDBRANCH   1  31
TORSDOF 1
ENDMDL
MODEL 9
REMARK VINA RESULT:      -7.8      3.275      5.739
REMARK  1 active torsions:
REMARK  status: ('A' for Active; 'I' for Inactive)
REMARK    1  A    between atoms: O1_2  and  C2_3 
ROOT
HETATM    1  C2  UNL     1      23.491   5.024  50.095  1.00  0.00     0.229 C 
HETATM    2  C3  UNL     1      23.284   3.800  49.259  1.00  0.00     0.184 C 
HETATM    3  C4  UNL     1      23.205   4.401  48.087  1.00  0.00     0.018 C 
HETATM    4  C5  UNL     1      22.904   5.899  48.199  1.00  0.00     0.087 C 
HETATM    5  C6  UNL     1      22.284   5.808  49.578  1.00  0.00     0.046 C 
HETATM    6  N1  UNL     1      21.380   5.951  50.552  1.00  0.00    -0.282 NA
HETATM    7  C7  UNL     1      21.782   5.315  51.818  1.00  0.00     0.182 C 
HETATM    8  C8  UNL     1      20.959   4.297  51.843  1.00  0.00     0.062 C 
HETATM    9  C9  UNL     1      20.287   4.653  50.582  1.00  0.00     0.098 C 
HETATM   10  N2  UNL     1      19.740   4.923  49.549  1.00  0.00    -0.192 NA
HETATM   11  C10 UNL     1      20.499   2.935  52.229  1.00  0.00     0.008 C 
HETATM   12  C11 UNL     1      19.198   2.452  51.897  1.00  0.00    -0.021 A 
HETATM   13  C12 UNL     1      18.261   3.471  51.662  1.00  0.00     0.015 A 
HETATM   14  C13 UNL     1      16.992   3.164  51.261  1.00  0.00     0.045 A 
HETATM   15  C14 UNL     1      16.633   1.847  51.089  1.00  0.00     0.138 A 
HETATM   16  F1  UNL     1      15.399   1.433  50.695  1.00  0.00    -0.204 F 
HETATM   17  C15 UNL     1      17.498   0.808  51.302  1.00  0.00     0.073 A 
HETATM   18 CL1  UNL     1      17.242  -0.903  51.143  1.00  0.00    -0.081 Cl
HETATM   19  C16 UNL     1      18.751   1.187  51.701  1.00  0.00     0.039 A 
HETATM   20  C17 UNL     1      21.004   1.922  52.913  1.00  0.00     0.099 C 
HETATM   21  N3  UNL     1      21.269   0.708  53.572  1.00  0.00    -0.386 N 
HETATM   22  C18 UNL     1      20.561   0.794  54.804  1.00  0.00     0.149 C 
HETATM   23  C19 UNL     1      22.135  -0.164  52.791  1.00  0.00     0.102 C 
HETATM   24  C20 UNL     1      22.123  -1.518  53.501  1.00  0.00     0.036 C 
HETATM   25  C21 UNL     1      23.529   0.276  52.689  1.00  0.00     0.002 C 
HETATM   26  C22 UNL     1      24.196   1.154  51.992  1.00  0.00     0.067 C 
HETATM   27  C23 UNL     1      24.297   2.195  51.004  1.00  0.00     0.312 A 
HETATM   28  O2  UNL     1      24.714   3.078  50.254  1.00  0.00    -0.120 OA
HETATM   29  N4  UNL     1      23.279   2.739  50.203  1.00  0.00     0.136 N 
HETATM   30  H22 UNL     1      22.284   2.458  50.088  1.00  0.00     0.335 HD
ENDROOT
BRANCH   1  31
HETATM   31  O1  UNL     1      24.609   5.691  49.617  1.00  0.00    -0.379 OA
HETATM   32  C1  UNL     1      25.138   6.649  50.435  1.00  0.00     0.202 C 
ENDBRANCH   1  31
TORSDOF 1
ENDMDL
