MODEL 1
REMARK VINA RESULT:      -7.8      0.000      0.000
REMARK  5 active torsions:
REMARK  status: ('A' for Active; 'I' for Inactive)
REMARK    1  A    between atoms: C2_2  and  C3_4 
REMARK    2  A    between atoms: C3_4  and  C4_5 
REMARK    3  A    between atoms: C5_6  and  C6_7 
REMARK       I    between atoms: C6_7  and  N1_9 
REMARK    4  A    between atoms: N1_9  and  C7_10 
REMARK    5  A    between atoms: C12_17  and  N4_18 
ROOT
HETATM    1  C7  UNL     1      25.015   0.009  53.530  1.00  0.00     0.036 A 
HETATM    2  C8  UNL     1      25.469   1.289  53.736  1.00  0.00     0.032 A 
HETATM    3  C9  UNL     1      26.785   1.657  53.778  1.00  0.00     0.035 A 
HETATM    4  C10 UNL     1      27.751   0.689  53.603  1.00  0.00     0.072 A 
HETATM    5  N2  UNL     1      29.078   0.946  53.626  1.00  0.00    -0.241 NA
HETATM    6  C11 UNL     1      29.995  -0.009  53.455  1.00  0.00     0.235 A 
HETATM    7  N3  UNL     1      29.572  -1.286  53.248  1.00  0.00    -0.224 NA
HETATM    8  C12 UNL     1      28.252  -1.612  53.213  1.00  0.00     0.135 A 
HETATM    9  C13 UNL     1      27.326  -0.607  53.394  1.00  0.00     0.040 A 
HETATM   10  C14 UNL     1      25.996  -0.927  53.361  1.00  0.00     0.047 A 
ENDROOT
BRANCH   1  11
HETATM   11  N1  UNL     1      23.668  -0.420  53.479  1.00  0.00    -0.324 N 
HETATM   12  C6  UNL     1      22.883  -1.039  54.480  1.00  0.00     0.245 C 
HETATM   13  O1  UNL     1      23.390  -1.273  55.603  1.00  0.00    -0.268 OA
HETATM   14  H7  UNL     1      23.112  -0.293  52.607  1.00  0.00     0.169 HD
BRANCH  12  15
HETATM   15  C5  UNL     1      21.494  -1.443  54.319  1.00  0.00     0.071 C 
HETATM   16  C4  UNL     1      20.797  -0.575  53.603  1.00  0.00    -0.016 C 
BRANCH  16  17
HETATM   17  C3  UNL     1      19.357  -0.730  53.278  1.00  0.00     0.073 C 
BRANCH  17  18
HETATM   18  C2  UNL     1      19.122  -0.122  51.932  1.00  0.00    -0.017 C 
HETATM   19  C1  UNL     1      17.936  -0.113  51.317  1.00  0.00     0.027 C 
HETATM   20 BR1  UNL     1      20.772   0.602  51.299  1.00  0.00    -0.056 Br
ENDBRANCH  17  18
ENDBRANCH  16  17
ENDBRANCH  12  15
ENDBRANCH   1  11
BRANCH   8  21
HETATM   21  N4  UNL     1      27.874  -2.970  52.994  1.00  0.00    -0.383 N 
HETATM   22  H11 UNL     1      27.115  -3.297  53.627  1.00  0.00     0.157 HD
HETATM   23  H12 UNL     1      28.175  -3.736  52.343  1.00  0.00     0.157 HD
ENDBRANCH   8  21
TORSDOF 5
ENDMDL
MODEL 2
REMARK VINA RESULT:      -7.5      1.934      2.182
REMARK  5 active torsions:
REMARK  status: ('A' for Active; 'I' for Inactive)
REMARK    1  A    between atoms: C2_2  and  C3_4 
REMARK    2  A    between atoms: C3_4  and  C4_5 
REMARK    3  A    between atoms: C5_6  and  C6_7 
REMARK       I    between atoms: C6_7  and  N1_9 
REMARK    4  A    between atoms: N1_9  and  C7_10 
REMARK    5  A    between atoms: C12_17  and  N4_18 
ROOT
HETATM    1  C7  UNL     1      25.346   0.799  53.010  1.00  0.00     0.036 A 
HETATM    2  C8  UNL     1      26.039   1.929  53.373  1.00  0.00     0.032 A 
HETATM    3  C9  UNL     1      27.375   1.971  53.659  1.00  0.00     0.035 A 
HETATM    4  C10 UNL     1      28.107   0.805  53.584  1.00  0.00     0.072 A 
HETATM    5  N2  UNL     1      29.432   0.738  53.846  1.00  0.00    -0.241 NA
HETATM    6  C11 UNL     1      30.120  -0.405  53.768  1.00  0.00     0.235 A 
HETATM    7  N3  UNL     1      29.457  -1.538  53.410  1.00  0.00    -0.224 NA
HETATM    8  C12 UNL     1      28.125  -1.538  53.134  1.00  0.00     0.135 A 
HETATM    9  C13 UNL     1      27.439  -0.346  53.222  1.00  0.00     0.040 A 
HETATM   10  C14 UNL     1      26.099  -0.339  52.946  1.00  0.00     0.047 A 
ENDROOT
BRANCH   1  11
HETATM   11  N1  UNL     1      23.968   0.706  52.706  1.00  0.00    -0.324 N 
HETATM   12  C6  UNL     1      23.239   1.295  51.645  1.00  0.00     0.245 C 
HETATM   13  O1  UNL     1      23.838   2.020  50.815  1.00  0.00    -0.268 OA
HETATM   14  H7  UNL     1      23.338   0.136  53.309  1.00  0.00     0.169 HD
BRANCH  12  15
HETATM   15  C5  UNL     1      21.810   1.131  51.425  1.00  0.00     0.071 C 
HETATM   16  C4  UNL     1      21.188   0.652  52.489  1.00  0.00    -0.016 C 
BRANCH  16  17
HETATM   17  C3  UNL     1      19.729   0.385  52.551  1.00  0.00     0.073 C 
BRANCH  17  18
HETATM   18  C2  UNL     1      19.522  -0.846  53.376  1.00  0.00    -0.017 C 
HETATM   19  C1  UNL     1      18.360  -1.500  53.457  1.00  0.00     0.027 C 
HETATM   20 BR1  UNL     1      21.167  -1.275  54.246  1.00  0.00    -0.056 Br
ENDBRANCH  17  18
ENDBRANCH  16  17
ENDBRANCH  12  15
ENDBRANCH   1  11
BRANCH   8  21
HETATM   21  N4  UNL     1      27.489  -2.762  52.765  1.00  0.00    -0.383 N 
HETATM   22  H11 UNL     1      27.065  -3.268  53.570  1.00  0.00     0.157 HD
HETATM   23  H12 UNL     1      27.340  -3.289  51.870  1.00  0.00     0.157 HD
ENDBRANCH   8  21
TORSDOF 5
ENDMDL
MODEL 3
REMARK VINA RESULT:      -7.2      2.447      2.841
REMARK  5 active torsions:
REMARK  status: ('A' for Active; 'I' for Inactive)
REMARK    1  A    between atoms: C2_2  and  C3_4 
REMARK    2  A    between atoms: C3_4  and  C4_5 
REMARK    3  A    between atoms: C5_6  and  C6_7 
REMARK       I    between atoms: C6_7  and  N1_9 
REMARK    4  A    between atoms: N1_9  and  C7_10 
REMARK    5  A    between atoms: C12_17  and  N4_18 
ROOT
HETATM    1  C7  UNL     1      24.650   1.424  51.980  1.00  0.00     0.036 A 
HETATM    2  C8  UNL     1      25.493   2.224  51.247  1.00  0.00     0.032 A 
HETATM    3  C9  UNL     1      26.803   2.469  51.551  1.00  0.00     0.035 A 
HETATM    4  C10 UNL     1      27.345   1.880  52.674  1.00  0.00     0.072 A 
HETATM    5  N2  UNL     1      28.627   2.056  53.063  1.00  0.00    -0.241 NA
HETATM    6  C11 UNL     1      29.130   1.476  54.156  1.00  0.00     0.235 A 
HETATM    7  N3  UNL     1      28.316   0.677  54.899  1.00  0.00    -0.224 NA
HETATM    8  C12 UNL     1      27.016   0.459  54.562  1.00  0.00     0.135 A 
HETATM    9  C13 UNL     1      26.523   1.071  53.430  1.00  0.00     0.040 A 
HETATM   10  C14 UNL     1      25.216   0.856  53.086  1.00  0.00     0.047 A 
ENDROOT
BRANCH   1  11
HETATM   11  N1  UNL     1      23.291   1.142  51.706  1.00  0.00    -0.324 N 
HETATM   12  C6  UNL     1      22.155   1.976  51.835  1.00  0.00     0.245 C 
HETATM   13  O1  UNL     1      22.299   3.152  52.247  1.00  0.00    -0.268 OA
HETATM   14  H7  UNL     1      23.014   0.200  51.355  1.00  0.00     0.169 HD
BRANCH  12  15
HETATM   15  C5  UNL     1      20.790   1.580  51.523  1.00  0.00     0.071 C 
HETATM   16  C4  UNL     1      20.376   0.570  52.271  1.00  0.00    -0.016 C 
BRANCH  16  17
HETATM   17  C3  UNL     1      19.027  -0.041  52.173  1.00  0.00     0.073 C 
BRANCH  17  18
HETATM   18  C2  UNL     1      18.929  -1.108  53.215  1.00  0.00    -0.017 C 
HETATM   19  C1  UNL     1      17.814  -1.801  53.469  1.00  0.00     0.027 C 
HETATM   20 BR1  UNL     1      20.628  -1.276  54.071  1.00  0.00    -0.056 Br
ENDBRANCH  17  18
ENDBRANCH  16  17
ENDBRANCH  12  15
ENDBRANCH   1  11
BRANCH   8  21
HETATM   21  N4  UNL     1      26.215  -0.388  55.385  1.00  0.00    -0.383 N 
HETATM   22  H11 UNL     1      25.426   0.109  55.848  1.00  0.00     0.157 HD
HETATM   23  H12 UNL     1      26.223  -1.404  55.646  1.00  0.00     0.157 HD
ENDBRANCH   8  21
TORSDOF 5
ENDMDL
MODEL 4
REMARK VINA RESULT:      -7.0      4.235      5.225
REMARK  5 active torsions:
REMARK  status: ('A' for Active; 'I' for Inactive)
REMARK    1  A    between atoms: C2_2  and  C3_4 
REMARK    2  A    between atoms: C3_4  and  C4_5 
REMARK    3  A    between atoms: C5_6  and  C6_7 
REMARK       I    between atoms: C6_7  and  N1_9 
REMARK    4  A    between atoms: N1_9  and  C7_10 
REMARK    5  A    between atoms: C12_17  and  N4_18 
ROOT
HETATM    1  C7  UNL     1      25.381   1.534  53.235  1.00  0.00     0.036 A 
HETATM    2  C8  UNL     1      25.056   0.228  52.958  1.00  0.00     0.032 A 
HETATM    3  C9  UNL     1      25.940  -0.815  52.956  1.00  0.00     0.035 A 
HETATM    4  C10 UNL     1      27.263  -0.566  53.251  1.00  0.00     0.072 A 
HETATM    5  N2  UNL     1      28.216  -1.524  53.276  1.00  0.00    -0.241 NA
HETATM    6  C11 UNL     1      29.492  -1.258  53.564  1.00  0.00     0.235 A 
HETATM    7  N3  UNL     1      29.840   0.028  53.843  1.00  0.00    -0.224 NA
HETATM    8  C12 UNL     1      28.930   1.039  53.834  1.00  0.00     0.135 A 
HETATM    9  C13 UNL     1      27.620   0.737  53.533  1.00  0.00     0.040 A 
HETATM   10  C14 UNL     1      26.699   1.749  53.522  1.00  0.00     0.047 A 
ENDROOT
BRANCH   1  11
HETATM   11  N1  UNL     1      24.505   2.645  53.249  1.00  0.00    -0.324 N 
HETATM   12  C6  UNL     1      24.016   3.418  52.170  1.00  0.00     0.245 C 
HETATM   13  O1  UNL     1      24.369   3.135  51.000  1.00  0.00    -0.268 OA
HETATM   14  H7  UNL     1      24.126   3.000  54.153  1.00  0.00     0.169 HD
BRANCH  12  15
HETATM   15  C5  UNL     1      23.112   4.551  52.299  1.00  0.00     0.071 C 
HETATM   16  C4  UNL     1      23.141   5.342  51.239  1.00  0.00    -0.016 C 
BRANCH  16  17
HETATM   17  C3  UNL     1      22.322   6.572  51.094  1.00  0.00     0.073 C 
BRANCH  17  18
HETATM   18  C2  UNL     1      23.105   7.552  50.280  1.00  0.00    -0.017 C 
HETATM   19  C1  UNL     1      22.549   8.510  49.533  1.00  0.00     0.027 C 
HETATM   20 BR1  UNL     1      24.964   7.180  50.509  1.00  0.00    -0.056 Br
ENDBRANCH  17  18
ENDBRANCH  16  17
ENDBRANCH  12  15
ENDBRANCH   1  11
BRANCH   8  21
HETATM   21  N4  UNL     1      29.359   2.367  54.134  1.00  0.00    -0.383 N 
HETATM   22  H11 UNL     1      28.594   2.983  54.476  1.00  0.00     0.157 HD
HETATM   23  H12 UNL     1      30.270   2.887  54.094  1.00  0.00     0.157 HD
ENDBRANCH   8  21
TORSDOF 5
ENDMDL
MODEL 5
REMARK VINA RESULT:      -7.0      6.227      8.396
REMARK  5 active torsions:
REMARK  status: ('A' for Active; 'I' for Inactive)
REMARK    1  A    between atoms: C2_2  and  C3_4 
REMARK    2  A    between atoms: C3_4  and  C4_5 
REMARK    3  A    between atoms: C5_6  and  C6_7 
REMARK       I    between atoms: C6_7  and  N1_9 
REMARK    4  A    between atoms: N1_9  and  C7_10 
REMARK    5  A    between atoms: C12_17  and  N4_18 
ROOT
HETATM    1  C7  UNL     1      26.146   4.412  49.834  1.00  0.00     0.036 A 
HETATM    2  C8  UNL     1      27.104   4.675  48.886  1.00  0.00     0.032 A 
HETATM    3  C9  UNL     1      27.410   5.918  48.405  1.00  0.00     0.035 A 
HETATM    4  C10 UNL     1      26.721   7.007  48.892  1.00  0.00     0.072 A 
HETATM    5  N2  UNL     1      26.946   8.276  48.485  1.00  0.00    -0.241 NA
HETATM    6  C11 UNL     1      26.264   9.316  48.971  1.00  0.00     0.235 A 
HETATM    7  N3  UNL     1      25.309   9.083  49.913  1.00  0.00    -0.224 NA
HETATM    8  C12 UNL     1      25.034   7.830  50.366  1.00  0.00     0.135 A 
HETATM    9  C13 UNL     1      25.752   6.775  49.847  1.00  0.00     0.040 A 
HETATM   10  C14 UNL     1      25.479   5.512  50.297  1.00  0.00     0.047 A 
ENDROOT
BRANCH   1  11
HETATM   11  N1  UNL     1      25.793   3.148  50.362  1.00  0.00    -0.324 N 
HETATM   12  C6  UNL     1      26.478   2.344  51.304  1.00  0.00     0.245 C 
HETATM   13  O1  UNL     1      27.564   2.748  51.784  1.00  0.00    -0.268 OA
HETATM   14  H7  UNL     1      24.913   2.681  50.056  1.00  0.00     0.169 HD
BRANCH  12  15
HETATM   15  C5  UNL     1      26.021   1.047  51.781  1.00  0.00     0.071 C 
HETATM   16  C4  UNL     1      27.025   0.238  52.078  1.00  0.00    -0.016 C 
BRANCH  16  17
HETATM   17  C3  UNL     1      26.857  -1.146  52.588  1.00  0.00     0.073 C 
BRANCH  17  18
HETATM   18  C2  UNL     1      28.138  -1.554  53.241  1.00  0.00    -0.017 C 
HETATM   19  C1  UNL     1      28.712  -2.749  53.073  1.00  0.00     0.027 C 
HETATM   20 BR1  UNL     1      28.761  -0.100  54.312  1.00  0.00    -0.056 Br
ENDBRANCH  17  18
ENDBRANCH  16  17
ENDBRANCH  12  15
ENDBRANCH   1  11
BRANCH   8  21
HETATM   21  N4  UNL     1      24.019   7.653  51.354  1.00  0.00    -0.383 N 
HETATM   22  H11 UNL     1      23.147   7.225  50.981  1.00  0.00     0.157 HD
HETATM   23  H12 UNL     1      23.931   7.850  52.381  1.00  0.00     0.157 HD
ENDBRANCH   8  21
TORSDOF 5
ENDMDL
MODEL 6
REMARK VINA RESULT:      -6.9      1.813      2.464
REMARK  5 active torsions:
REMARK  status: ('A' for Active; 'I' for Inactive)
REMARK    1  A    between atoms: C2_2  and  C3_4 
REMARK    2  A    between atoms: C3_4  and  C4_5 
REMARK    3  A    between atoms: C5_6  and  C6_7 
REMARK       I    between atoms: C6_7  and  N1_9 
REMARK    4  A    between atoms: N1_9  and  C7_10 
REMARK    5  A    between atoms: C12_17  and  N4_18 
ROOT
HETATM    1  C7  UNL     1      24.408  -0.091  53.916  1.00  0.00     0.036 A 
HETATM    2  C8  UNL     1      25.182  -0.664  54.895  1.00  0.00     0.032 A 
HETATM    3  C9  UNL     1      26.490  -0.353  55.143  1.00  0.00     0.035 A 
HETATM    4  C10 UNL     1      27.103   0.605  54.364  1.00  0.00     0.072 A 
HETATM    5  N2  UNL     1      28.390   0.986  54.525  1.00  0.00    -0.241 NA
HETATM    6  C11 UNL     1      28.963   1.916  53.758  1.00  0.00     0.235 A 
HETATM    7  N3  UNL     1      28.218   2.500  52.780  1.00  0.00    -0.224 NA
HETATM    8  C12 UNL     1      26.918   2.163  52.566  1.00  0.00     0.135 A 
HETATM    9  C13 UNL     1      26.351   1.199  53.372  1.00  0.00     0.040 A 
HETATM   10  C14 UNL     1      25.044   0.854  53.161  1.00  0.00     0.047 A 
ENDROOT
BRANCH   1  11
HETATM   11  N1  UNL     1      23.055  -0.379  53.622  1.00  0.00    -0.324 N 
HETATM   12  C6  UNL     1      22.105  -1.106  54.379  1.00  0.00     0.245 C 
HETATM   13  O1  UNL     1      22.443  -1.597  55.482  1.00  0.00    -0.268 OA
HETATM   14  H7  UNL     1      22.628  -0.036  52.735  1.00  0.00     0.169 HD
BRANCH  12  15
HETATM   15  C5  UNL     1      20.726  -1.344  53.979  1.00  0.00     0.071 C 
HETATM   16  C4  UNL     1      20.261  -0.394  53.184  1.00  0.00    -0.016 C 
BRANCH  16  17
HETATM   17  C3  UNL     1      18.888  -0.377  52.621  1.00  0.00     0.073 C 
BRANCH  17  18
HETATM   18  C2  UNL     1      18.785   0.794  51.695  1.00  0.00    -0.017 C 
HETATM   19  C1  UNL     1      19.428   1.950  51.884  1.00  0.00     0.027 C 
HETATM   20 BR1  UNL     1      17.612   0.330  50.261  1.00  0.00    -0.056 Br
ENDBRANCH  17  18
ENDBRANCH  16  17
ENDBRANCH  12  15
ENDBRANCH   1  11
BRANCH   8  21
HETATM   21  N4  UNL     1      26.191   2.811  51.523  1.00  0.00    -0.383 N 
HETATM   22  H11 UNL     1      25.278   3.203  51.834  1.00  0.00     0.157 HD
HETATM   23  H12 UNL     1      26.349   2.995  50.502  1.00  0.00     0.157 HD
ENDBRANCH   8  21
TORSDOF 5
ENDMDL
MODEL 7
REMARK VINA RESULT:      -6.9      5.201      7.285
REMARK  5 active torsions:
REMARK  status: ('A' for Active; 'I' for Inactive)
REMARK    1  A    between atoms: C2_2  and  C3_4 
REMARK    2  A    between atoms: C3_4  and  C4_5 
REMARK    3  A    between atoms: C5_6  and  C6_7 
REMARK       I    between atoms: C6_7  and  N1_9 
REMARK    4  A    between atoms: N1_9  and  C7_10 
REMARK    5  A    between atoms: C12_17  and  N4_18 
ROOT
HETATM    1  C7  UNL     1      25.251   2.638  51.631  1.00  0.00     0.036 A 
HETATM    2  C8  UNL     1      24.028   2.027  51.491  1.00  0.00     0.032 A 
HETATM    3  C9  UNL     1      23.575   0.994  52.264  1.00  0.00     0.035 A 
HETATM    4  C10 UNL     1      24.387   0.510  53.268  1.00  0.00     0.072 A 
HETATM    5  N2  UNL     1      24.035  -0.505  54.088  1.00  0.00    -0.241 NA
HETATM    6  C11 UNL     1      24.839  -0.958  55.053  1.00  0.00     0.235 A 
HETATM    7  N3  UNL     1      26.056  -0.370  55.212  1.00  0.00    -0.224 NA
HETATM    8  C12 UNL     1      26.471   0.656  54.421  1.00  0.00     0.135 A 
HETATM    9  C13 UNL     1      25.621   1.104  53.433  1.00  0.00     0.040 A 
HETATM   10  C14 UNL     1      26.032   2.135  52.633  1.00  0.00     0.047 A 
ENDROOT
BRANCH   1  11
HETATM   11  N1  UNL     1      25.763   3.705  50.858  1.00  0.00    -0.324 N 
HETATM   12  C6  UNL     1      26.606   3.669  49.721  1.00  0.00     0.245 C 
HETATM   13  O1  UNL     1      26.996   2.562  49.279  1.00  0.00    -0.268 OA
HETATM   14  H7  UNL     1      25.526   4.690  51.104  1.00  0.00     0.169 HD
BRANCH  12  15
HETATM   15  C5  UNL     1      27.077   4.839  48.996  1.00  0.00     0.071 C 
HETATM   16  C4  UNL     1      26.140   5.764  48.868  1.00  0.00    -0.016 C 
BRANCH  16  17
HETATM   17  C3  UNL     1      26.339   7.062  48.175  1.00  0.00     0.073 C 
BRANCH  17  18
HETATM   18  C2  UNL     1      27.087   7.967  49.101  1.00  0.00    -0.017 C 
HETATM   19  C1  UNL     1      26.546   8.537  50.182  1.00  0.00     0.027 C 
HETATM   20 BR1  UNL     1      28.879   8.138  48.464  1.00  0.00    -0.056 Br
ENDBRANCH  17  18
ENDBRANCH  16  17
ENDBRANCH  12  15
ENDBRANCH   1  11
BRANCH   8  21
HETATM   21  N4  UNL     1      27.759   1.229  54.639  1.00  0.00    -0.383 N 
HETATM   22  H11 UNL     1      27.750   2.269  54.678  1.00  0.00     0.157 HD
HETATM   23  H12 UNL     1      28.732   0.858  54.772  1.00  0.00     0.157 HD
ENDBRANCH   8  21
TORSDOF 5
ENDMDL
MODEL 8
REMARK VINA RESULT:      -6.8      1.228      2.286
REMARK  5 active torsions:
REMARK  status: ('A' for Active; 'I' for Inactive)
REMARK    1  A    between atoms: C2_2  and  C3_4 
REMARK    2  A    between atoms: C3_4  and  C4_5 
REMARK    3  A    between atoms: C5_6  and  C6_7 
REMARK       I    between atoms: C6_7  and  N1_9 
REMARK    4  A    between atoms: N1_9  and  C7_10 
REMARK    5  A    between atoms: C12_17  and  N4_18 
ROOT
HETATM    1  C7  UNL     1      25.227  -0.286  53.021  1.00  0.00     0.036 A 
HETATM    2  C8  UNL     1      25.724  -1.539  52.755  1.00  0.00     0.032 A 
HETATM    3  C9  UNL     1      27.045  -1.886  52.809  1.00  0.00     0.035 A 
HETATM    4  C10 UNL     1      27.970  -0.925  53.156  1.00  0.00     0.072 A 
HETATM    5  N2  UNL     1      29.298  -1.163  53.240  1.00  0.00    -0.241 NA
HETATM    6  C11 UNL     1      30.176  -0.214  53.576  1.00  0.00     0.235 A 
HETATM    7  N3  UNL     1      29.709   1.036  53.846  1.00  0.00    -0.224 NA
HETATM    8  C12 UNL     1      28.385   1.341  53.780  1.00  0.00     0.135 A 
HETATM    9  C13 UNL     1      27.501   0.344  53.429  1.00  0.00     0.040 A 
HETATM   10  C14 UNL     1      26.168   0.644  53.361  1.00  0.00     0.047 A 
ENDROOT
BRANCH   1  11
HETATM   11  N1  UNL     1      23.873   0.120  52.978  1.00  0.00    -0.324 N 
HETATM   12  C6  UNL     1      22.790  -0.268  53.803  1.00  0.00     0.245 C 
HETATM   13  O1  UNL     1      22.986  -1.092  54.729  1.00  0.00    -0.268 OA
HETATM   14  H7  UNL     1      23.555   0.804  52.259  1.00  0.00     0.169 HD
BRANCH  12  15
HETATM   15  C5  UNL     1      21.425   0.216  53.669  1.00  0.00     0.071 C 
HETATM   16  C4  UNL     1      21.236   0.885  52.543  1.00  0.00    -0.016 C 
BRANCH  16  17
HETATM   17  C3  UNL     1      19.942   1.492  52.142  1.00  0.00     0.073 C 
BRANCH  17  18
HETATM   18  C2  UNL     1      19.580   0.954  50.795  1.00  0.00    -0.017 C 
HETATM   19  C1  UNL     1      18.365   0.497  50.478  1.00  0.00     0.027 C 
HETATM   20 BR1  UNL     1      21.123   1.044  49.673  1.00  0.00    -0.056 Br
ENDBRANCH  17  18
ENDBRANCH  16  17
ENDBRANCH  12  15
ENDBRANCH   1  11
BRANCH   8  21
HETATM   21  N4  UNL     1      27.960   2.671  54.074  1.00  0.00    -0.383 N 
HETATM   22  H11 UNL     1      28.004   2.907  55.087  1.00  0.00     0.157 HD
HETATM   23  H12 UNL     1      27.608   3.486  53.514  1.00  0.00     0.157 HD
ENDBRANCH   8  21
TORSDOF 5
ENDMDL
MODEL 9
REMARK VINA RESULT:      -6.8      2.473      3.319
REMARK  5 active torsions:
REMARK  status: ('A' for Active; 'I' for Inactive)
REMARK    1  A    between atoms: C2_2  and  C3_4 
REMARK    2  A    between atoms: C3_4  and  C4_5 
REMARK    3  A    between atoms: C5_6  and  C6_7 
REMARK       I    between atoms: C6_7  and  N1_9 
REMARK    4  A    between atoms: N1_9  and  C7_10 
REMARK    5  A    between atoms: C12_17  and  N4_18 
ROOT
HETATM    1  C7  UNL     1      25.349   0.756  52.977  1.00  0.00     0.036 A 
HETATM    2  C8  UNL     1      25.324  -0.604  52.786  1.00  0.00     0.032 A 
HETATM    3  C9  UNL     1      26.408  -1.431  52.893  1.00  0.00     0.035 A 
HETATM    4  C10 UNL     1      27.631  -0.883  53.217  1.00  0.00     0.072 A 
HETATM    5  N2  UNL     1      28.763  -1.610  53.347  1.00  0.00    -0.241 NA
HETATM    6  C11 UNL     1      29.937  -1.056  53.660  1.00  0.00     0.235 A 
HETATM    7  N3  UNL     1      29.989   0.290  53.856  1.00  0.00    -0.224 NA
HETATM    8  C12 UNL     1      28.887   1.078  53.740  1.00  0.00     0.135 A 
HETATM    9  C13 UNL     1      27.688   0.481  53.415  1.00  0.00     0.040 A 
HETATM   10  C14 UNL     1      26.575   1.268  53.296  1.00  0.00     0.047 A 
ENDROOT
BRANCH   1  11
HETATM   11  N1  UNL     1      24.258   1.650  52.878  1.00  0.00    -0.324 N 
HETATM   12  C6  UNL     1      23.889   2.504  51.811  1.00  0.00     0.245 C 
HETATM   13  O1  UNL     1      24.586   2.523  50.769  1.00  0.00    -0.268 OA
HETATM   14  H7  UNL     1      23.586   1.746  53.669  1.00  0.00     0.169 HD
BRANCH  12  15
HETATM   15  C5  UNL     1      22.736   3.392  51.814  1.00  0.00     0.071 C 
HETATM   16  C4  UNL     1      21.613   2.758  52.113  1.00  0.00    -0.016 C 
BRANCH  16  17
HETATM   17  C3  UNL     1      20.283   3.412  52.191  1.00  0.00     0.073 C 
BRANCH  17  18
HETATM   18  C2  UNL     1      19.250   2.399  51.813  1.00  0.00    -0.017 C 
HETATM   19  C1  UNL     1      17.996   2.707  51.470  1.00  0.00     0.027 C 
HETATM   20 BR1  UNL     1      20.041   0.663  51.912  1.00  0.00    -0.056 Br
ENDBRANCH  17  18
ENDBRANCH  16  17
ENDBRANCH  12  15
ENDBRANCH   1  11
BRANCH   8  21
HETATM   21  N4  UNL     1      29.008   2.483  53.956  1.00  0.00    -0.383 N 
HETATM   22  H11 UNL     1      29.547   2.727  54.812  1.00  0.00     0.157 HD
HETATM   23  H12 UNL     1      28.683   3.348  53.459  1.00  0.00     0.157 HD
ENDBRANCH   8  21
TORSDOF 5
ENDMDL
