MODEL 1
REMARK VINA RESULT:      -8.6      0.000      0.000
REMARK  3 active torsions:
REMARK  status: ('A' for Active; 'I' for Inactive)
REMARK    1  A    between atoms: O1_1  and  C1_2 
REMARK    2  A    between atoms: C4_5  and  C5_6 
REMARK    3  A    between atoms: C5_6  and  C6_7 
ROOT
HETATM    1  C6  UNL     1      26.103   1.874  51.145  1.00  0.00     0.158 A 
HETATM    2  C7  UNL     1      24.965   2.784  51.386  1.00  0.00     0.040 A 
HETATM    3  C8  UNL     1      25.121   3.895  50.704  1.00  0.00     0.088 A 
HETATM    4  N1  UNL     1      24.351   5.071  50.575  1.00  0.00    -0.263 NA
HETATM    5  C9  UNL     1      24.810   6.259  50.824  1.00  0.00     0.092 C 
HETATM    6  C10 UNL     1      24.066   7.518  50.697  1.00  0.00     0.066 C 
HETATM    7  C11 UNL     1      24.787   8.559  49.862  1.00  0.00     0.119 C 
HETATM    8  N2  UNL     1      25.136   8.065  48.507  1.00  0.00    -0.411 N 
HETATM    9  C12 UNL     1      26.149   7.067  48.379  1.00  0.00     0.125 C 
HETATM   10  C13 UNL     1      26.879   5.898  48.511  1.00  0.00     0.003 C 
HETATM   11  C14 UNL     1      27.056   4.538  49.089  1.00  0.00     0.037 C 
HETATM   12  C15 UNL     1      26.381   3.780  49.924  1.00  0.00     0.098 A 
HETATM   13  O2  UNL     1      26.913   2.535  50.213  1.00  0.00    -0.339 OA
HETATM   14  H13 UNL     1      24.796   8.283  47.526  1.00  0.00     0.153 HD
ENDROOT
BRANCH   1  15
HETATM   15  C5  UNL     1      26.811   1.697  52.461  1.00  0.00     0.075 C 
BRANCH  15  16
HETATM   16  C4  UNL     1      27.319   0.359  52.704  1.00  0.00    -0.055 A 
HETATM   17  C3  UNL     1      26.510  -0.714  52.314  1.00  0.00     0.010 A 
HETATM   18  C2  UNL     1      27.019  -1.976  52.556  1.00  0.00     0.037 A 
HETATM   19  C1  UNL     1      28.241  -2.200  53.142  1.00  0.00     0.065 A 
HETATM   20  C17 UNL     1      29.046  -1.130  53.531  1.00  0.00     0.037 A 
HETATM   21  C16 UNL     1      28.525   0.128  53.283  1.00  0.00     0.010 A 
BRANCH  19  22
HETATM   22  O1  UNL     1      28.775  -3.467  53.396  1.00  0.00    -0.361 OA
HETATM   23  H1  UNL     1      29.759  -3.613  53.222  1.00  0.00     0.217 HD
ENDBRANCH  19  22
ENDBRANCH  15  16
ENDBRANCH   1  15
TORSDOF 3
ENDMDL
MODEL 2
REMARK VINA RESULT:      -8.4      3.868      6.009
REMARK  3 active torsions:
REMARK  status: ('A' for Active; 'I' for Inactive)
REMARK    1  A    between atoms: O1_1  and  C1_2 
REMARK    2  A    between atoms: C4_5  and  C5_6 
REMARK    3  A    between atoms: C5_6  and  C6_7 
ROOT
HETATM    1  C6  UNL     1      25.267   1.775  53.012  1.00  0.00     0.158 A 
HETATM    2  C7  UNL     1      24.155   2.386  52.256  1.00  0.00     0.040 A 
HETATM    3  C8  UNL     1      23.043   1.723  52.470  1.00  0.00     0.088 A 
HETATM    4  N1  UNL     1      21.718   1.873  52.008  1.00  0.00    -0.263 NA
HETATM    5  C9  UNL     1      21.061   0.934  51.397  1.00  0.00     0.092 C 
HETATM    6  C10 UNL     1      19.681   1.023  50.905  1.00  0.00     0.066 C 
HETATM    7  C11 UNL     1      18.800  -0.116  51.377  1.00  0.00     0.119 C 
HETATM    8  N2  UNL     1      18.778  -0.248  52.855  1.00  0.00    -0.411 N 
HETATM    9  C12 UNL     1      19.956  -0.703  53.523  1.00  0.00     0.125 C 
HETATM   10  C13 UNL     1      21.259  -0.821  53.974  1.00  0.00     0.003 C 
HETATM   11  C14 UNL     1      22.668  -0.345  54.004  1.00  0.00     0.037 C 
HETATM   12  C15 UNL     1      23.342   0.627  53.429  1.00  0.00     0.098 A 
HETATM   13  O2  UNL     1      24.688   0.725  53.735  1.00  0.00    -0.339 OA
HETATM   14  H13 UNL     1      18.049  -0.075  53.606  1.00  0.00     0.153 HD
ENDROOT
BRANCH   1  15
HETATM   15  C5  UNL     1      26.259   1.267  52.001  1.00  0.00     0.075 C 
BRANCH  15  16
HETATM   16  C4  UNL     1      26.942   0.043  52.381  1.00  0.00    -0.055 A 
HETATM   17  C3  UNL     1      28.135   0.173  53.102  1.00  0.00     0.010 A 
HETATM   18  C2  UNL     1      28.762  -1.008  53.451  1.00  0.00     0.037 A 
HETATM   19  C1  UNL     1      28.274  -2.251  53.127  1.00  0.00     0.065 A 
HETATM   20  C17 UNL     1      27.086  -2.378  52.407  1.00  0.00     0.037 A 
HETATM   21  C16 UNL     1      26.467  -1.189  52.064  1.00  0.00     0.010 A 
BRANCH  19  22
HETATM   22  O1  UNL     1      28.892  -3.456  53.470  1.00  0.00    -0.361 OA
HETATM   23  H1  UNL     1      28.318  -4.285  53.536  1.00  0.00     0.217 HD
ENDBRANCH  19  22
ENDBRANCH  15  16
ENDBRANCH   1  15
TORSDOF 3
ENDMDL
MODEL 3
REMARK VINA RESULT:      -8.1      5.030      7.799
REMARK  3 active torsions:
REMARK  status: ('A' for Active; 'I' for Inactive)
REMARK    1  A    between atoms: O1_1  and  C1_2 
REMARK    2  A    between atoms: C4_5  and  C5_6 
REMARK    3  A    between atoms: C5_6  and  C6_7 
ROOT
HETATM    1  C6  UNL     1      23.085   0.641  53.367  1.00  0.00     0.158 A 
HETATM    2  C7  UNL     1      23.959  -0.503  53.694  1.00  0.00     0.040 A 
HETATM    3  C8  UNL     1      25.214  -0.121  53.725  1.00  0.00     0.088 A 
HETATM    4  N1  UNL     1      26.429  -0.794  53.979  1.00  0.00    -0.263 NA
HETATM    5  C9  UNL     1      27.427  -0.809  53.150  1.00  0.00     0.092 C 
HETATM    6  C10 UNL     1      28.717  -1.478  53.361  1.00  0.00     0.066 C 
HETATM    7  C11 UNL     1      29.908  -0.567  53.139  1.00  0.00     0.119 C 
HETATM    8  N2  UNL     1      29.857   0.658  53.975  1.00  0.00    -0.411 N 
HETATM    9  C12 UNL     1      28.873   1.650  53.680  1.00  0.00     0.125 C 
HETATM   10  C13 UNL     1      27.668   2.291  53.449  1.00  0.00     0.003 C 
HETATM   11  C14 UNL     1      26.184   2.262  53.340  1.00  0.00     0.037 C 
HETATM   12  C15 UNL     1      25.254   1.339  53.448  1.00  0.00     0.098 A 
HETATM   13  O2  UNL     1      23.943   1.743  53.264  1.00  0.00    -0.339 OA
HETATM   14  H13 UNL     1      30.411   1.015  54.806  1.00  0.00     0.153 HD
ENDROOT
BRANCH   1  15
HETATM   15  C5  UNL     1      22.429   0.330  52.049  1.00  0.00     0.075 C 
BRANCH  15  16
HETATM   16  C4  UNL     1      20.997   0.100  52.120  1.00  0.00    -0.055 A 
HETATM   17  C3  UNL     1      20.505  -0.518  53.276  1.00  0.00     0.010 A 
HETATM   18  C2  UNL     1      19.139  -0.723  53.318  1.00  0.00     0.037 A 
HETATM   19  C1  UNL     1      18.286  -0.355  52.305  1.00  0.00     0.065 A 
HETATM   20  C17 UNL     1      18.778   0.261  51.155  1.00  0.00     0.037 A 
HETATM   21  C16 UNL     1      20.147   0.461  51.125  1.00  0.00     0.010 A 
BRANCH  19  22
HETATM   22  O1  UNL     1      16.902  -0.552  52.328  1.00  0.00    -0.361 OA
HETATM   23  H1  UNL     1      16.449  -0.848  51.475  1.00  0.00     0.217 HD
ENDBRANCH  19  22
ENDBRANCH  15  16
ENDBRANCH   1  15
TORSDOF 3
ENDMDL
MODEL 4
REMARK VINA RESULT:      -8.1      4.351      5.691
REMARK  3 active torsions:
REMARK  status: ('A' for Active; 'I' for Inactive)
REMARK    1  A    between atoms: O1_1  and  C1_2 
REMARK    2  A    between atoms: C4_5  and  C5_6 
REMARK    3  A    between atoms: C5_6  and  C6_7 
ROOT
HETATM    1  C6  UNL     1      23.118   1.688  52.279  1.00  0.00     0.158 A 
HETATM    2  C7  UNL     1      24.481   1.636  51.712  1.00  0.00     0.040 A 
HETATM    3  C8  UNL     1      24.852   2.830  51.314  1.00  0.00     0.088 A 
HETATM    4  N1  UNL     1      26.026   3.333  50.714  1.00  0.00    -0.263 NA
HETATM    5  C9  UNL     1      26.037   3.977  49.587  1.00  0.00     0.092 C 
HETATM    6  C10 UNL     1      27.219   4.534  48.919  1.00  0.00     0.066 C 
HETATM    7  C11 UNL     1      27.066   5.996  48.547  1.00  0.00     0.119 C 
HETATM    8  N2  UNL     1      26.721   6.850  49.711  1.00  0.00    -0.411 N 
HETATM    9  C12 UNL     1      25.425   6.724  50.296  1.00  0.00     0.125 C 
HETATM   10  C13 UNL     1      24.289   6.211  50.899  1.00  0.00     0.003 C 
HETATM   11  C14 UNL     1      23.531   5.066  51.472  1.00  0.00     0.037 C 
HETATM   12  C15 UNL     1      23.752   3.779  51.628  1.00  0.00     0.098 A 
HETATM   13  O2  UNL     1      22.748   3.038  52.227  1.00  0.00    -0.339 OA
HETATM   14  H13 UNL     1      27.237   7.592  50.266  1.00  0.00     0.153 HD
ENDROOT
BRANCH   1  15
HETATM   15  C5  UNL     1      22.241   0.843  51.394  1.00  0.00     0.075 C 
BRANCH  15  16
HETATM   16  C4  UNL     1      21.076   0.278  52.052  1.00  0.00    -0.055 A 
HETATM   17  C3  UNL     1      21.290  -0.417  53.248  1.00  0.00     0.010 A 
HETATM   18  C2  UNL     1      20.164  -0.941  53.853  1.00  0.00     0.037 A 
HETATM   19  C1  UNL     1      18.896  -0.809  53.340  1.00  0.00     0.065 A 
HETATM   20  C17 UNL     1      18.685  -0.116  52.148  1.00  0.00     0.037 A 
HETATM   21  C16 UNL     1      19.821   0.404  51.552  1.00  0.00     0.010 A 
BRANCH  19  22
HETATM   22  O1  UNL     1      17.745  -1.331  53.935  1.00  0.00    -0.361 OA
HETATM   23  H1  UNL     1      17.245  -2.062  53.447  1.00  0.00     0.217 HD
ENDBRANCH  19  22
ENDBRANCH  15  16
ENDBRANCH   1  15
TORSDOF 3
ENDMDL
MODEL 5
REMARK VINA RESULT:      -8.0      3.363      4.617
REMARK  3 active torsions:
REMARK  status: ('A' for Active; 'I' for Inactive)
REMARK    1  A    between atoms: O1_1  and  C1_2 
REMARK    2  A    between atoms: C4_5  and  C5_6 
REMARK    3  A    between atoms: C5_6  and  C6_7 
ROOT
HETATM    1  C6  UNL     1      25.151   1.690  53.229  1.00  0.00     0.158 A 
HETATM    2  C7  UNL     1      24.705   3.047  52.852  1.00  0.00     0.040 A 
HETATM    3  C8  UNL     1      23.418   3.047  52.598  1.00  0.00     0.088 A 
HETATM    4  N1  UNL     1      22.505   4.048  52.203  1.00  0.00    -0.263 NA
HETATM    5  C9  UNL     1      21.765   3.966  51.140  1.00  0.00     0.092 C 
HETATM    6  C10 UNL     1      20.791   4.965  50.683  1.00  0.00     0.066 C 
HETATM    7  C11 UNL     1      19.420   4.381  50.403  1.00  0.00     0.119 C 
HETATM    8  N2  UNL     1      18.858   3.655  51.568  1.00  0.00    -0.411 N 
HETATM    9  C12 UNL     1      19.452   2.417  51.959  1.00  0.00     0.125 C 
HETATM   10  C13 UNL     1      20.364   1.455  52.361  1.00  0.00     0.003 C 
HETATM   11  C14 UNL     1      21.747   1.057  52.738  1.00  0.00     0.037 C 
HETATM   12  C15 UNL     1      22.907   1.669  52.827  1.00  0.00     0.098 A 
HETATM   13  O2  UNL     1      23.991   0.906  53.226  1.00  0.00    -0.339 OA
HETATM   14  H13 UNL     1      18.059   3.837  52.242  1.00  0.00     0.153 HD
ENDROOT
BRANCH   1  15
HETATM   15  C5  UNL     1      26.123   1.238  52.172  1.00  0.00     0.075 C 
BRANCH  15  16
HETATM   16  C4  UNL     1      26.862   0.032  52.501  1.00  0.00    -0.055 A 
HETATM   17  C3  UNL     1      28.074   0.190  53.183  1.00  0.00     0.010 A 
HETATM   18  C2  UNL     1      28.755  -0.974  53.484  1.00  0.00     0.037 A 
HETATM   19  C1  UNL     1      28.300  -2.227  53.150  1.00  0.00     0.065 A 
HETATM   20  C17 UNL     1      27.092  -2.382  52.470  1.00  0.00     0.037 A 
HETATM   21  C16 UNL     1      26.420  -1.209  52.174  1.00  0.00     0.010 A 
BRANCH  19  22
HETATM   22  O1  UNL     1      28.972  -3.416  53.445  1.00  0.00    -0.361 OA
HETATM   23  H1  UNL     1      28.728  -4.244  52.921  1.00  0.00     0.217 HD
ENDBRANCH  19  22
ENDBRANCH  15  16
ENDBRANCH   1  15
TORSDOF 3
ENDMDL
MODEL 6
REMARK VINA RESULT:      -7.7      4.984      6.684
REMARK  3 active torsions:
REMARK  status: ('A' for Active; 'I' for Inactive)
REMARK    1  A    between atoms: O1_1  and  C1_2 
REMARK    2  A    between atoms: C4_5  and  C5_6 
REMARK    3  A    between atoms: C5_6  and  C6_7 
ROOT
HETATM    1  C6  UNL     1      24.649  -0.125  53.773  1.00  0.00     0.158 A 
HETATM    2  C7  UNL     1      23.946   0.753  52.817  1.00  0.00     0.040 A 
HETATM    3  C8  UNL     1      22.663   0.475  52.804  1.00  0.00     0.088 A 
HETATM    4  N1  UNL     1      21.563   0.997  52.091  1.00  0.00    -0.263 NA
HETATM    5  C9  UNL     1      20.774   0.272  51.358  1.00  0.00     0.092 C 
HETATM    6  C10 UNL     1      19.609   0.751  50.605  1.00  0.00     0.066 C 
HETATM    7  C11 UNL     1      18.345  -0.036  50.888  1.00  0.00     0.119 C 
HETATM    8  N2  UNL     1      18.005  -0.073  52.333  1.00  0.00    -0.411 N 
HETATM    9  C12 UNL     1      18.835  -0.829  53.216  1.00  0.00     0.125 C 
HETATM   10  C13 UNL     1      19.927  -1.314  53.914  1.00  0.00     0.003 C 
HETATM   11  C14 UNL     1      21.383  -1.290  54.223  1.00  0.00     0.037 C 
HETATM   12  C15 UNL     1      22.421  -0.605  53.797  1.00  0.00     0.098 A 
HETATM   13  O2  UNL     1      23.648  -0.907  54.362  1.00  0.00    -0.339 OA
HETATM   14  H13 UNL     1      17.238   0.356  52.926  1.00  0.00     0.153 HD
ENDROOT
BRANCH   1  15
HETATM   15  C5  UNL     1      25.606  -0.968  52.974  1.00  0.00     0.075 C 
BRANCH  15  16
HETATM   16  C4  UNL     1      27.008  -0.632  53.150  1.00  0.00    -0.055 A 
HETATM   17  C3  UNL     1      27.933  -1.678  53.062  1.00  0.00     0.010 A 
HETATM   18  C2  UNL     1      29.259  -1.329  53.233  1.00  0.00     0.037 A 
HETATM   19  C1  UNL     1      29.680  -0.043  53.474  1.00  0.00     0.065 A 
HETATM   20  C17 UNL     1      28.756   0.998  53.561  1.00  0.00     0.037 A 
HETATM   21  C16 UNL     1      27.432   0.635  53.389  1.00  0.00     0.010 A 
BRANCH  19  22
HETATM   22  O1  UNL     1      31.015   0.331  53.649  1.00  0.00    -0.361 OA
HETATM   23  H1  UNL     1      31.565  -0.168  54.334  1.00  0.00     0.217 HD
ENDBRANCH  19  22
ENDBRANCH  15  16
ENDBRANCH   1  15
TORSDOF 3
ENDMDL
MODEL 7
REMARK VINA RESULT:      -7.7      1.054      1.668
REMARK  3 active torsions:
REMARK  status: ('A' for Active; 'I' for Inactive)
REMARK    1  A    between atoms: O1_1  and  C1_2 
REMARK    2  A    between atoms: C4_5  and  C5_6 
REMARK    3  A    between atoms: C5_6  and  C6_7 
ROOT
HETATM    1  C6  UNL     1      24.725   2.560  51.303  1.00  0.00     0.158 A 
HETATM    2  C7  UNL     1      24.013   3.854  51.275  1.00  0.00     0.040 A 
HETATM    3  C8  UNL     1      24.675   4.719  50.544  1.00  0.00     0.088 A 
HETATM    4  N1  UNL     1      24.450   6.068  50.193  1.00  0.00    -0.263 NA
HETATM    5  C9  UNL     1      25.302   7.020  50.421  1.00  0.00     0.092 C 
HETATM    6  C10 UNL     1      25.133   8.435  50.071  1.00  0.00     0.066 C 
HETATM    7  C11 UNL     1      26.302   9.004  49.290  1.00  0.00     0.119 C 
HETATM    8  N2  UNL     1      26.596   8.233  48.056  1.00  0.00    -0.411 N 
HETATM    9  C12 UNL     1      27.144   6.920  48.180  1.00  0.00     0.125 C 
HETATM   10  C13 UNL     1      27.336   5.593  48.526  1.00  0.00     0.003 C 
HETATM   11  C14 UNL     1      26.892   4.360  49.231  1.00  0.00     0.037 C 
HETATM   12  C15 UNL     1      25.876   4.034  49.998  1.00  0.00     0.098 A 
HETATM   13  O2  UNL     1      25.838   2.733  50.471  1.00  0.00    -0.339 OA
HETATM   14  H13 UNL     1      26.493   8.424  47.018  1.00  0.00     0.153 HD
ENDROOT
BRANCH   1  15
HETATM   15  C5  UNL     1      25.137   2.315  52.729  1.00  0.00     0.075 C 
BRANCH  15  16
HETATM   16  C4  UNL     1      26.092   1.236  52.910  1.00  0.00    -0.055 A 
HETATM   17  C3  UNL     1      27.350   1.574  53.422  1.00  0.00     0.010 A 
HETATM   18  C2  UNL     1      28.238   0.528  53.586  1.00  0.00     0.037 A 
HETATM   19  C1  UNL     1      27.937  -0.777  53.276  1.00  0.00     0.065 A 
HETATM   20  C17 UNL     1      26.683  -1.112  52.766  1.00  0.00     0.037 A 
HETATM   21  C16 UNL     1      25.804  -0.056  52.607  1.00  0.00     0.010 A 
BRANCH  19  22
HETATM   22  O1  UNL     1      28.819  -1.849  53.434  1.00  0.00    -0.361 OA
HETATM   23  H1  UNL     1      28.754  -2.621  52.785  1.00  0.00     0.217 HD
ENDBRANCH  19  22
ENDBRANCH  15  16
ENDBRANCH   1  15
TORSDOF 3
ENDMDL
MODEL 8
REMARK VINA RESULT:      -7.6      2.188      2.879
REMARK  3 active torsions:
REMARK  status: ('A' for Active; 'I' for Inactive)
REMARK    1  A    between atoms: O1_1  and  C1_2 
REMARK    2  A    between atoms: C4_5  and  C5_6 
REMARK    3  A    between atoms: C5_6  and  C6_7 
ROOT
HETATM    1  C6  UNL     1      23.694   3.730  51.069  1.00  0.00     0.158 A 
HETATM    2  C7  UNL     1      23.601   5.180  50.806  1.00  0.00     0.040 A 
HETATM    3  C8  UNL     1      24.663   5.591  50.153  1.00  0.00     0.088 A 
HETATM    4  N1  UNL     1      25.076   6.849  49.664  1.00  0.00    -0.263 NA
HETATM    5  C9  UNL     1      26.206   7.405  49.978  1.00  0.00     0.092 C 
HETATM    6  C10 UNL     1      26.697   8.701  49.495  1.00  0.00     0.066 C 
HETATM    7  C11 UNL     1      28.096   8.634  48.914  1.00  0.00     0.119 C 
HETATM    8  N2  UNL     1      28.215   7.634  47.823  1.00  0.00    -0.411 N 
HETATM    9  C12 UNL     1      28.140   6.247  48.151  1.00  0.00     0.125 C 
HETATM   10  C13 UNL     1      27.706   5.021  48.627  1.00  0.00     0.003 C 
HETATM   11  C14 UNL     1      26.691   4.187  49.325  1.00  0.00     0.037 C 
HETATM   12  C15 UNL     1      25.532   4.411  49.904  1.00  0.00     0.098 A 
HETATM   13  O2  UNL     1      24.886   3.319  50.458  1.00  0.00    -0.339 OA
HETATM   14  H13 UNL     1      28.354   7.693  46.773  1.00  0.00     0.153 HD
ENDROOT
BRANCH   1  15
HETATM   15  C5  UNL     1      23.755   3.557  52.563  1.00  0.00     0.075 C 
BRANCH  15  16
HETATM   16  C4  UNL     1      24.377   2.324  53.009  1.00  0.00    -0.055 A 
HETATM   17  C3  UNL     1      23.690   1.131  52.753  1.00  0.00     0.010 A 
HETATM   18  C2  UNL     1      24.307  -0.027  53.187  1.00  0.00     0.037 A 
HETATM   19  C1  UNL     1      25.520  -0.045  53.833  1.00  0.00     0.065 A 
HETATM   20  C17 UNL     1      26.202   1.144  54.087  1.00  0.00     0.037 A 
HETATM   21  C16 UNL     1      25.575   2.297  53.648  1.00  0.00     0.010 A 
BRANCH  19  22
HETATM   22  O1  UNL     1      26.160  -1.204  54.279  1.00  0.00    -0.361 OA
HETATM   23  H1  UNL     1      26.645  -1.773  53.599  1.00  0.00     0.217 HD
ENDBRANCH  19  22
ENDBRANCH  15  16
ENDBRANCH   1  15
TORSDOF 3
ENDMDL
MODEL 9
REMARK VINA RESULT:      -7.5      3.736      7.712
REMARK  3 active torsions:
REMARK  status: ('A' for Active; 'I' for Inactive)
REMARK    1  A    between atoms: O1_1  and  C1_2 
REMARK    2  A    between atoms: C4_5  and  C5_6 
REMARK    3  A    between atoms: C5_6  and  C6_7 
ROOT
HETATM    1  C6  UNL     1      24.787   3.306  51.437  1.00  0.00     0.158 A 
HETATM    2  C7  UNL     1      23.324   3.401  51.619  1.00  0.00     0.040 A 
HETATM    3  C8  UNL     1      22.881   2.360  52.283  1.00  0.00     0.088 A 
HETATM    4  N1  UNL     1      21.600   1.957  52.717  1.00  0.00    -0.263 NA
HETATM    5  C9  UNL     1      21.064   0.815  52.409  1.00  0.00     0.092 C 
HETATM    6  C10 UNL     1      19.745   0.334  52.838  1.00  0.00     0.066 C 
HETATM    7  C11 UNL     1      19.785  -1.045  53.466  1.00  0.00     0.119 C 
HETATM    8  N2  UNL     1      20.724  -1.125  54.613  1.00  0.00    -0.411 N 
HETATM    9  C12 UNL     1      22.127  -1.054  54.358  1.00  0.00     0.125 C 
HETATM   10  C13 UNL     1      23.376  -0.631  53.935  1.00  0.00     0.003 C 
HETATM   11  C14 UNL     1      24.243   0.365  53.250  1.00  0.00     0.037 C 
HETATM   12  C15 UNL     1      24.048   1.504  52.623  1.00  0.00     0.098 A 
HETATM   13  O2  UNL     1      25.167   2.137  52.108  1.00  0.00    -0.339 OA
HETATM   14  H13 UNL     1      20.609  -1.230  55.662  1.00  0.00     0.153 HD
ENDROOT
BRANCH   1  15
HETATM   15  C5  UNL     1      25.040   3.199  49.958  1.00  0.00     0.075 C 
BRANCH  15  16
HETATM   16  C4  UNL     1      25.762   4.318  49.380  1.00  0.00    -0.055 A 
HETATM   17  C3  UNL     1      27.127   4.136  49.123  1.00  0.00     0.010 A 
HETATM   18  C2  UNL     1      27.788   5.216  48.573  1.00  0.00     0.037 A 
HETATM   19  C1  UNL     1      27.177   6.412  48.282  1.00  0.00     0.065 A 
HETATM   20  C17 UNL     1      25.818   6.592  48.539  1.00  0.00     0.037 A 
HETATM   21  C16 UNL     1      25.167   5.503  49.090  1.00  0.00     0.010 A 
BRANCH  19  22
HETATM   22  O1  UNL     1      27.827   7.517  47.725  1.00  0.00    -0.361 OA
HETATM   23  H1  UNL     1      27.272   8.193  47.221  1.00  0.00     0.217 HD
ENDBRANCH  19  22
ENDBRANCH  15  16
ENDBRANCH   1  15
TORSDOF 3
ENDMDL
