MODEL 1
REMARK VINA RESULT:      -7.0      0.000      0.000
REMARK  6 active torsions:
REMARK  status: ('A' for Active; 'I' for Inactive)
REMARK    1  A    between atoms: C1_2  and  N1_3 
REMARK    2  A    between atoms: C1_2  and  N3_12 
REMARK    3  A    between atoms: N1_3  and  C2_4 
REMARK    4  A    between atoms: C2_4  and  C3_5 
REMARK    5  A    between atoms: C3_5  and  N2_6 
REMARK    6  A    between atoms: N3_12  and  C8_13 
ROOT
HETATM    1  S1  UNL     1      25.290   3.861  50.863  1.00  0.00    -0.041 SA
HETATM    2  C1  UNL     1      24.475   3.028  52.028  1.00  0.00     0.172 C 
ENDROOT
BRANCH   2   3
HETATM    3  N1  UNL     1      23.116   2.565  51.851  1.00  0.00    -0.365 N 
HETATM    4  H1  UNL     1      22.409   3.228  52.215  1.00  0.00     0.161 HD
BRANCH   3   5
HETATM    5  C2  UNL     1      23.027   1.297  51.210  1.00  0.00     0.152 C 
BRANCH   5   6
HETATM    6  C3  UNL     1      21.784   0.521  51.402  1.00  0.00     0.292 C 
BRANCH   6   7
HETATM    7  N2  UNL     1      21.654  -0.267  52.574  1.00  0.00     0.094 N 
HETATM    8  C4  UNL     1      22.833  -0.751  53.187  1.00  0.00     0.298 C 
HETATM    9  C5  UNL     1      22.673  -1.160  54.623  1.00  0.00     0.198 C 
HETATM   10  O1  UNL     1      21.321  -1.219  54.999  1.00  0.00    -0.388 OA
HETATM   11  C6  UNL     1      20.898   0.126  54.903  1.00  0.00     0.198 C 
HETATM   12  C7  UNL     1      20.757   0.448  53.460  1.00  0.00     0.298 C 
ENDBRANCH   6   7
ENDBRANCH   5   6
ENDBRANCH   3   5
ENDBRANCH   2   3
BRANCH   2  13
HETATM   13  N3  UNL     1      25.229   2.812  53.216  1.00  0.00    -0.333 N 
HETATM   14  H14 UNL     1      25.037   3.201  54.175  1.00  0.00     0.168 HD
BRANCH  13  15
HETATM   15  C8  UNL     1      26.391   2.012  53.283  1.00  0.00     0.035 A 
HETATM   16  C9  UNL     1      27.712   2.336  53.555  1.00  0.00     0.032 A 
HETATM   17  C10 UNL     1      28.684   1.363  53.588  1.00  0.00     0.035 A 
HETATM   18  C11 UNL     1      28.372   0.041  53.353  1.00  0.00     0.070 A 
HETATM   19  N4  UNL     1      29.331  -0.906  53.386  1.00  0.00    -0.241 NA
HETATM   20  C14 UNL     1      27.050  -0.308  53.078  1.00  0.00     0.012 A 
HETATM   21  C12 UNL     1      29.049  -2.211  53.157  1.00  0.00     0.233 A 
HETATM   22  N5  UNL     1      27.773  -2.572  52.889  1.00  0.00    -0.253 NA
HETATM   23  C13 UNL     1      26.779  -1.657  52.845  1.00  0.00     0.132 A 
HETATM   24  C15 UNL     1      26.073   0.672  53.044  1.00  0.00     0.044 A 
ENDBRANCH  13  15
ENDBRANCH   2  13
TORSDOF 6
ENDMDL
MODEL 2
REMARK VINA RESULT:      -6.8      4.126      6.030
REMARK  6 active torsions:
REMARK  status: ('A' for Active; 'I' for Inactive)
REMARK    1  A    between atoms: C1_2  and  N1_3 
REMARK    2  A    between atoms: C1_2  and  N3_12 
REMARK    3  A    between atoms: N1_3  and  C2_4 
REMARK    4  A    between atoms: C2_4  and  C3_5 
REMARK    5  A    between atoms: C3_5  and  N2_6 
REMARK    6  A    between atoms: N3_12  and  C8_13 
ROOT
HETATM    1  S1  UNL     1      22.615   3.546  52.080  1.00  0.00    -0.041 SA
HETATM    2  C1  UNL     1      24.254   3.585  52.241  1.00  0.00     0.172 C 
ENDROOT
BRANCH   2   3
HETATM    3  N1  UNL     1      25.116   4.253  51.290  1.00  0.00    -0.365 N 
HETATM    4  H1  UNL     1      25.888   4.778  51.739  1.00  0.00     0.161 HD
BRANCH   3   5
HETATM    5  C2  UNL     1      24.732   4.051  49.934  1.00  0.00     0.152 C 
BRANCH   5   6
HETATM    6  C3  UNL     1      25.063   5.116  48.965  1.00  0.00     0.292 C 
BRANCH   6   7
HETATM    7  N2  UNL     1      26.363   5.682  49.002  1.00  0.00     0.094 N 
HETATM    8  C4  UNL     1      27.462   4.850  48.689  1.00  0.00     0.298 C 
HETATM    9  C5  UNL     1      28.714   5.581  48.297  1.00  0.00     0.198 C 
HETATM   10  O1  UNL     1      28.617   6.956  48.565  1.00  0.00    -0.388 OA
HETATM   11  C6  UNL     1      27.596   7.388  47.688  1.00  0.00     0.198 C 
HETATM   12  C7  UNL     1      26.301   6.918  48.247  1.00  0.00     0.298 C 
ENDBRANCH   6   7
ENDBRANCH   5   6
ENDBRANCH   3   5
ENDBRANCH   2   3
BRANCH   2  13
HETATM   13  N3  UNL     1      24.737   2.903  53.393  1.00  0.00    -0.333 N 
HETATM   14  H14 UNL     1      24.657   3.207  54.397  1.00  0.00     0.168 HD
BRANCH  13  15
HETATM   15  C8  UNL     1      25.424   1.669  53.354  1.00  0.00     0.035 A 
HETATM   16  C9  UNL     1      24.967   0.372  53.174  1.00  0.00     0.032 A 
HETATM   17  C10 UNL     1      25.845  -0.688  53.150  1.00  0.00     0.035 A 
HETATM   18  C11 UNL     1      27.201  -0.488  53.302  1.00  0.00     0.070 A 
HETATM   19  N4  UNL     1      28.053  -1.532  53.279  1.00  0.00    -0.241 NA
HETATM   20  C14 UNL     1      27.682   0.808  53.484  1.00  0.00     0.012 A 
HETATM   21  C12 UNL     1      29.389  -1.361  53.428  1.00  0.00     0.233 A 
HETATM   22  N5  UNL     1      29.878  -0.113  53.605  1.00  0.00    -0.253 NA
HETATM   23  C13 UNL     1      29.061   0.964  53.635  1.00  0.00     0.132 A 
HETATM   24  C15 UNL     1      26.798   1.873  53.509  1.00  0.00     0.044 A 
ENDBRANCH  13  15
ENDBRANCH   2  13
TORSDOF 6
ENDMDL
MODEL 3
REMARK VINA RESULT:      -6.7      2.252      5.701
REMARK  6 active torsions:
REMARK  status: ('A' for Active; 'I' for Inactive)
REMARK    1  A    between atoms: C1_2  and  N1_3 
REMARK    2  A    between atoms: C1_2  and  N3_12 
REMARK    3  A    between atoms: N1_3  and  C2_4 
REMARK    4  A    between atoms: C2_4  and  C3_5 
REMARK    5  A    between atoms: C3_5  and  N2_6 
REMARK    6  A    between atoms: N3_12  and  C8_13 
ROOT
HETATM    1  S1  UNL     1      23.752   4.820  51.495  1.00  0.00    -0.041 SA
HETATM    2  C1  UNL     1      24.711   3.661  50.824  1.00  0.00     0.172 C 
ENDROOT
BRANCH   2   3
HETATM    3  N1  UNL     1      26.154   3.755  50.806  1.00  0.00    -0.365 N 
HETATM    4  H1  UNL     1      26.498   4.714  50.616  1.00  0.00     0.161 HD
BRANCH   3   5
HETATM    5  C2  UNL     1      26.808   2.515  51.055  1.00  0.00     0.152 C 
BRANCH   5   6
HETATM    6  C3  UNL     1      27.250   2.242  52.438  1.00  0.00     0.292 C 
BRANCH   6   7
HETATM    7  N2  UNL     1      27.900   1.012  52.709  1.00  0.00     0.094 N 
HETATM    8  C4  UNL     1      28.543   0.857  53.959  1.00  0.00     0.298 C 
HETATM    9  C5  UNL     1      28.796  -0.566  54.365  1.00  0.00     0.198 C 
HETATM   10  O1  UNL     1      28.571  -1.457  53.303  1.00  0.00    -0.388 OA
HETATM   11  C6  UNL     1      27.183  -1.336  53.066  1.00  0.00     0.198 C 
HETATM   12  C7  UNL     1      26.960  -0.039  52.375  1.00  0.00     0.298 C 
ENDBRANCH   6   7
ENDBRANCH   5   6
ENDBRANCH   3   5
ENDBRANCH   2   3
BRANCH   2  13
HETATM   13  N3  UNL     1      23.990   2.568  50.266  1.00  0.00    -0.333 N 
HETATM   14  H14 UNL     1      24.076   2.174  49.294  1.00  0.00     0.168 HD
BRANCH  13  15
HETATM   15  C8  UNL     1      23.013   1.823  50.964  1.00  0.00     0.035 A 
HETATM   16  C9  UNL     1      21.647   1.690  50.765  1.00  0.00     0.032 A 
HETATM   17  C10 UNL     1      20.893   0.873  51.576  1.00  0.00     0.035 A 
HETATM   18  C11 UNL     1      21.475   0.165  52.606  1.00  0.00     0.070 A 
HETATM   19  N4  UNL     1      20.727  -0.631  53.397  1.00  0.00    -0.241 NA
HETATM   20  C14 UNL     1      22.847   0.284  52.824  1.00  0.00     0.012 A 
HETATM   21  C12 UNL     1      21.276  -1.335  54.416  1.00  0.00     0.233 A 
HETATM   22  N5  UNL     1      22.605  -1.235  54.646  1.00  0.00    -0.253 NA
HETATM   23  C13 UNL     1      23.393  -0.449  53.880  1.00  0.00     0.132 A 
HETATM   24  C15 UNL     1      23.604   1.106  52.009  1.00  0.00     0.044 A 
ENDBRANCH  13  15
ENDBRANCH   2  13
TORSDOF 6
ENDMDL
MODEL 4
REMARK VINA RESULT:      -6.5      1.786      2.408
REMARK  6 active torsions:
REMARK  status: ('A' for Active; 'I' for Inactive)
REMARK    1  A    between atoms: C1_2  and  N1_3 
REMARK    2  A    between atoms: C1_2  and  N3_12 
REMARK    3  A    between atoms: N1_3  and  C2_4 
REMARK    4  A    between atoms: C2_4  and  C3_5 
REMARK    5  A    between atoms: C3_5  and  N2_6 
REMARK    6  A    between atoms: N3_12  and  C8_13 
ROOT
HETATM    1  S1  UNL     1      26.275   3.229  50.261  1.00  0.00    -0.041 SA
HETATM    2  C1  UNL     1      25.240   2.992  51.521  1.00  0.00     0.172 C 
ENDROOT
BRANCH   2   3
HETATM    3  N1  UNL     1      23.803   2.958  51.356  1.00  0.00    -0.365 N 
HETATM    4  H1  UNL     1      23.361   3.890  51.449  1.00  0.00     0.161 HD
BRANCH   3   5
HETATM    5  C2  UNL     1      23.291   1.655  51.098  1.00  0.00     0.152 C 
BRANCH   5   6
HETATM    6  C3  UNL     1      22.400   1.057  52.115  1.00  0.00     0.292 C 
BRANCH   6   7
HETATM    7  N2  UNL     1      21.013   0.979  51.835  1.00  0.00     0.094 N 
HETATM    8  C4  UNL     1      20.163   1.964  52.389  1.00  0.00     0.298 C 
HETATM    9  C5  UNL     1      18.833   2.104  51.706  1.00  0.00     0.198 C 
HETATM   10  O1  UNL     1      18.597   1.052  50.807  1.00  0.00    -0.388 OA
HETATM   11  C6  UNL     1      19.591   1.238  49.819  1.00  0.00     0.198 C 
HETATM   12  C7  UNL     1      20.886   0.803  50.401  1.00  0.00     0.298 C 
ENDBRANCH   6   7
ENDBRANCH   5   6
ENDBRANCH   3   5
ENDBRANCH   2   3
BRANCH   2  13
HETATM   13  N3  UNL     1      25.889   2.827  52.777  1.00  0.00    -0.333 N 
HETATM   14  H14 UNL     1      25.690   3.341  53.673  1.00  0.00     0.168 HD
BRANCH  13  15
HETATM   15  C8  UNL     1      26.939   1.910  53.013  1.00  0.00     0.035 A 
HETATM   16  C9  UNL     1      28.232   2.099  53.476  1.00  0.00     0.032 A 
HETATM   17  C10 UNL     1      29.082   1.031  53.650  1.00  0.00     0.035 A 
HETATM   18  C11 UNL     1      28.670  -0.255  53.370  1.00  0.00     0.070 A 
HETATM   19  N4  UNL     1      29.509  -1.296  53.542  1.00  0.00    -0.241 NA
HETATM   20  C14 UNL     1      27.373  -0.468  52.904  1.00  0.00     0.012 A 
HETATM   21  C12 UNL     1      29.127  -2.567  53.273  1.00  0.00     0.233 A 
HETATM   22  N5  UNL     1      27.874  -2.797  52.820  1.00  0.00    -0.253 NA
HETATM   23  C13 UNL     1      26.998  -1.785  52.632  1.00  0.00     0.132 A 
HETATM   24  C15 UNL     1      26.520   0.608  52.729  1.00  0.00     0.044 A 
ENDBRANCH  13  15
ENDBRANCH   2  13
TORSDOF 6
ENDMDL
MODEL 5
REMARK VINA RESULT:      -6.5      2.269      6.290
REMARK  6 active torsions:
REMARK  status: ('A' for Active; 'I' for Inactive)
REMARK    1  A    between atoms: C1_2  and  N1_3 
REMARK    2  A    between atoms: C1_2  and  N3_12 
REMARK    3  A    between atoms: N1_3  and  C2_4 
REMARK    4  A    between atoms: C2_4  and  C3_5 
REMARK    5  A    between atoms: C3_5  and  N2_6 
REMARK    6  A    between atoms: N3_12  and  C8_13 
ROOT
HETATM    1  S1  UNL     1      23.777   4.595  51.607  1.00  0.00    -0.041 SA
HETATM    2  C1  UNL     1      24.437   3.350  50.754  1.00  0.00     0.172 C 
ENDROOT
BRANCH   2   3
HETATM    3  N1  UNL     1      25.837   3.308  50.392  1.00  0.00    -0.365 N 
HETATM    4  H1  UNL     1      26.123   4.090  49.776  1.00  0.00     0.161 HD
BRANCH   3   5
HETATM    5  C2  UNL     1      26.537   2.203  50.955  1.00  0.00     0.152 C 
BRANCH   5   6
HETATM    6  C3  UNL     1      26.935   2.300  52.376  1.00  0.00     0.292 C 
BRANCH   6   7
HETATM    7  N2  UNL     1      27.259   1.106  53.068  1.00  0.00     0.094 N 
HETATM    8  C4  UNL     1      26.971  -0.128  52.442  1.00  0.00     0.298 C 
HETATM    9  C5  UNL     1      27.732  -1.303  52.986  1.00  0.00     0.198 C 
HETATM   10  O1  UNL     1      28.395  -0.984  54.182  1.00  0.00    -0.388 OA
HETATM   11  C6  UNL     1      29.350  -0.024  53.778  1.00  0.00     0.198 C 
HETATM   12  C7  UNL     1      28.626   1.249  53.530  1.00  0.00     0.298 C 
ENDBRANCH   6   7
ENDBRANCH   5   6
ENDBRANCH   3   5
ENDBRANCH   2   3
BRANCH   2  13
HETATM   13  N3  UNL     1      23.507   2.330  50.409  1.00  0.00    -0.333 N 
HETATM   14  H14 UNL     1      23.186   2.057  49.445  1.00  0.00     0.168 HD
BRANCH  13  15
HETATM   15  C8  UNL     1      22.853   1.502  51.348  1.00  0.00     0.035 A 
HETATM   16  C9  UNL     1      23.301   0.920  52.524  1.00  0.00     0.032 A 
HETATM   17  C10 UNL     1      22.457   0.157  53.300  1.00  0.00     0.035 A 
HETATM   18  C11 UNL     1      21.145  -0.047  52.929  1.00  0.00     0.070 A 
HETATM   19  N4  UNL     1      20.326  -0.797  53.694  1.00  0.00    -0.241 NA
HETATM   20  C14 UNL     1      20.673   0.529  51.750  1.00  0.00     0.012 A 
HETATM   21  C12 UNL     1      19.034  -1.012  53.349  1.00  0.00     0.233 A 
HETATM   22  N5  UNL     1      18.555  -0.463  52.210  1.00  0.00    -0.253 NA
HETATM   23  C13 UNL     1      19.339   0.295  51.412  1.00  0.00     0.132 A 
HETATM   24  C15 UNL     1      21.523   1.295  50.971  1.00  0.00     0.044 A 
ENDBRANCH  13  15
ENDBRANCH   2  13
TORSDOF 6
ENDMDL
MODEL 6
REMARK VINA RESULT:      -6.4      4.212      6.013
REMARK  6 active torsions:
REMARK  status: ('A' for Active; 'I' for Inactive)
REMARK    1  A    between atoms: C1_2  and  N1_3 
REMARK    2  A    between atoms: C1_2  and  N3_12 
REMARK    3  A    between atoms: N1_3  and  C2_4 
REMARK    4  A    between atoms: C2_4  and  C3_5 
REMARK    5  A    between atoms: C3_5  and  N2_6 
REMARK    6  A    between atoms: N3_12  and  C8_13 
ROOT
HETATM    1  S1  UNL     1      23.371   4.004  51.428  1.00  0.00    -0.041 SA
HETATM    2  C1  UNL     1      24.881   3.348  51.471  1.00  0.00     0.172 C 
ENDROOT
BRANCH   2   3
HETATM    3  N1  UNL     1      26.032   3.996  50.880  1.00  0.00    -0.365 N 
HETATM    4  H1  UNL     1      26.761   4.243  51.573  1.00  0.00     0.161 HD
BRANCH   3   5
HETATM    5  C2  UNL     1      25.930   4.158  49.469  1.00  0.00     0.152 C 
BRANCH   5   6
HETATM    6  C3  UNL     1      25.635   5.513  48.957  1.00  0.00     0.292 C 
BRANCH   6   7
HETATM    7  N2  UNL     1      26.393   6.602  49.456  1.00  0.00     0.094 N 
HETATM    8  C4  UNL     1      27.383   7.166  48.618  1.00  0.00     0.298 C 
HETATM    9  C5  UNL     1      27.810   8.556  48.995  1.00  0.00     0.198 C 
HETATM   10  O1  UNL     1      27.323   8.924  50.259  1.00  0.00    -0.388 OA
HETATM   11  C6  UNL     1      25.922   8.959  50.071  1.00  0.00     0.198 C 
HETATM   12  C7  UNL     1      25.446   7.553  50.003  1.00  0.00     0.298 C 
ENDBRANCH   6   7
ENDBRANCH   5   6
ENDBRANCH   3   5
ENDBRANCH   2   3
BRANCH   2  13
HETATM   13  N3  UNL     1      24.945   2.092  52.137  1.00  0.00    -0.333 N 
HETATM   14  H14 UNL     1      24.141   1.475  52.420  1.00  0.00     0.168 HD
BRANCH  13  15
HETATM   15  C8  UNL     1      26.148   1.464  52.533  1.00  0.00     0.035 A 
HETATM   16  C9  UNL     1      27.316   1.981  53.073  1.00  0.00     0.032 A 
HETATM   17  C10 UNL     1      28.365   1.156  53.405  1.00  0.00     0.035 A 
HETATM   18  C11 UNL     1      28.282  -0.207  53.212  1.00  0.00     0.070 A 
HETATM   19  N4  UNL     1      29.316  -1.009  53.539  1.00  0.00    -0.241 NA
HETATM   20  C14 UNL     1      27.117  -0.749  52.671  1.00  0.00     0.012 A 
HETATM   21  C12 UNL     1      29.259  -2.350  53.358  1.00  0.00     0.233 A 
HETATM   22  N5  UNL     1      28.138  -2.897  52.835  1.00  0.00    -0.253 NA
HETATM   23  C13 UNL     1      27.077  -2.133  52.491  1.00  0.00     0.132 A 
HETATM   24  C15 UNL     1      26.063   0.083  52.336  1.00  0.00     0.044 A 
ENDBRANCH  13  15
ENDBRANCH   2  13
TORSDOF 6
ENDMDL
MODEL 7
REMARK VINA RESULT:      -6.4      3.114      4.843
REMARK  6 active torsions:
REMARK  status: ('A' for Active; 'I' for Inactive)
REMARK    1  A    between atoms: C1_2  and  N1_3 
REMARK    2  A    between atoms: C1_2  and  N3_12 
REMARK    3  A    between atoms: N1_3  and  C2_4 
REMARK    4  A    between atoms: C2_4  and  C3_5 
REMARK    5  A    between atoms: C3_5  and  N2_6 
REMARK    6  A    between atoms: N3_12  and  C8_13 
ROOT
HETATM    1  S1  UNL     1      20.568   1.959  52.553  1.00  0.00    -0.041 SA
HETATM    2  C1  UNL     1      22.013   1.788  51.782  1.00  0.00     0.172 C 
ENDROOT
BRANCH   2   3
HETATM    3  N1  UNL     1      22.130   1.206  50.462  1.00  0.00    -0.365 N 
HETATM    4  H1  UNL     1      21.817   0.219  50.423  1.00  0.00     0.161 HD
BRANCH   3   5
HETATM    5  C2  UNL     1      22.649   2.105  49.488  1.00  0.00     0.152 C 
BRANCH   5   6
HETATM    6  C3  UNL     1      22.231   3.521  49.574  1.00  0.00     0.292 C 
BRANCH   6   7
HETATM    7  N2  UNL     1      23.235   4.520  49.602  1.00  0.00     0.094 N 
HETATM    8  C4  UNL     1      23.155   5.518  50.601  1.00  0.00     0.298 C 
HETATM    9  C5  UNL     1      24.443   6.244  50.871  1.00  0.00     0.198 C 
HETATM   10  O1  UNL     1      25.413   5.959  49.897  1.00  0.00    -0.388 OA
HETATM   11  C6  UNL     1      25.668   4.582  50.083  1.00  0.00     0.198 C 
HETATM   12  C7  UNL     1      24.510   3.834  49.529  1.00  0.00     0.298 C 
ENDBRANCH   6   7
ENDBRANCH   5   6
ENDBRANCH   3   5
ENDBRANCH   2   3
BRANCH   2  13
HETATM   13  N3  UNL     1      23.127   2.262  52.531  1.00  0.00    -0.333 N 
HETATM   14  H14 UNL     1      23.358   3.260  52.771  1.00  0.00     0.168 HD
BRANCH  13  15
HETATM   15  C8  UNL     1      24.124   1.427  53.083  1.00  0.00     0.035 A 
HETATM   16  C9  UNL     1      24.090   0.099  53.481  1.00  0.00     0.032 A 
HETATM   17  C10 UNL     1      25.215  -0.518  53.977  1.00  0.00     0.035 A 
HETATM   18  C11 UNL     1      26.406   0.168  54.092  1.00  0.00     0.070 A 
HETATM   19  N4  UNL     1      27.503  -0.444  54.582  1.00  0.00    -0.241 NA
HETATM   20  C14 UNL     1      26.463   1.504  53.698  1.00  0.00     0.012 A 
HETATM   21  C12 UNL     1      28.684   0.209  54.705  1.00  0.00     0.233 A 
HETATM   22  N5  UNL     1      28.763   1.505  54.328  1.00  0.00    -0.253 NA
HETATM   23  C13 UNL     1      27.689   2.159  53.833  1.00  0.00     0.132 A 
HETATM   24  C15 UNL     1      25.330   2.123  53.199  1.00  0.00     0.044 A 
ENDBRANCH  13  15
ENDBRANCH   2  13
TORSDOF 6
ENDMDL
MODEL 8
REMARK VINA RESULT:      -6.4      4.429      6.763
REMARK  6 active torsions:
REMARK  status: ('A' for Active; 'I' for Inactive)
REMARK    1  A    between atoms: C1_2  and  N1_3 
REMARK    2  A    between atoms: C1_2  and  N3_12 
REMARK    3  A    between atoms: N1_3  and  C2_4 
REMARK    4  A    between atoms: C2_4  and  C3_5 
REMARK    5  A    between atoms: C3_5  and  N2_6 
REMARK    6  A    between atoms: N3_12  and  C8_13 
ROOT
HETATM    1  S1  UNL     1      22.376   2.902  50.853  1.00  0.00    -0.041 SA
HETATM    2  C1  UNL     1      23.615   3.878  51.328  1.00  0.00     0.172 C 
ENDROOT
BRANCH   2   3
HETATM    3  N1  UNL     1      24.262   3.749  52.615  1.00  0.00    -0.365 N 
HETATM    4  H1  UNL     1      24.591   4.653  52.998  1.00  0.00     0.161 HD
BRANCH   3   5
HETATM    5  C2  UNL     1      24.312   2.409  53.094  1.00  0.00     0.152 C 
BRANCH   5   6
HETATM    6  C3  UNL     1      25.505   1.606  52.752  1.00  0.00     0.292 C 
BRANCH   6   7
HETATM    7  N2  UNL     1      26.538   1.487  53.715  1.00  0.00     0.094 N 
HETATM    8  C4  UNL     1      26.906   0.190  54.143  1.00  0.00     0.298 C 
HETATM    9  C5  UNL     1      28.264   0.099  54.777  1.00  0.00     0.198 C 
HETATM   10  O1  UNL     1      28.797   1.369  55.050  1.00  0.00    -0.388 OA
HETATM   11  C6  UNL     1      28.979   1.928  53.765  1.00  0.00     0.198 C 
HETATM   12  C7  UNL     1      27.638   2.309  53.250  1.00  0.00     0.298 C 
ENDBRANCH   6   7
ENDBRANCH   5   6
ENDBRANCH   3   5
ENDBRANCH   2   3
BRANCH   2  13
HETATM   13  N3  UNL     1      23.983   4.854  50.359  1.00  0.00    -0.333 N 
HETATM   14  H14 UNL     1      23.380   5.616  49.957  1.00  0.00     0.168 HD
BRANCH  13  15
HETATM   15  C8  UNL     1      25.266   4.945  49.774  1.00  0.00     0.035 A 
HETATM   16  C9  UNL     1      26.234   3.981  49.534  1.00  0.00     0.032 A 
HETATM   17  C10 UNL     1      27.419   4.310  48.917  1.00  0.00     0.035 A 
HETATM   18  C11 UNL     1      27.676   5.606  48.521  1.00  0.00     0.070 A 
HETATM   19  N4  UNL     1      28.841   5.919  47.920  1.00  0.00    -0.241 NA
HETATM   20  C14 UNL     1      26.717   6.591  48.752  1.00  0.00     0.012 A 
HETATM   21  C12 UNL     1      29.116   7.185  47.522  1.00  0.00     0.233 A 
HETATM   22  N5  UNL     1      28.200   8.157  47.736  1.00  0.00    -0.253 NA
HETATM   23  C13 UNL     1      27.019   7.889  48.336  1.00  0.00     0.132 A 
HETATM   24  C15 UNL     1      25.525   6.259  49.373  1.00  0.00     0.044 A 
ENDBRANCH  13  15
ENDBRANCH   2  13
TORSDOF 6
ENDMDL
MODEL 9
REMARK VINA RESULT:      -6.3      3.543      5.841
REMARK  6 active torsions:
REMARK  status: ('A' for Active; 'I' for Inactive)
REMARK    1  A    between atoms: C1_2  and  N1_3 
REMARK    2  A    between atoms: C1_2  and  N3_12 
REMARK    3  A    between atoms: N1_3  and  C2_4 
REMARK    4  A    between atoms: C2_4  and  C3_5 
REMARK    5  A    between atoms: C3_5  and  N2_6 
REMARK    6  A    between atoms: N3_12  and  C8_13 
ROOT
HETATM    1  S1  UNL     1      22.025   1.387  50.510  1.00  0.00    -0.041 SA
HETATM    2  C1  UNL     1      22.813   2.033  51.804  1.00  0.00     0.172 C 
ENDROOT
BRANCH   2   3
HETATM    3  N1  UNL     1      22.895   1.362  53.083  1.00  0.00    -0.365 N 
HETATM    4  H1  UNL     1      22.565   1.947  53.872  1.00  0.00     0.161 HD
BRANCH   3   5
HETATM    5  C2  UNL     1      23.408   0.037  52.998  1.00  0.00     0.152 C 
BRANCH   5   6
HETATM    6  C3  UNL     1      24.401  -0.377  54.012  1.00  0.00     0.292 C 
BRANCH   6   7
HETATM    7  N2  UNL     1      25.759  -0.024  53.810  1.00  0.00     0.094 N 
HETATM    8  C4  UNL     1      26.551   0.258  54.947  1.00  0.00     0.298 C 
HETATM    9  C5  UNL     1      28.033   0.167  54.719  1.00  0.00     0.198 C 
HETATM   10  O1  UNL     1      28.344   0.066  53.354  1.00  0.00    -0.388 OA
HETATM   11  C6  UNL     1      27.792  -1.182  52.985  1.00  0.00     0.198 C 
HETATM   12  C7  UNL     1      26.318  -1.013  52.909  1.00  0.00     0.298 C 
ENDBRANCH   6   7
ENDBRANCH   5   6
ENDBRANCH   3   5
ENDBRANCH   2   3
BRANCH   2  13
HETATM   13  N3  UNL     1      23.399   3.304  51.547  1.00  0.00    -0.333 N 
HETATM   14  H14 UNL     1      23.038   4.247  51.844  1.00  0.00     0.168 HD
BRANCH  13  15
HETATM   15  C8  UNL     1      24.599   3.493  50.825  1.00  0.00     0.035 A 
HETATM   16  C9  UNL     1      25.583   2.598  50.434  1.00  0.00     0.032 A 
HETATM   17  C10 UNL     1      26.671   3.019  49.704  1.00  0.00     0.035 A 
HETATM   18  C11 UNL     1      26.810   4.342  49.341  1.00  0.00     0.070 A 
HETATM   19  N4  UNL     1      27.880   4.746  48.627  1.00  0.00    -0.241 NA
HETATM   20  C14 UNL     1      25.832   5.259  49.722  1.00  0.00     0.012 A 
HETATM   21  C12 UNL     1      28.039   6.041  48.259  1.00  0.00     0.233 A 
HETATM   22  N5  UNL     1      27.102   6.948  48.618  1.00  0.00    -0.253 NA
HETATM   23  C13 UNL     1      26.014   6.588  49.334  1.00  0.00     0.132 A 
HETATM   24  C15 UNL     1      24.739   4.834  50.458  1.00  0.00     0.044 A 
ENDBRANCH  13  15
ENDBRANCH   2  13
TORSDOF 6
ENDMDL
