MODEL 1
REMARK VINA RESULT:      -7.9      0.000      0.000
REMARK  6 active torsions:
REMARK  status: ('A' for Active; 'I' for Inactive)
REMARK    1  A    between atoms: C2_2  and  O1_3 
REMARK    2  A    between atoms: O1_3  and  C3_4 
REMARK    3  A    between atoms: C7_10  and  C8_11 
REMARK    4  A    between atoms: C8_11  and  N3_12 
REMARK    5  A    between atoms: N3_12  and  C10_14 
REMARK    6  A    between atoms: C14_18  and  C15_19 
ROOT
HETATM    1  C3  UNL     1      26.269  -0.133  53.971  1.00  0.00     0.077 A 
HETATM    2  C4  UNL     1      25.275  -1.009  53.833  1.00  0.00     0.070 A 
HETATM    3  C5  UNL     1      24.159  -0.178  53.395  1.00  0.00     0.074 A 
HETATM    4  N1  UNL     1      22.878  -0.499  53.091  1.00  0.00    -0.241 NA
HETATM    5  C6  UNL     1      21.986   0.431  52.699  1.00  0.00     0.234 A 
HETATM    6  N2  UNL     1      22.327   1.735  52.588  1.00  0.00    -0.240 NA
HETATM    7  C7  UNL     1      23.595   2.063  52.887  1.00  0.00     0.086 A 
HETATM    8  C17 UNL     1      24.538   1.144  53.291  1.00  0.00     0.032 A 
HETATM    9  C18 UNL     1      25.809   1.217  53.631  1.00  0.00    -0.014 A 
HETATM   10  C19 UNL     1      26.601   2.463  53.654  1.00  0.00     0.052 C 
ENDROOT
BRANCH   7  11
HETATM   11  C8  UNL     1      23.875   3.329  52.765  1.00  0.00     0.123 C 
BRANCH  11  12
HETATM   12  N3  UNL     1      23.766   4.009  51.533  1.00  0.00    -0.359 N 
HETATM   13  C9  UNL     1      22.489   4.610  51.120  1.00  0.00     0.156 C 
BRANCH  12  14
HETATM   14  C10 UNL     1      24.881   4.134  50.660  1.00  0.00     0.034 A 
HETATM   15  C11 UNL     1      25.624   3.051  50.210  1.00  0.00     0.029 A 
HETATM   16  C12 UNL     1      26.704   3.172  49.365  1.00  0.00     0.003 A 
HETATM   17  C13 UNL     1      27.077   4.442  48.932  1.00  0.00     0.016 A 
HETATM   18  C14 UNL     1      26.377   5.556  49.346  1.00  0.00     0.050 A 
HETATM   19  C16 UNL     1      25.299   5.352  50.199  1.00  0.00     0.045 A 
BRANCH  18  20
HETATM   20  C15 UNL     1      26.740   6.945  48.909  1.00  0.00     0.417 C 
HETATM   21  F1  UNL     1      25.974   7.284  47.816  1.00  0.00    -0.166 F 
HETATM   22  F2  UNL     1      26.643   7.823  49.950  1.00  0.00    -0.166 F 
HETATM   23  F3  UNL     1      28.069   6.913  48.479  1.00  0.00    -0.166 F 
ENDBRANCH  18  20
ENDBRANCH  12  14
ENDBRANCH  11  12
ENDBRANCH   7  11
BRANCH   1  24
HETATM   24  O1  UNL     1      27.565  -0.481  54.383  1.00  0.00    -0.351 OA
BRANCH  24  25
HETATM   25  C2  UNL     1      28.502  -0.942  53.406  1.00  0.00     0.171 C 
HETATM   26  C1  UNL     1      29.830  -0.245  53.596  1.00  0.00     0.034 C 
ENDBRANCH  24  25
ENDBRANCH   1  24
TORSDOF 6
ENDMDL
MODEL 2
REMARK VINA RESULT:      -7.8      3.846      6.775
REMARK  6 active torsions:
REMARK  status: ('A' for Active; 'I' for Inactive)
REMARK    1  A    between atoms: C2_2  and  O1_3 
REMARK    2  A    between atoms: O1_3  and  C3_4 
REMARK    3  A    between atoms: C7_10  and  C8_11 
REMARK    4  A    between atoms: C8_11  and  N3_12 
REMARK    5  A    between atoms: N3_12  and  C10_14 
REMARK    6  A    between atoms: C14_18  and  C15_19 
ROOT
HETATM    1  C3  UNL     1      27.440   5.282  48.630  1.00  0.00     0.077 A 
HETATM    2  C4  UNL     1      26.908   6.458  48.305  1.00  0.00     0.070 A 
HETATM    3  C5  UNL     1      25.515   6.318  48.718  1.00  0.00     0.074 A 
HETATM    4  N1  UNL     1      24.475   7.184  48.645  1.00  0.00    -0.241 NA
HETATM    5  C6  UNL     1      23.247   6.858  49.089  1.00  0.00     0.234 A 
HETATM    6  N2  UNL     1      22.989   5.646  49.632  1.00  0.00    -0.240 NA
HETATM    7  C7  UNL     1      24.014   4.781  49.709  1.00  0.00     0.086 A 
HETATM    8  C17 UNL     1      25.285   5.074  49.267  1.00  0.00     0.032 A 
HETATM    9  C18 UNL     1      26.425   4.412  49.234  1.00  0.00    -0.014 A 
HETATM   10  C19 UNL     1      26.609   3.034  49.729  1.00  0.00     0.052 C 
ENDROOT
BRANCH   7  11
HETATM   11  C8  UNL     1      23.718   3.629  50.239  1.00  0.00     0.123 C 
BRANCH  11  12
HETATM   12  N3  UNL     1      23.642   3.440  51.635  1.00  0.00    -0.359 N 
HETATM   13  C9  UNL     1      23.492   4.589  52.540  1.00  0.00     0.156 C 
BRANCH  12  14
HETATM   14  C10 UNL     1      23.709   2.139  52.206  1.00  0.00     0.034 A 
HETATM   15  C11 UNL     1      22.598   1.452  52.674  1.00  0.00     0.029 A 
HETATM   16  C12 UNL     1      22.662   0.193  53.227  1.00  0.00     0.003 A 
HETATM   17  C13 UNL     1      23.903  -0.433  53.326  1.00  0.00     0.016 A 
HETATM   18  C14 UNL     1      25.043   0.201  52.877  1.00  0.00     0.050 A 
HETATM   19  C16 UNL     1      24.896   1.471  52.332  1.00  0.00     0.045 A 
BRANCH  18  20
HETATM   20  C15 UNL     1      26.402  -0.430  52.962  1.00  0.00     0.417 C 
HETATM   21  F1  UNL     1      27.296   0.338  52.251  1.00  0.00    -0.166 F 
HETATM   22  F2  UNL     1      26.761  -0.639  54.263  1.00  0.00    -0.166 F 
HETATM   23  F3  UNL     1      26.329  -1.668  52.319  1.00  0.00    -0.166 F 
ENDBRANCH  18  20
ENDBRANCH  12  14
ENDBRANCH  11  12
ENDBRANCH   7  11
BRANCH   1  24
HETATM   24  O1  UNL     1      28.787   4.947  48.415  1.00  0.00    -0.351 OA
BRANCH  24  25
HETATM   25  C2  UNL     1      29.681   5.954  47.934  1.00  0.00     0.171 C 
HETATM   26  C1  UNL     1      30.995   5.875  48.679  1.00  0.00     0.034 C 
ENDBRANCH  24  25
ENDBRANCH   1  24
TORSDOF 6
ENDMDL
MODEL 3
REMARK VINA RESULT:      -7.6      3.772      6.366
REMARK  6 active torsions:
REMARK  status: ('A' for Active; 'I' for Inactive)
REMARK    1  A    between atoms: C2_2  and  O1_3 
REMARK    2  A    between atoms: O1_3  and  C3_4 
REMARK    3  A    between atoms: C7_10  and  C8_11 
REMARK    4  A    between atoms: C8_11  and  N3_12 
REMARK    5  A    between atoms: N3_12  and  C10_14 
REMARK    6  A    between atoms: C14_18  and  C15_19 
ROOT
HETATM    1  C3  UNL     1      24.525   3.580  50.144  1.00  0.00     0.077 A 
HETATM    2  C4  UNL     1      24.072   3.197  48.952  1.00  0.00     0.070 A 
HETATM    3  C5  UNL     1      22.851   2.468  49.279  1.00  0.00     0.074 A 
HETATM    4  N1  UNL     1      21.951   1.841  48.484  1.00  0.00    -0.241 NA
HETATM    5  C6  UNL     1      20.871   1.215  48.989  1.00  0.00     0.234 A 
HETATM    6  N2  UNL     1      20.631   1.181  50.320  1.00  0.00    -0.240 NA
HETATM    7  C7  UNL     1      21.519   1.799  51.116  1.00  0.00     0.086 A 
HETATM    8  C17 UNL     1      22.635   2.451  50.641  1.00  0.00     0.032 A 
HETATM    9  C18 UNL     1      23.626   3.114  51.205  1.00  0.00    -0.014 A 
HETATM   10  C19 UNL     1      23.771   3.328  52.658  1.00  0.00     0.052 C 
ENDROOT
BRANCH   7  11
HETATM   11  C8  UNL     1      21.246   1.740  52.388  1.00  0.00     0.123 C 
BRANCH  11  12
HETATM   12  N3  UNL     1      21.127   0.513  53.075  1.00  0.00    -0.359 N 
HETATM   13  C9  UNL     1      19.834  -0.183  53.148  1.00  0.00     0.156 C 
BRANCH  12  14
HETATM   14  C10 UNL     1      22.248  -0.084  53.715  1.00  0.00     0.034 A 
HETATM   15  C11 UNL     1      22.166  -0.771  54.917  1.00  0.00     0.029 A 
HETATM   16  C12 UNL     1      23.251  -1.349  55.537  1.00  0.00     0.003 A 
HETATM   17  C13 UNL     1      24.502  -1.245  54.931  1.00  0.00     0.016 A 
HETATM   18  C14 UNL     1      24.645  -0.574  53.734  1.00  0.00     0.050 A 
HETATM   19  C16 UNL     1      23.502  -0.018  53.173  1.00  0.00     0.045 A 
BRANCH  18  20
HETATM   20  C15 UNL     1      25.970  -0.434  53.043  1.00  0.00     0.417 C 
HETATM   21  F1  UNL     1      25.809   0.353  51.925  1.00  0.00    -0.166 F 
HETATM   22  F2  UNL     1      26.924   0.018  53.908  1.00  0.00    -0.166 F 
HETATM   23  F3  UNL     1      26.344  -1.703  52.595  1.00  0.00    -0.166 F 
ENDBRANCH  18  20
ENDBRANCH  12  14
ENDBRANCH  11  12
ENDBRANCH   7  11
BRANCH   1  24
HETATM   24  O1  UNL     1      25.700   4.325  50.331  1.00  0.00    -0.351 OA
BRANCH  24  25
HETATM   25  C2  UNL     1      26.734   4.245  49.346  1.00  0.00     0.171 C 
HETATM   26  C1  UNL     1      26.931   5.597  48.696  1.00  0.00     0.034 C 
ENDBRANCH  24  25
ENDBRANCH   1  24
TORSDOF 6
ENDMDL
MODEL 4
REMARK VINA RESULT:      -7.5      2.477      4.060
REMARK  6 active torsions:
REMARK  status: ('A' for Active; 'I' for Inactive)
REMARK    1  A    between atoms: C2_2  and  O1_3 
REMARK    2  A    between atoms: O1_3  and  C3_4 
REMARK    3  A    between atoms: C7_10  and  C8_11 
REMARK    4  A    between atoms: C8_11  and  N3_12 
REMARK    5  A    between atoms: N3_12  and  C10_14 
REMARK    6  A    between atoms: C14_18  and  C15_19 
ROOT
HETATM    1  C3  UNL     1      23.473   0.305  52.675  1.00  0.00     0.077 A 
HETATM    2  C4  UNL     1      24.537   0.120  53.454  1.00  0.00     0.070 A 
HETATM    3  C5  UNL     1      25.538   1.002  52.864  1.00  0.00     0.074 A 
HETATM    4  N1  UNL     1      26.823   1.249  53.216  1.00  0.00    -0.241 NA
HETATM    5  C6  UNL     1      27.594   2.114  52.529  1.00  0.00     0.234 A 
HETATM    6  N2  UNL     1      27.122   2.781  51.451  1.00  0.00    -0.240 NA
HETATM    7  C7  UNL     1      25.849   2.543  51.095  1.00  0.00     0.086 A 
HETATM    8  C17 UNL     1      25.027   1.667  51.769  1.00  0.00     0.032 A 
HETATM    9  C18 UNL     1      23.778   1.275  51.618  1.00  0.00    -0.014 A 
HETATM   10  C19 UNL     1      22.871   1.751  50.555  1.00  0.00     0.052 C 
ENDROOT
BRANCH   7  11
HETATM   11  C8  UNL     1      25.440   3.207  50.053  1.00  0.00     0.123 C 
BRANCH  11  12
HETATM   12  N3  UNL     1      25.134   4.584  50.110  1.00  0.00    -0.359 N 
HETATM   13  C9  UNL     1      24.125   5.088  51.054  1.00  0.00     0.156 C 
BRANCH  12  14
HETATM   14  C10 UNL     1      25.788   5.520  49.263  1.00  0.00     0.034 A 
HETATM   15  C11 UNL     1      25.140   6.588  48.660  1.00  0.00     0.029 A 
HETATM   16  C12 UNL     1      25.774   7.494  47.839  1.00  0.00     0.003 A 
HETATM   17  C13 UNL     1      27.137   7.338  47.596  1.00  0.00     0.016 A 
HETATM   18  C14 UNL     1      27.834   6.294  48.167  1.00  0.00     0.050 A 
HETATM   19  C16 UNL     1      27.124   5.423  48.984  1.00  0.00     0.045 A 
BRANCH  18  20
HETATM   20  C15 UNL     1      29.301   6.084  47.935  1.00  0.00     0.417 C 
HETATM   21  F1  UNL     1      30.006   6.704  48.943  1.00  0.00    -0.166 F 
HETATM   22  F2  UNL     1      29.586   4.756  47.795  1.00  0.00    -0.166 F 
HETATM   23  F3  UNL     1      29.635   6.736  46.746  1.00  0.00    -0.166 F 
ENDBRANCH  18  20
ENDBRANCH  12  14
ENDBRANCH  11  12
ENDBRANCH   7  11
BRANCH   1  24
HETATM   24  O1  UNL     1      22.245  -0.349  52.862  1.00  0.00    -0.351 OA
BRANCH  24  25
HETATM   25  C2  UNL     1      21.838  -0.689  54.190  1.00  0.00     0.171 C 
HETATM   26  C1  UNL     1      20.753   0.257  54.655  1.00  0.00     0.034 C 
ENDBRANCH  24  25
ENDBRANCH   1  24
TORSDOF 6
ENDMDL
MODEL 5
REMARK VINA RESULT:      -7.5      4.244      6.776
REMARK  6 active torsions:
REMARK  status: ('A' for Active; 'I' for Inactive)
REMARK    1  A    between atoms: C2_2  and  O1_3 
REMARK    2  A    between atoms: O1_3  and  C3_4 
REMARK    3  A    between atoms: C7_10  and  C8_11 
REMARK    4  A    between atoms: C8_11  and  N3_12 
REMARK    5  A    between atoms: N3_12  and  C10_14 
REMARK    6  A    between atoms: C14_18  and  C15_19 
ROOT
HETATM    1  C3  UNL     1      19.003   0.046  51.537  1.00  0.00     0.077 A 
HETATM    2  C4  UNL     1      18.796  -0.496  52.735  1.00  0.00     0.070 A 
HETATM    3  C5  UNL     1      20.129  -0.505  53.331  1.00  0.00     0.074 A 
HETATM    4  N1  UNL     1      20.558  -0.937  54.541  1.00  0.00    -0.241 NA
HETATM    5  C6  UNL     1      21.851  -0.856  54.906  1.00  0.00     0.234 A 
HETATM    6  N2  UNL     1      22.789  -0.338  54.080  1.00  0.00    -0.240 NA
HETATM    7  C7  UNL     1      22.372   0.093  52.878  1.00  0.00     0.086 A 
HETATM    8  C17 UNL     1      21.060   0.029  52.465  1.00  0.00     0.032 A 
HETATM    9  C18 UNL     1      20.422   0.376  51.365  1.00  0.00    -0.014 A 
HETATM   10  C19 UNL     1      21.059   0.990  50.184  1.00  0.00     0.052 C 
ENDROOT
BRANCH   7  11
HETATM   11  C8  UNL     1      23.309   0.584  52.118  1.00  0.00     0.123 C 
BRANCH  11  12
HETATM   12  N3  UNL     1      24.476   1.174  52.649  1.00  0.00    -0.359 N 
HETATM   13  C9  UNL     1      24.481   2.586  53.061  1.00  0.00     0.156 C 
BRANCH  12  14
HETATM   14  C10 UNL     1      25.676   0.426  52.801  1.00  0.00     0.034 A 
HETATM   15  C11 UNL     1      25.790  -0.913  52.456  1.00  0.00     0.029 A 
HETATM   16  C12 UNL     1      26.951  -1.638  52.603  1.00  0.00     0.003 A 
HETATM   17  C13 UNL     1      28.076  -1.002  53.124  1.00  0.00     0.016 A 
HETATM   18  C14 UNL     1      28.023   0.329  53.484  1.00  0.00     0.050 A 
HETATM   19  C16 UNL     1      26.815   0.991  53.305  1.00  0.00     0.045 A 
BRANCH  18  20
HETATM   20  C15 UNL     1      29.207   1.058  54.050  1.00  0.00     0.417 C 
HETATM   21  F1  UNL     1      30.358   0.408  53.662  1.00  0.00    -0.166 F 
HETATM   22  F2  UNL     1      29.173   2.379  53.707  1.00  0.00    -0.166 F 
HETATM   23  F3  UNL     1      29.134   0.959  55.441  1.00  0.00    -0.166 F 
ENDBRANCH  18  20
ENDBRANCH  12  14
ENDBRANCH  11  12
ENDBRANCH   7  11
BRANCH   1  24
HETATM   24  O1  UNL     1      17.988   0.260  50.591  1.00  0.00    -0.351 OA
BRANCH  24  25
HETATM   25  C2  UNL     1      17.341   1.534  50.547  1.00  0.00     0.171 C 
HETATM   26  C1  UNL     1      17.513   2.153  49.178  1.00  0.00     0.034 C 
ENDBRANCH  24  25
ENDBRANCH   1  24
TORSDOF 6
ENDMDL
MODEL 6
REMARK VINA RESULT:      -7.5      2.996      5.126
REMARK  6 active torsions:
REMARK  status: ('A' for Active; 'I' for Inactive)
REMARK    1  A    between atoms: C2_2  and  O1_3 
REMARK    2  A    between atoms: O1_3  and  C3_4 
REMARK    3  A    between atoms: C7_10  and  C8_11 
REMARK    4  A    between atoms: C8_11  and  N3_12 
REMARK    5  A    between atoms: N3_12  and  C10_14 
REMARK    6  A    between atoms: C14_18  and  C15_19 
ROOT
HETATM    1  C3  UNL     1      20.805  -0.232  53.318  1.00  0.00     0.077 A 
HETATM    2  C4  UNL     1      20.928  -0.849  54.491  1.00  0.00     0.070 A 
HETATM    3  C5  UNL     1      22.373  -0.926  54.677  1.00  0.00     0.074 A 
HETATM    4  N1  UNL     1      23.113  -1.447  55.685  1.00  0.00    -0.241 NA
HETATM    5  C6  UNL     1      24.459  -1.418  55.667  1.00  0.00     0.234 A 
HETATM    6  N2  UNL     1      25.141  -0.865  54.638  1.00  0.00    -0.240 NA
HETATM    7  C7  UNL     1      24.416  -0.346  53.634  1.00  0.00     0.086 A 
HETATM    8  C17 UNL     1      23.039  -0.354  53.613  1.00  0.00     0.032 A 
HETATM    9  C18 UNL     1      22.127   0.080  52.765  1.00  0.00    -0.014 A 
HETATM   10  C19 UNL     1      22.425   0.758  51.488  1.00  0.00     0.052 C 
ENDROOT
BRANCH   7  11
HETATM   11  C8  UNL     1      25.116   0.175  52.667  1.00  0.00     0.123 C 
BRANCH  11  12
HETATM   12  N3  UNL     1      25.782   1.411  52.802  1.00  0.00    -0.359 N 
HETATM   13  C9  UNL     1      26.703   1.648  53.923  1.00  0.00     0.156 C 
BRANCH  12  14
HETATM   14  C10 UNL     1      25.585   2.460  51.862  1.00  0.00     0.034 A 
HETATM   15  C11 UNL     1      26.412   2.671  50.768  1.00  0.00     0.029 A 
HETATM   16  C12 UNL     1      26.221   3.686  49.858  1.00  0.00     0.003 A 
HETATM   17  C13 UNL     1      25.144   4.552  50.035  1.00  0.00     0.016 A 
HETATM   18  C14 UNL     1      24.288   4.391  51.105  1.00  0.00     0.050 A 
HETATM   19  C16 UNL     1      24.547   3.343  51.979  1.00  0.00     0.045 A 
BRANCH  18  20
HETATM   20  C15 UNL     1      23.115   5.297  51.340  1.00  0.00     0.417 C 
HETATM   21  F1  UNL     1      23.557   6.601  51.371  1.00  0.00    -0.166 F 
HETATM   22  F2  UNL     1      22.130   5.066  50.423  1.00  0.00    -0.166 F 
HETATM   23  F3  UNL     1      22.612   5.009  52.611  1.00  0.00    -0.166 F 
ENDBRANCH  18  20
ENDBRANCH  12  14
ENDBRANCH  11  12
ENDBRANCH   7  11
BRANCH   1  24
HETATM   24  O1  UNL     1      19.571   0.067  52.718  1.00  0.00    -0.351 OA
BRANCH  24  25
HETATM   25  C2  UNL     1      18.494  -0.863  52.851  1.00  0.00     0.171 C 
HETATM   26  C1  UNL     1      17.396  -0.525  51.868  1.00  0.00     0.034 C 
ENDBRANCH  24  25
ENDBRANCH   1  24
TORSDOF 6
ENDMDL
MODEL 7
REMARK VINA RESULT:      -7.3      2.605      3.550
REMARK  6 active torsions:
REMARK  status: ('A' for Active; 'I' for Inactive)
REMARK    1  A    between atoms: C2_2  and  O1_3 
REMARK    2  A    between atoms: O1_3  and  C3_4 
REMARK    3  A    between atoms: C7_10  and  C8_11 
REMARK    4  A    between atoms: C8_11  and  N3_12 
REMARK    5  A    between atoms: N3_12  and  C10_14 
REMARK    6  A    between atoms: C14_18  and  C15_19 
ROOT
HETATM    1  C3  UNL     1      24.793   0.456  53.454  1.00  0.00     0.077 A 
HETATM    2  C4  UNL     1      24.361  -0.742  53.843  1.00  0.00     0.070 A 
HETATM    3  C5  UNL     1      22.909  -0.611  53.769  1.00  0.00     0.074 A 
HETATM    4  N1  UNL     1      21.922  -1.498  54.042  1.00  0.00    -0.241 NA
HETATM    5  C6  UNL     1      20.621  -1.178  53.908  1.00  0.00     0.234 A 
HETATM    6  N2  UNL     1      20.234   0.050  53.492  1.00  0.00    -0.240 NA
HETATM    7  C7  UNL     1      21.206   0.936  53.218  1.00  0.00     0.086 A 
HETATM    8  C17 UNL     1      22.547   0.649  53.342  1.00  0.00     0.032 A 
HETATM    9  C18 UNL     1      23.658   1.330  53.139  1.00  0.00    -0.014 A 
HETATM   10  C19 UNL     1      23.710   2.730  52.675  1.00  0.00     0.052 C 
ENDROOT
BRANCH   7  11
HETATM   11  C8  UNL     1      20.785   2.103  52.822  1.00  0.00     0.123 C 
BRANCH  11  12
HETATM   12  N3  UNL     1      20.182   2.297  51.561  1.00  0.00    -0.359 N 
HETATM   13  C9  UNL     1      18.731   2.505  51.448  1.00  0.00     0.156 C 
BRANCH  12  14
HETATM   14  C10 UNL     1      20.955   2.296  50.367  1.00  0.00     0.034 A 
HETATM   15  C11 UNL     1      21.026   1.213  49.503  1.00  0.00     0.029 A 
HETATM   16  C12 UNL     1      21.776   1.212  48.348  1.00  0.00     0.003 A 
HETATM   17  C13 UNL     1      22.502   2.355  48.020  1.00  0.00     0.016 A 
HETATM   18  C14 UNL     1      22.469   3.463  48.841  1.00  0.00     0.050 A 
HETATM   19  C16 UNL     1      21.691   3.386  49.988  1.00  0.00     0.045 A 
BRANCH  18  20
HETATM   20  C15 UNL     1      23.235   4.717  48.532  1.00  0.00     0.417 C 
HETATM   21  F1  UNL     1      24.567   4.506  48.809  1.00  0.00    -0.166 F 
HETATM   22  F2  UNL     1      22.993   5.132  47.254  1.00  0.00    -0.166 F 
HETATM   23  F3  UNL     1      22.790   5.706  49.411  1.00  0.00    -0.166 F 
ENDBRANCH  18  20
ENDBRANCH  12  14
ENDBRANCH  11  12
ENDBRANCH   7  11
BRANCH   1  24
HETATM   24  O1  UNL     1      26.150   0.807  53.367  1.00  0.00    -0.351 OA
BRANCH  24  25
HETATM   25  C2  UNL     1      27.028   0.444  54.435  1.00  0.00     0.171 C 
HETATM   26  C1  UNL     1      28.388   0.080  53.883  1.00  0.00     0.034 C 
ENDBRANCH  24  25
ENDBRANCH   1  24
TORSDOF 6
ENDMDL
MODEL 8
REMARK VINA RESULT:      -7.3      4.558      7.475
REMARK  6 active torsions:
REMARK  status: ('A' for Active; 'I' for Inactive)
REMARK    1  A    between atoms: C2_2  and  O1_3 
REMARK    2  A    between atoms: O1_3  and  C3_4 
REMARK    3  A    between atoms: C7_10  and  C8_11 
REMARK    4  A    between atoms: C8_11  and  N3_12 
REMARK    5  A    between atoms: N3_12  and  C10_14 
REMARK    6  A    between atoms: C14_18  and  C15_19 
ROOT
HETATM    1  C3  UNL     1      25.929   6.978  49.564  1.00  0.00     0.077 A 
HETATM    2  C4  UNL     1      24.896   7.647  50.071  1.00  0.00     0.070 A 
HETATM    3  C5  UNL     1      23.987   6.586  50.495  1.00  0.00     0.074 A 
HETATM    4  N1  UNL     1      22.769   6.642  51.084  1.00  0.00    -0.241 NA
HETATM    5  C6  UNL     1      22.081   5.529  51.401  1.00  0.00     0.234 A 
HETATM    6  N2  UNL     1      22.575   4.296  51.147  1.00  0.00    -0.240 NA
HETATM    7  C7  UNL     1      23.783   4.230  50.564  1.00  0.00     0.086 A 
HETATM    8  C17 UNL     1      24.519   5.343  50.223  1.00  0.00     0.032 A 
HETATM    9  C18 UNL     1      25.695   5.532  49.658  1.00  0.00    -0.014 A 
HETATM   10  C19 UNL     1      26.595   4.451  49.210  1.00  0.00     0.052 C 
ENDROOT
BRANCH   7  11
HETATM   11  C8  UNL     1      24.216   3.023  50.339  1.00  0.00     0.123 C 
BRANCH  11  12
HETATM   12  N3  UNL     1      23.498   1.877  50.743  1.00  0.00    -0.359 N 
HETATM   13  C9  UNL     1      22.278   1.469  50.032  1.00  0.00     0.156 C 
BRANCH  12  14
HETATM   14  C10 UNL     1      23.930   1.088  51.844  1.00  0.00     0.034 A 
HETATM   15  C11 UNL     1      25.265   0.874  52.154  1.00  0.00     0.029 A 
HETATM   16  C12 UNL     1      25.684   0.109  53.220  1.00  0.00     0.003 A 
HETATM   17  C13 UNL     1      24.723  -0.484  54.037  1.00  0.00     0.016 A 
HETATM   18  C14 UNL     1      23.380  -0.306  53.778  1.00  0.00     0.050 A 
HETATM   19  C16 UNL     1      23.038   0.479  52.684  1.00  0.00     0.045 A 
BRANCH  18  20
HETATM   20  C15 UNL     1      22.308  -0.924  54.627  1.00  0.00     0.417 C 
HETATM   21  F1  UNL     1      21.426   0.059  55.018  1.00  0.00    -0.166 F 
HETATM   22  F2  UNL     1      21.720  -1.973  53.981  1.00  0.00    -0.166 F 
HETATM   23  F3  UNL     1      22.919  -1.405  55.788  1.00  0.00    -0.166 F 
ENDBRANCH  18  20
ENDBRANCH  12  14
ENDBRANCH  11  12
ENDBRANCH   7  11
BRANCH   1  24
HETATM   24  O1  UNL     1      27.068   7.593  49.022  1.00  0.00    -0.351 OA
BRANCH  24  25
HETATM   25  C2  UNL     1      27.166   7.740  47.604  1.00  0.00     0.171 C 
HETATM   26  C1  UNL     1      28.555   7.358  47.140  1.00  0.00     0.034 C 
ENDBRANCH  24  25
ENDBRANCH   1  24
TORSDOF 6
ENDMDL
MODEL 9
REMARK VINA RESULT:      -7.1      4.696      7.641
REMARK  6 active torsions:
REMARK  status: ('A' for Active; 'I' for Inactive)
REMARK    1  A    between atoms: C2_2  and  O1_3 
REMARK    2  A    between atoms: O1_3  and  C3_4 
REMARK    3  A    between atoms: C7_10  and  C8_11 
REMARK    4  A    between atoms: C8_11  and  N3_12 
REMARK    5  A    between atoms: N3_12  and  C10_14 
REMARK    6  A    between atoms: C14_18  and  C15_19 
ROOT
HETATM    1  C3  UNL     1      25.998   5.281  48.910  1.00  0.00     0.077 A 
HETATM    2  C4  UNL     1      27.028   4.550  49.330  1.00  0.00     0.070 A 
HETATM    3  C5  UNL     1      26.393   3.514  50.138  1.00  0.00     0.074 A 
HETATM    4  N1  UNL     1      26.923   2.475  50.829  1.00  0.00    -0.241 NA
HETATM    5  C6  UNL     1      26.152   1.617  51.522  1.00  0.00     0.234 A 
HETATM    6  N2  UNL     1      24.807   1.748  51.564  1.00  0.00    -0.240 NA
HETATM    7  C7  UNL     1      24.272   2.774  50.882  1.00  0.00     0.086 A 
HETATM    8  C17 UNL     1      25.023   3.675  50.160  1.00  0.00     0.032 A 
HETATM    9  C18 UNL     1      24.740   4.735  49.429  1.00  0.00    -0.014 A 
HETATM   10  C19 UNL     1      23.377   5.253  49.196  1.00  0.00     0.052 C 
ENDROOT
BRANCH   7  11
HETATM   11  C8  UNL     1      22.974   2.860  50.952  1.00  0.00     0.123 C 
BRANCH  11  12
HETATM   12  N3  UNL     1      22.124   1.912  50.344  1.00  0.00    -0.359 N 
HETATM   13  C9  UNL     1      22.155   1.703  48.889  1.00  0.00     0.156 C 
BRANCH  12  14
HETATM   14  C10 UNL     1      21.217   1.136  51.116  1.00  0.00     0.034 A 
HETATM   15  C11 UNL     1      19.902   0.900  50.740  1.00  0.00     0.029 A 
HETATM   16  C12 UNL     1      19.023   0.148  51.488  1.00  0.00     0.003 A 
HETATM   17  C13 UNL     1      19.469  -0.410  52.684  1.00  0.00     0.016 A 
HETATM   18  C14 UNL     1      20.765  -0.209  53.109  1.00  0.00     0.050 A 
HETATM   19  C16 UNL     1      21.591   0.561  52.299  1.00  0.00     0.045 A 
BRANCH  18  20
HETATM   20  C15 UNL     1      21.292  -0.788  54.390  1.00  0.00     0.417 C 
HETATM   21  F1  UNL     1      21.228   0.175  55.373  1.00  0.00    -0.166 F 
HETATM   22  F2  UNL     1      20.642  -1.946  54.703  1.00  0.00    -0.166 F 
HETATM   23  F3  UNL     1      22.644  -1.077  54.193  1.00  0.00    -0.166 F 
ENDBRANCH  18  20
ENDBRANCH  12  14
ENDBRANCH  11  12
ENDBRANCH   7  11
BRANCH   1  24
HETATM   24  O1  UNL     1      26.127   6.411  48.087  1.00  0.00    -0.351 OA
BRANCH  24  25
HETATM   25  C2  UNL     1      26.001   7.710  48.671  1.00  0.00     0.171 C 
HETATM   26  C1  UNL     1      25.583   8.711  47.617  1.00  0.00     0.034 C 
ENDBRANCH  24  25
ENDBRANCH   1  24
TORSDOF 6
ENDMDL
