MODEL 1
REMARK VINA RESULT:      -7.2      0.000      0.000
REMARK  6 active torsions:
REMARK  status: ('A' for Active; 'I' for Inactive)
REMARK       I    between atoms: C1_2  and  N1_3 
REMARK    1  A    between atoms: C1_2  and  C8_14 
REMARK    2  A    between atoms: N1_3  and  P1_4 
REMARK    3  A    between atoms: P1_4  and  P2_5 
REMARK    4  A    between atoms: P2_5  and  S1_6 
REMARK    5  A    between atoms: S1_6  and  C2_8 
REMARK    6  A    between atoms: C12_20  and  O3_21 
ROOT
HETATM    1  O1  UNL     1      26.359   1.597  50.684  1.00  0.00    -0.267 OA
HETATM    2  C1  UNL     1      26.413   1.929  51.894  1.00  0.00     0.259 C 
HETATM    3  N1  UNL     1      25.521   3.000  52.146  1.00  0.00    -0.329 N 
HETATM    4  H1  UNL     1      25.480   3.361  53.122  1.00  0.00     0.167 HD
ENDROOT
BRANCH   3   5
HETATM    5  P1  UNL     1      24.503   3.730  50.906  1.00  0.00     0.012 P 
HETATM    6  H2  UNL     1      25.207   4.378  49.840  1.00  0.00     0.086 HD
BRANCH   5   7
HETATM    7  P2  UNL     1      22.733   2.642  50.372  1.00  0.00     0.021 P 
HETATM    8  H3  UNL     1      22.086   3.016  49.158  1.00  0.00     0.078 HD
BRANCH   7   9
HETATM    9  S1  UNL     1      21.445   2.438  52.043  1.00  0.00     0.078 S 
HETATM   10  O2  UNL     1      19.987   2.440  51.691  1.00  0.00    -0.248 OA
BRANCH   9  11
HETATM   11  C2  UNL     1      21.880   0.994  52.922  1.00  0.00     0.036 C 
HETATM   12  C3  UNL     1      23.064   0.379  52.793  1.00  0.00     0.022 C 
HETATM   13  C4  UNL     1      23.312  -0.836  53.592  1.00  0.00     0.014 C 
HETATM   14  C5  UNL     1      22.607  -0.902  54.695  1.00  0.00    -0.014 C 
HETATM   15  C6  UNL     1      21.384  -0.504  54.733  1.00  0.00    -0.013 C 
HETATM   16  C7  UNL     1      20.948   0.366  53.870  1.00  0.00     0.034 C 
ENDBRANCH   9  11
ENDBRANCH   7   9
ENDBRANCH   5   7
ENDBRANCH   3   5
BRANCH   2  17
HETATM   17  C8  UNL     1      27.305   1.229  52.796  1.00  0.00     0.086 A 
HETATM   18  C9  UNL     1      27.518  -0.115  52.577  1.00  0.00     0.042 A 
HETATM   19  C10 UNL     1      28.353  -0.844  53.394  1.00  0.00     0.029 A 
HETATM   20 BR1  UNL     1      28.602  -2.699  53.033  1.00  0.00    -0.050 Br
HETATM   21  C11 UNL     1      29.023  -0.299  54.468  1.00  0.00     0.138 A 
HETATM   22  N2  UNL     1      28.798   1.013  54.660  1.00  0.00    -0.235 NA
HETATM   23  C12 UNL     1      27.996   1.717  53.876  1.00  0.00     0.177 A 
BRANCH  23  24
HETATM   24  O3  UNL     1      27.840   3.062  54.170  1.00  0.00    -0.344 OA
HETATM   25  H9  UNL     1      28.353   3.519  54.923  1.00  0.00     0.219 HD
ENDBRANCH  23  24
ENDBRANCH   2  17
TORSDOF 6
ENDMDL
MODEL 2
REMARK VINA RESULT:      -7.2      4.905      7.128
REMARK  6 active torsions:
REMARK  status: ('A' for Active; 'I' for Inactive)
REMARK       I    between atoms: C1_2  and  N1_3 
REMARK    1  A    between atoms: C1_2  and  C8_14 
REMARK    2  A    between atoms: N1_3  and  P1_4 
REMARK    3  A    between atoms: P1_4  and  P2_5 
REMARK    4  A    between atoms: P2_5  and  S1_6 
REMARK    5  A    between atoms: S1_6  and  C2_8 
REMARK    6  A    between atoms: C12_20  and  O3_21 
ROOT
HETATM    1  O1  UNL     1      26.868   3.249  49.825  1.00  0.00    -0.267 OA
HETATM    2  C1  UNL     1      26.044   4.195  49.774  1.00  0.00     0.259 C 
HETATM    3  N1  UNL     1      24.891   3.879  50.534  1.00  0.00    -0.329 N 
HETATM    4  H1  UNL     1      24.135   4.595  50.566  1.00  0.00     0.167 HD
ENDROOT
BRANCH   3   5
HETATM    5  P1  UNL     1      24.688   2.361  51.407  1.00  0.00     0.012 P 
HETATM    6  H2  UNL     1      24.727   1.179  50.598  1.00  0.00     0.086 HD
BRANCH   5   7
HETATM    7  P2  UNL     1      25.625   2.243  53.332  1.00  0.00     0.021 P 
HETATM    8  H3  UNL     1      25.269   3.242  54.287  1.00  0.00     0.078 HD
BRANCH   7   9
HETATM    9  S1  UNL     1      27.707   1.902  53.135  1.00  0.00     0.078 S 
HETATM   10  O2  UNL     1      28.544   2.640  54.138  1.00  0.00    -0.248 OA
BRANCH   9  11
HETATM   11  C2  UNL     1      28.010   0.184  53.204  1.00  0.00     0.036 C 
HETATM   12  C3  UNL     1      27.154  -0.736  52.738  1.00  0.00     0.022 C 
HETATM   13  C4  UNL     1      27.525  -2.159  52.854  1.00  0.00     0.014 C 
HETATM   14  C5  UNL     1      28.817  -2.371  52.907  1.00  0.00    -0.014 C 
HETATM   15  C6  UNL     1      29.599  -1.582  53.558  1.00  0.00    -0.013 C 
HETATM   16  C7  UNL     1      29.248  -0.352  53.790  1.00  0.00     0.034 C 
ENDBRANCH   9  11
ENDBRANCH   7   9
ENDBRANCH   5   7
ENDBRANCH   3   5
BRANCH   2  17
HETATM   17  C8  UNL     1      26.357   5.386  49.010  1.00  0.00     0.086 A 
HETATM   18  C9  UNL     1      25.307   6.169  48.582  1.00  0.00     0.042 A 
HETATM   19  C10 UNL     1      25.529   7.316  47.852  1.00  0.00     0.029 A 
HETATM   20 BR1  UNL     1      24.032   8.353  47.291  1.00  0.00    -0.050 Br
HETATM   21  C11 UNL     1      26.788   7.757  47.503  1.00  0.00     0.138 A 
HETATM   22  N2  UNL     1      27.794   6.974  47.932  1.00  0.00    -0.235 NA
HETATM   23  C12 UNL     1      27.584   5.872  48.635  1.00  0.00     0.177 A 
BRANCH  23  24
HETATM   24  O3  UNL     1      28.697   5.144  49.024  1.00  0.00    -0.344 OA
HETATM   25  H9  UNL     1      29.503   5.579  49.472  1.00  0.00     0.219 HD
ENDBRANCH  23  24
ENDBRANCH   2  17
TORSDOF 6
ENDMDL
MODEL 3
REMARK VINA RESULT:      -7.0      2.616      4.349
REMARK  6 active torsions:
REMARK  status: ('A' for Active; 'I' for Inactive)
REMARK       I    between atoms: C1_2  and  N1_3 
REMARK    1  A    between atoms: C1_2  and  C8_14 
REMARK    2  A    between atoms: N1_3  and  P1_4 
REMARK    3  A    between atoms: P1_4  and  P2_5 
REMARK    4  A    between atoms: P2_5  and  S1_6 
REMARK    5  A    between atoms: S1_6  and  C2_8 
REMARK    6  A    between atoms: C12_20  and  O3_21 
ROOT
HETATM    1  O1  UNL     1      25.081   2.375  53.697  1.00  0.00    -0.267 OA
HETATM    2  C1  UNL     1      25.480   1.264  53.268  1.00  0.00     0.259 C 
HETATM    3  N1  UNL     1      24.410   0.563  52.661  1.00  0.00    -0.329 N 
HETATM    4  H1  UNL     1      24.625  -0.377  52.267  1.00  0.00     0.167 HD
ENDROOT
BRANCH   3   5
HETATM    5  P1  UNL     1      22.770   1.199  52.549  1.00  0.00     0.012 P 
HETATM    6  H2  UNL     1      22.178   1.589  53.794  1.00  0.00     0.086 HD
BRANCH   5   7
HETATM    7  P2  UNL     1      22.350   2.439  50.850  1.00  0.00     0.021 P 
HETATM    8  H3  UNL     1      22.593   1.875  49.562  1.00  0.00     0.078 HD
BRANCH   7   9
HETATM    9  S1  UNL     1      23.130   4.388  51.131  1.00  0.00     0.078 S 
HETATM   10  O2  UNL     1      23.137   4.841  52.562  1.00  0.00    -0.248 OA
BRANCH   9  11
HETATM   11  C2  UNL     1      24.731   4.465  50.438  1.00  0.00     0.036 C 
HETATM   12  C3  UNL     1      25.510   3.389  50.259  1.00  0.00     0.022 C 
HETATM   13  C4  UNL     1      26.845   3.585  49.662  1.00  0.00     0.014 C 
HETATM   14  C5  UNL     1      26.942   4.651  48.906  1.00  0.00    -0.014 C 
HETATM   15  C6  UNL     1      26.355   5.752  49.224  1.00  0.00    -0.013 C 
HETATM   16  C7  UNL     1      25.318   5.743  50.008  1.00  0.00     0.034 C 
ENDBRANCH   9  11
ENDBRANCH   7   9
ENDBRANCH   5   7
ENDBRANCH   3   5
BRANCH   2  17
HETATM   17  C8  UNL     1      26.867   0.881  53.436  1.00  0.00     0.086 A 
HETATM   18  C9  UNL     1      27.198  -0.442  53.235  1.00  0.00     0.042 A 
HETATM   19  C10 UNL     1      28.497  -0.878  53.377  1.00  0.00     0.029 A 
HETATM   20 BR1  UNL     1      28.884  -2.721  53.084  1.00  0.00    -0.050 Br
HETATM   21  C11 UNL     1      29.540  -0.045  53.722  1.00  0.00     0.138 A 
HETATM   22  N2  UNL     1      29.190   1.239  53.913  1.00  0.00    -0.235 NA
HETATM   23  C12 UNL     1      27.943   1.662  53.777  1.00  0.00     0.177 A 
BRANCH  23  24
HETATM   24  O3  UNL     1      27.700   3.008  53.998  1.00  0.00    -0.344 OA
HETATM   25  H9  UNL     1      28.337   3.596  54.535  1.00  0.00     0.219 HD
ENDBRANCH  23  24
ENDBRANCH   2  17
TORSDOF 6
ENDMDL
MODEL 4
REMARK VINA RESULT:      -6.9      4.774      6.137
REMARK  6 active torsions:
REMARK  status: ('A' for Active; 'I' for Inactive)
REMARK       I    between atoms: C1_2  and  N1_3 
REMARK    1  A    between atoms: C1_2  and  C8_14 
REMARK    2  A    between atoms: N1_3  and  P1_4 
REMARK    3  A    between atoms: P1_4  and  P2_5 
REMARK    4  A    between atoms: P2_5  and  S1_6 
REMARK    5  A    between atoms: S1_6  and  C2_8 
REMARK    6  A    between atoms: C12_20  and  O3_21 
ROOT
HETATM    1  O1  UNL     1      25.277   3.090  49.343  1.00  0.00    -0.267 OA
HETATM    2  C1  UNL     1      26.134   3.915  49.745  1.00  0.00     0.259 C 
HETATM    3  N1  UNL     1      26.844   3.381  50.848  1.00  0.00    -0.329 N 
HETATM    4  H1  UNL     1      27.586   3.981  51.268  1.00  0.00     0.167 HD
ENDROOT
BRANCH   3   5
HETATM    5  P1  UNL     1      26.533   1.783  51.524  1.00  0.00     0.012 P 
HETATM    6  H2  UNL     1      27.411   0.745  51.070  1.00  0.00     0.086 HD
BRANCH   5   7
HETATM    7  P2  UNL     1      25.956   1.725  53.588  1.00  0.00     0.021 P 
HETATM    8  H3  UNL     1      26.816   2.379  54.519  1.00  0.00     0.078 HD
BRANCH   7   9
HETATM    9  S1  UNL     1      25.361  -0.231  54.147  1.00  0.00     0.078 S 
HETATM   10  O2  UNL     1      25.865  -0.660  55.493  1.00  0.00    -0.248 OA
BRANCH   9  11
HETATM   11  C2  UNL     1      23.621  -0.342  54.060  1.00  0.00     0.036 C 
HETATM   12  C3  UNL     1      22.894  -1.167  54.826  1.00  0.00     0.022 C 
HETATM   13  C4  UNL     1      21.428  -1.168  54.658  1.00  0.00     0.014 C 
HETATM   14  C5  UNL     1      20.944  -0.046  54.185  1.00  0.00    -0.014 C 
HETATM   15  C6  UNL     1      21.565   0.620  53.276  1.00  0.00    -0.013 C 
HETATM   16  C7  UNL     1      22.848   0.482  53.118  1.00  0.00     0.034 C 
ENDBRANCH   9  11
ENDBRANCH   7   9
ENDBRANCH   5   7
ENDBRANCH   3   5
BRANCH   2  17
HETATM   17  C8  UNL     1      26.271   5.196  49.083  1.00  0.00     0.086 A 
HETATM   18  C9  UNL     1      25.119   5.875  48.749  1.00  0.00     0.042 A 
HETATM   19  C10 UNL     1      25.173   7.098  48.118  1.00  0.00     0.029 A 
HETATM   20 BR1  UNL     1      23.541   7.981  47.684  1.00  0.00    -0.050 Br
HETATM   21  C11 UNL     1      26.355   7.722  47.780  1.00  0.00     0.138 A 
HETATM   22  N2  UNL     1      27.463   7.039  48.116  1.00  0.00    -0.235 NA
HETATM   23  C12 UNL     1      27.415   5.863  48.724  1.00  0.00     0.177 A 
BRANCH  23  24
HETATM   24  O3  UNL     1      28.622   5.252  49.023  1.00  0.00    -0.344 OA
HETATM   25  H9  UNL     1      28.761   4.246  48.930  1.00  0.00     0.219 HD
ENDBRANCH  23  24
ENDBRANCH   2  17
TORSDOF 6
ENDMDL
MODEL 5
REMARK VINA RESULT:      -6.9      3.681      4.623
REMARK  6 active torsions:
REMARK  status: ('A' for Active; 'I' for Inactive)
REMARK       I    between atoms: C1_2  and  N1_3 
REMARK    1  A    between atoms: C1_2  and  C8_14 
REMARK    2  A    between atoms: N1_3  and  P1_4 
REMARK    3  A    between atoms: P1_4  and  P2_5 
REMARK    4  A    between atoms: P2_5  and  S1_6 
REMARK    5  A    between atoms: S1_6  and  C2_8 
REMARK    6  A    between atoms: C12_20  and  O3_21 
ROOT
HETATM    1  O1  UNL     1      22.377  -1.281  55.172  1.00  0.00    -0.267 OA
HETATM    2  C1  UNL     1      22.858  -0.666  54.189  1.00  0.00     0.259 C 
HETATM    3  N1  UNL     1      21.832  -0.339  53.269  1.00  0.00    -0.329 N 
HETATM    4  H1  UNL     1      22.116   0.177  52.409  1.00  0.00     0.167 HD
ENDROOT
BRANCH   3   5
HETATM    5  P1  UNL     1      20.138  -0.757  53.512  1.00  0.00     0.012 P 
HETATM    6  H2  UNL     1      19.718  -0.842  54.879  1.00  0.00     0.086 HD
BRANCH   5   7
HETATM    7  P2  UNL     1      18.743   0.099  52.126  1.00  0.00     0.021 P 
HETATM    8  H3  UNL     1      18.298  -0.735  51.057  1.00  0.00     0.078 HD
BRANCH   7   9
HETATM    9  S1  UNL     1      19.358   2.041  51.544  1.00  0.00     0.078 S 
HETATM   10  O2  UNL     1      19.706   2.940  52.694  1.00  0.00    -0.248 OA
BRANCH   9  11
HETATM   11  C2  UNL     1      20.693   1.903  50.426  1.00  0.00     0.036 C 
HETATM   12  C3  UNL     1      20.559   1.461  49.168  1.00  0.00     0.022 C 
HETATM   13  C4  UNL     1      21.765   1.390  48.321  1.00  0.00     0.014 C 
HETATM   14  C5  UNL     1      22.714   2.223  48.671  1.00  0.00    -0.014 C 
HETATM   15  C6  UNL     1      22.970   2.462  49.909  1.00  0.00    -0.013 C 
HETATM   16  C7  UNL     1      22.061   2.273  50.819  1.00  0.00     0.034 C 
ENDBRANCH   9  11
ENDBRANCH   7   9
ENDBRANCH   5   7
ENDBRANCH   3   5
BRANCH   2  17
HETATM   17  C8  UNL     1      24.280  -0.395  54.132  1.00  0.00     0.086 A 
HETATM   18  C9  UNL     1      24.742   0.407  53.110  1.00  0.00     0.042 A 
HETATM   19  C10 UNL     1      26.081   0.708  52.994  1.00  0.00     0.029 A 
HETATM   20 BR1  UNL     1      26.650   1.821  51.556  1.00  0.00    -0.050 Br
HETATM   21  C11 UNL     1      27.038   0.242  53.870  1.00  0.00     0.138 A 
HETATM   22  N2  UNL     1      26.562  -0.537  54.856  1.00  0.00    -0.235 NA
HETATM   23  C12 UNL     1      25.275  -0.828  54.972  1.00  0.00     0.177 A 
BRANCH  23  24
HETATM   24  O3  UNL     1      24.899  -1.641  56.029  1.00  0.00    -0.344 OA
HETATM   25  H9  UNL     1      23.985  -2.092  56.071  1.00  0.00     0.219 HD
ENDBRANCH  23  24
ENDBRANCH   2  17
TORSDOF 6
ENDMDL
MODEL 6
REMARK VINA RESULT:      -6.9      4.493      6.672
REMARK  6 active torsions:
REMARK  status: ('A' for Active; 'I' for Inactive)
REMARK       I    between atoms: C1_2  and  N1_3 
REMARK    1  A    between atoms: C1_2  and  C8_14 
REMARK    2  A    between atoms: N1_3  and  P1_4 
REMARK    3  A    between atoms: P1_4  and  P2_5 
REMARK    4  A    between atoms: P2_5  and  S1_6 
REMARK    5  A    between atoms: S1_6  and  C2_8 
REMARK    6  A    between atoms: C12_20  and  O3_21 
ROOT
HETATM    1  O1  UNL     1      24.500   3.929  49.452  1.00  0.00    -0.267 OA
HETATM    2  C1  UNL     1      24.801   4.728  50.373  1.00  0.00     0.259 C 
HETATM    3  N1  UNL     1      24.346   4.229  51.618  1.00  0.00    -0.329 N 
HETATM    4  H1  UNL     1      24.541   4.812  52.460  1.00  0.00     0.167 HD
ENDROOT
BRANCH   3   5
HETATM    5  P1  UNL     1      23.485   2.702  51.799  1.00  0.00     0.012 P 
HETATM    6  H2  UNL     1      22.410   2.492  50.874  1.00  0.00     0.086 HD
BRANCH   5   7
HETATM    7  P2  UNL     1      24.683   0.992  52.291  1.00  0.00     0.021 P 
HETATM    8  H3  UNL     1      24.065  -0.026  53.076  1.00  0.00     0.078 HD
BRANCH   7   9
HETATM    9  S1  UNL     1      26.604   1.588  52.956  1.00  0.00     0.078 S 
HETATM   10  O2  UNL     1      26.584   2.452  54.182  1.00  0.00    -0.248 OA
BRANCH   9  11
HETATM   11  C2  UNL     1      27.585   0.164  53.205  1.00  0.00     0.036 C 
HETATM   12  C3  UNL     1      27.240  -1.056  52.772  1.00  0.00     0.022 C 
HETATM   13  C4  UNL     1      28.155  -2.180  53.044  1.00  0.00     0.014 C 
HETATM   14  C5  UNL     1      29.406  -1.823  53.202  1.00  0.00    -0.014 C 
HETATM   15  C6  UNL     1      29.721  -0.742  53.826  1.00  0.00    -0.013 C 
HETATM   16  C7  UNL     1      28.870   0.236  53.918  1.00  0.00     0.034 C 
ENDBRANCH   9  11
ENDBRANCH   7   9
ENDBRANCH   5   7
ENDBRANCH   3   5
BRANCH   2  17
HETATM   17  C8  UNL     1      25.515   5.950  50.065  1.00  0.00     0.086 A 
HETATM   18  C9  UNL     1      26.553   5.879  49.162  1.00  0.00     0.042 A 
HETATM   19  C10 UNL     1      27.276   7.001  48.821  1.00  0.00     0.029 A 
HETATM   20 BR1  UNL     1      28.699   6.830  47.566  1.00  0.00    -0.050 Br
HETATM   21  C11 UNL     1      27.022   8.250  49.344  1.00  0.00     0.138 A 
HETATM   22  N2  UNL     1      26.004   8.293  50.223  1.00  0.00    -0.235 NA
HETATM   23  C12 UNL     1      25.307   7.216  50.552  1.00  0.00     0.177 A 
BRANCH  23  24
HETATM   24  O3  UNL     1      24.280   7.379  51.468  1.00  0.00    -0.344 OA
HETATM   25  H9  UNL     1      24.397   7.914  52.329  1.00  0.00     0.219 HD
ENDBRANCH  23  24
ENDBRANCH   2  17
TORSDOF 6
ENDMDL
MODEL 7
REMARK VINA RESULT:      -6.8      3.402      5.293
REMARK  6 active torsions:
REMARK  status: ('A' for Active; 'I' for Inactive)
REMARK       I    between atoms: C1_2  and  N1_3 
REMARK    1  A    between atoms: C1_2  and  C8_14 
REMARK    2  A    between atoms: N1_3  and  P1_4 
REMARK    3  A    between atoms: P1_4  and  P2_5 
REMARK    4  A    between atoms: P2_5  and  S1_6 
REMARK    5  A    between atoms: S1_6  and  C2_8 
REMARK    6  A    between atoms: C12_20  and  O3_21 
ROOT
HETATM    1  O1  UNL     1      22.542   1.450  52.899  1.00  0.00    -0.267 OA
HETATM    2  C1  UNL     1      23.667   1.258  52.375  1.00  0.00     0.259 C 
HETATM    3  N1  UNL     1      23.614   1.540  50.988  1.00  0.00    -0.329 N 
HETATM    4  H1  UNL     1      24.495   1.415  50.446  1.00  0.00     0.167 HD
ENDROOT
BRANCH   3   5
HETATM    5  P1  UNL     1      22.154   2.079  50.161  1.00  0.00     0.012 P 
HETATM    6  H2  UNL     1      20.958   1.367  50.502  1.00  0.00     0.086 HD
BRANCH   5   7
HETATM    7  P2  UNL     1      21.963   4.194  49.859  1.00  0.00     0.021 P 
HETATM    8  H3  UNL     1      21.702   4.636  48.528  1.00  0.00     0.078 HD
BRANCH   7   9
HETATM    9  S1  UNL     1      23.514   5.238  50.857  1.00  0.00     0.078 S 
HETATM   10  O2  UNL     1      23.788   4.741  52.245  1.00  0.00    -0.248 OA
BRANCH   9  11
HETATM   11  C2  UNL     1      24.956   5.188  49.873  1.00  0.00     0.036 C 
HETATM   12  C3  UNL     1      25.471   6.265  49.263  1.00  0.00     0.022 C 
HETATM   13  C4  UNL     1      26.696   6.093  48.458  1.00  0.00     0.014 C 
HETATM   14  C5  UNL     1      27.437   5.076  48.824  1.00  0.00    -0.014 C 
HETATM   15  C6  UNL     1      26.909   3.964  49.199  1.00  0.00    -0.013 C 
HETATM   16  C7  UNL     1      25.694   3.934  49.660  1.00  0.00     0.034 C 
ENDBRANCH   9  11
ENDBRANCH   7   9
ENDBRANCH   5   7
ENDBRANCH   3   5
BRANCH   2  17
HETATM   17  C8  UNL     1      24.778   0.812  53.192  1.00  0.00     0.086 A 
HETATM   18  C9  UNL     1      25.956   1.524  53.120  1.00  0.00     0.042 A 
HETATM   19  C10 UNL     1      27.053   1.158  53.868  1.00  0.00     0.029 A 
HETATM   20 BR1  UNL     1      28.650   2.187  53.719  1.00  0.00    -0.050 Br
HETATM   21  C11 UNL     1      27.057   0.079  54.725  1.00  0.00     0.138 A 
HETATM   22  N2  UNL     1      25.896  -0.599  54.776  1.00  0.00    -0.235 NA
HETATM   23  C12 UNL     1      24.839  -0.249  54.059  1.00  0.00     0.177 A 
BRANCH  23  24
HETATM   24  O3  UNL     1      23.696  -1.021  54.193  1.00  0.00    -0.344 OA
HETATM   25  H9  UNL     1      23.210  -1.419  53.390  1.00  0.00     0.219 HD
ENDBRANCH  23  24
ENDBRANCH   2  17
TORSDOF 6
ENDMDL
MODEL 8
REMARK VINA RESULT:      -6.8      3.876      4.999
REMARK  6 active torsions:
REMARK  status: ('A' for Active; 'I' for Inactive)
REMARK       I    between atoms: C1_2  and  N1_3 
REMARK    1  A    between atoms: C1_2  and  C8_14 
REMARK    2  A    between atoms: N1_3  and  P1_4 
REMARK    3  A    between atoms: P1_4  and  P2_5 
REMARK    4  A    between atoms: P2_5  and  S1_6 
REMARK    5  A    between atoms: S1_6  and  C2_8 
REMARK    6  A    between atoms: C12_20  and  O3_21 
ROOT
HETATM    1  O1  UNL     1      21.628   0.030  51.385  1.00  0.00    -0.267 OA
HETATM    2  C1  UNL     1      21.394   0.155  52.612  1.00  0.00     0.259 C 
HETATM    3  N1  UNL     1      20.165   0.833  52.807  1.00  0.00    -0.329 N 
HETATM    4  H1  UNL     1      19.866   0.994  53.792  1.00  0.00     0.167 HD
ENDROOT
BRANCH   3   5
HETATM    5  P1  UNL     1      19.147   1.401  51.485  1.00  0.00     0.012 P 
HETATM    6  H2  UNL     1      17.962   0.632  51.251  1.00  0.00     0.086 HD
BRANCH   5   7
HETATM    7  P2  UNL     1      18.975   3.528  51.271  1.00  0.00     0.021 P 
HETATM    8  H3  UNL     1      17.702   4.038  50.876  1.00  0.00     0.078 HD
BRANCH   7   9
HETATM    9  S1  UNL     1      20.621   4.310  50.190  1.00  0.00     0.078 S 
HETATM   10  O2  UNL     1      20.679   5.809  50.166  1.00  0.00    -0.248 OA
BRANCH   9  11
HETATM   11  C2  UNL     1      22.097   3.633  50.834  1.00  0.00     0.036 C 
HETATM   12  C3  UNL     1      22.997   2.980  50.087  1.00  0.00     0.022 C 
HETATM   13  C4  UNL     1      24.205   2.454  50.750  1.00  0.00     0.014 C 
HETATM   14  C5  UNL     1      24.539   3.097  51.842  1.00  0.00    -0.014 C 
HETATM   15  C6  UNL     1      23.647   3.525  52.665  1.00  0.00    -0.013 C 
HETATM   16  C7  UNL     1      22.432   3.749  52.262  1.00  0.00     0.034 C 
ENDBRANCH   9  11
ENDBRANCH   7   9
ENDBRANCH   5   7
ENDBRANCH   3   5
BRANCH   2  17
HETATM   17  C8  UNL     1      22.332  -0.368  53.584  1.00  0.00     0.086 A 
HETATM   18  C9  UNL     1      23.670  -0.099  53.396  1.00  0.00     0.042 A 
HETATM   19  C10 UNL     1      24.619  -0.564  54.279  1.00  0.00     0.029 A 
HETATM   20 BR1  UNL     1      26.452  -0.155  53.958  1.00  0.00    -0.050 Br
HETATM   21  C11 UNL     1      24.310  -1.315  55.393  1.00  0.00     0.138 A 
HETATM   22  N2  UNL     1      22.998  -1.564  55.553  1.00  0.00    -0.235 NA
HETATM   23  C12 UNL     1      22.083  -1.118  54.706  1.00  0.00     0.177 A 
BRANCH  23  24
HETATM   24  O3  UNL     1      20.761  -1.435  54.972  1.00  0.00    -0.344 OA
HETATM   25  H9  UNL     1      20.290  -1.137  55.826  1.00  0.00     0.219 HD
ENDBRANCH  23  24
ENDBRANCH   2  17
TORSDOF 6
ENDMDL
MODEL 9
REMARK VINA RESULT:      -6.7      2.033      2.384
REMARK  6 active torsions:
REMARK  status: ('A' for Active; 'I' for Inactive)
REMARK       I    between atoms: C1_2  and  N1_3 
REMARK    1  A    between atoms: C1_2  and  C8_14 
REMARK    2  A    between atoms: N1_3  and  P1_4 
REMARK    3  A    between atoms: P1_4  and  P2_5 
REMARK    4  A    between atoms: P2_5  and  S1_6 
REMARK    5  A    between atoms: S1_6  and  C2_8 
REMARK    6  A    between atoms: C12_20  and  O3_21 
ROOT
HETATM    1  O1  UNL     1      27.141   2.872  50.420  1.00  0.00    -0.267 OA
HETATM    2  C1  UNL     1      26.429   2.883  51.455  1.00  0.00     0.259 C 
HETATM    3  N1  UNL     1      25.328   3.757  51.280  1.00  0.00    -0.329 N 
HETATM    4  H1  UNL     1      24.665   3.846  52.078  1.00  0.00     0.167 HD
ENDROOT
BRANCH   3   5
HETATM    5  P1  UNL     1      25.042   4.677  49.804  1.00  0.00     0.012 P 
HETATM    6  H2  UNL     1      26.195   4.887  48.980  1.00  0.00     0.086 HD
BRANCH   5   7
HETATM    7  P2  UNL     1      23.190   4.292  48.793  1.00  0.00     0.021 P 
HETATM    8  H3  UNL     1      22.894   5.101  47.656  1.00  0.00     0.078 HD
BRANCH   7   9
HETATM    9  S1  UNL     1      21.603   4.092  50.182  1.00  0.00     0.078 S 
HETATM   10  O2  UNL     1      20.239   4.229  49.573  1.00  0.00    -0.248 OA
BRANCH   9  11
HETATM   11  C2  UNL     1      21.770   2.567  51.018  1.00  0.00     0.036 C 
HETATM   12  C3  UNL     1      22.102   2.468  52.313  1.00  0.00     0.022 C 
HETATM   13  C4  UNL     1      22.211   1.121  52.905  1.00  0.00     0.014 C 
HETATM   14  C5  UNL     1      21.491   0.210  52.296  1.00  0.00    -0.014 C 
HETATM   15  C6  UNL     1      21.370   0.200  51.015  1.00  0.00    -0.013 C 
HETATM   16  C7  UNL     1      21.549   1.288  50.327  1.00  0.00     0.034 C 
ENDBRANCH   9  11
ENDBRANCH   7   9
ENDBRANCH   5   7
ENDBRANCH   3   5
BRANCH   2  17
HETATM   17  C8  UNL     1      26.797   2.066  52.594  1.00  0.00     0.086 A 
HETATM   18  C9  UNL     1      25.880   1.142  53.046  1.00  0.00     0.042 A 
HETATM   19  C10 UNL     1      26.162   0.332  54.123  1.00  0.00     0.029 A 
HETATM   20 BR1  UNL     1      24.847  -0.924  54.696  1.00  0.00    -0.050 Br
HETATM   21  C11 UNL     1      27.353   0.382  54.815  1.00  0.00     0.138 A 
HETATM   22  N2  UNL     1      28.229   1.291  54.354  1.00  0.00    -0.235 NA
HETATM   23  C12 UNL     1      27.962   2.072  53.318  1.00  0.00     0.177 A 
BRANCH  23  24
HETATM   24  O3  UNL     1      28.942   2.972  52.931  1.00  0.00    -0.344 OA
HETATM   25  H9  UNL     1      28.823   3.598  52.134  1.00  0.00     0.219 HD
ENDBRANCH  23  24
ENDBRANCH   2  17
TORSDOF 6
ENDMDL
