MODEL 1
REMARK VINA RESULT:      -7.3      0.000      0.000
REMARK  10 active torsions:
REMARK  status: ('A' for Active; 'I' for Inactive)
REMARK    1  A    between atoms: C7_7  and  N1_8 
REMARK    2  A    between atoms: N1_8  and  C8_9 
REMARK    3  A    between atoms: C12_15  and  O1_16 
REMARK    4  A    between atoms: O1_16  and  C13_17 
REMARK    5  A    between atoms: C13_17  and  C14_18 
REMARK    6  A    between atoms: C14_18  and  O2_19 
REMARK    7  A    between atoms: C16_21  and  O3_22 
REMARK    8  A    between atoms: O3_22  and  C17_23 
REMARK    9  A    between atoms: C17_23  and  C18_24 
REMARK   10  A    between atoms: C18_24  and  O4_25 
ROOT
HETATM    1  C1  UNL     1      30.455  -1.674  53.877  1.00  0.00     0.018 C 
HETATM    2  C2  UNL     1      29.586  -0.879  53.698  1.00  0.00    -0.078 C 
HETATM    3  C3  UNL     1      28.540   0.115  53.484  1.00  0.00     0.019 A 
HETATM    4  C4  UNL     1      28.778   1.476  53.656  1.00  0.00     0.021 A 
HETATM    5  C5  UNL     1      27.701   2.283  53.408  1.00  0.00     0.004 A 
HETATM    6  C6  UNL     1      26.493   1.762  53.022  1.00  0.00     0.029 A 
HETATM    7  C7  UNL     1      26.243   0.418  52.850  1.00  0.00     0.035 A 
HETATM    8  C21 UNL     1      27.320  -0.393  53.096  1.00  0.00     0.050 A 
ENDROOT
BRANCH   7   9
HETATM    9  N1  UNL     1      24.927   0.101  52.435  1.00  0.00    -0.340 N 
HETATM   10  H5  UNL     1      24.627   0.190  51.451  1.00  0.00     0.167 HD
BRANCH   9  11
HETATM   11  C8  UNL     1      24.047  -0.347  53.426  1.00  0.00     0.141 C 
HETATM   12  N2  UNL     1      24.289  -0.938  54.580  1.00  0.00    -0.224 NA
HETATM   13  C9  UNL     1      23.185  -1.306  55.384  1.00  0.00     0.230 C 
HETATM   14  N3  UNL     1      21.879  -1.174  55.155  1.00  0.00    -0.269 NA
HETATM   15  C10 UNL     1      21.488  -0.593  53.902  1.00  0.00     0.174 A 
HETATM   16  C11 UNL     1      20.326   0.216  53.763  1.00  0.00     0.045 A 
HETATM   17  C20 UNL     1      22.643   0.172  53.390  1.00  0.00     0.052 A 
HETATM   18  C12 UNL     1      20.702   1.322  53.158  1.00  0.00     0.101 A 
HETATM   19  C16 UNL     1      22.161   1.340  52.891  1.00  0.00     0.114 A 
BRANCH  18  20
HETATM   20  O1  UNL     1      19.901   2.421  52.788  1.00  0.00    -0.346 OA
BRANCH  20  21
HETATM   21  C13 UNL     1      19.478   2.542  51.423  1.00  0.00     0.201 C 
BRANCH  21  22
HETATM   22  C14 UNL     1      17.969   2.733  51.489  1.00  0.00     0.193 C 
BRANCH  22  23
HETATM   23  O2  UNL     1      17.571   3.939  51.980  1.00  0.00    -0.394 OA
HETATM   24  C15 UNL     1      16.223   4.160  52.079  1.00  0.00     0.201 C 
ENDBRANCH  22  23
ENDBRANCH  21  22
ENDBRANCH  20  21
ENDBRANCH  18  20
BRANCH  19  25
HETATM   25  O3  UNL     1      22.950   2.307  52.260  1.00  0.00    -0.345 OA
BRANCH  25  26
HETATM   26  C17 UNL     1      23.305   3.552  52.759  1.00  0.00     0.202 C 
BRANCH  26  27
HETATM   27  C18 UNL     1      23.249   4.646  51.723  1.00  0.00     0.193 C 
BRANCH  27  28
HETATM   28  O4  UNL     1      22.181   5.464  51.908  1.00  0.00    -0.394 OA
HETATM   29  C19 UNL     1      21.309   5.580  50.867  1.00  0.00     0.201 C 
ENDBRANCH  27  28
ENDBRANCH  26  27
ENDBRANCH  25  26
ENDBRANCH  19  25
ENDBRANCH   9  11
ENDBRANCH   7   9
TORSDOF 10
ENDMDL
MODEL 2
REMARK VINA RESULT:      -7.1      2.789      5.450
REMARK  10 active torsions:
REMARK  status: ('A' for Active; 'I' for Inactive)
REMARK    1  A    between atoms: C7_7  and  N1_8 
REMARK    2  A    between atoms: N1_8  and  C8_9 
REMARK    3  A    between atoms: C12_15  and  O1_16 
REMARK    4  A    between atoms: O1_16  and  C13_17 
REMARK    5  A    between atoms: C13_17  and  C14_18 
REMARK    6  A    between atoms: C14_18  and  O2_19 
REMARK    7  A    between atoms: C16_21  and  O3_22 
REMARK    8  A    between atoms: O3_22  and  C17_23 
REMARK    9  A    between atoms: C17_23  and  C18_24 
REMARK   10  A    between atoms: C18_24  and  O4_25 
ROOT
HETATM    1  C1  UNL     1      23.921   7.933  50.587  1.00  0.00     0.018 C 
HETATM    2  C2  UNL     1      24.709   7.130  50.195  1.00  0.00    -0.078 C 
HETATM    3  C3  UNL     1      25.688   6.166  49.704  1.00  0.00     0.019 A 
HETATM    4  C4  UNL     1      26.756   6.555  48.899  1.00  0.00     0.021 A 
HETATM    5  C5  UNL     1      27.594   5.539  48.527  1.00  0.00     0.004 A 
HETATM    6  C6  UNL     1      27.372   4.247  48.931  1.00  0.00     0.029 A 
HETATM    7  C7  UNL     1      26.319   3.849  49.726  1.00  0.00     0.035 A 
HETATM    8  C21 UNL     1      25.479   4.864  50.101  1.00  0.00     0.050 A 
ENDROOT
BRANCH   7   9
HETATM    9  N1  UNL     1      26.288   2.467  50.032  1.00  0.00    -0.340 N 
HETATM   10  H5  UNL     1      25.976   1.761  49.346  1.00  0.00     0.167 HD
BRANCH   9  11
HETATM   11  C8  UNL     1      26.710   2.098  51.314  1.00  0.00     0.141 C 
HETATM   12  N2  UNL     1      27.601   2.652  52.113  1.00  0.00    -0.224 NA
HETATM   13  C9  UNL     1      27.843   2.041  53.366  1.00  0.00     0.230 C 
HETATM   14  N3  UNL     1      27.318   0.936  53.893  1.00  0.00    -0.269 NA
HETATM   15  C10 UNL     1      26.373   0.211  53.092  1.00  0.00     0.174 A 
HETATM   16  C11 UNL     1      25.275  -0.497  53.657  1.00  0.00     0.045 A 
HETATM   17  C20 UNL     1      25.843   1.146  52.080  1.00  0.00     0.052 A 
HETATM   18  C12 UNL     1      24.198  -0.107  53.010  1.00  0.00     0.101 A 
HETATM   19  C16 UNL     1      24.505   0.928  51.993  1.00  0.00     0.114 A 
BRANCH  18  20
HETATM   20  O1  UNL     1      22.871  -0.540  53.201  1.00  0.00    -0.346 OA
BRANCH  20  21
HETATM   21  C13 UNL     1      22.243  -0.308  54.470  1.00  0.00     0.201 C 
BRANCH  21  22
HETATM   22  C14 UNL     1      20.812   0.094  54.139  1.00  0.00     0.193 C 
BRANCH  22  23
HETATM   23  O2  UNL     1      20.211  -0.678  53.193  1.00  0.00    -0.394 OA
HETATM   24  C15 UNL     1      18.841  -0.701  53.181  1.00  0.00     0.201 C 
ENDBRANCH  22  23
ENDBRANCH  21  22
ENDBRANCH  20  21
ENDBRANCH  18  20
BRANCH  19  25
HETATM   25  O3  UNL     1      23.661   1.584  51.092  1.00  0.00    -0.345 OA
BRANCH  25  26
HETATM   26  C17 UNL     1      22.884   2.706  51.341  1.00  0.00     0.202 C 
BRANCH  26  27
HETATM   27  C18 UNL     1      23.220   3.387  52.644  1.00  0.00     0.193 C 
BRANCH  27  28
HETATM   28  O4  UNL     1      22.999   4.726  52.586  1.00  0.00    -0.394 OA
HETATM   29  C19 UNL     1      21.915   5.139  51.871  1.00  0.00     0.201 C 
ENDBRANCH  27  28
ENDBRANCH  26  27
ENDBRANCH  25  26
ENDBRANCH  19  25
ENDBRANCH   9  11
ENDBRANCH   7   9
TORSDOF 10
ENDMDL
MODEL 3
REMARK VINA RESULT:      -7.0      3.072      4.952
REMARK  10 active torsions:
REMARK  status: ('A' for Active; 'I' for Inactive)
REMARK    1  A    between atoms: C7_7  and  N1_8 
REMARK    2  A    between atoms: N1_8  and  C8_9 
REMARK    3  A    between atoms: C12_15  and  O1_16 
REMARK    4  A    between atoms: O1_16  and  C13_17 
REMARK    5  A    between atoms: C13_17  and  C14_18 
REMARK    6  A    between atoms: C14_18  and  O2_19 
REMARK    7  A    between atoms: C16_21  and  O3_22 
REMARK    8  A    between atoms: O3_22  and  C17_23 
REMARK    9  A    between atoms: C17_23  and  C18_24 
REMARK   10  A    between atoms: C18_24  and  O4_25 
ROOT
HETATM    1  C1  UNL     1      30.059   5.605  47.834  1.00  0.00     0.018 C 
HETATM    2  C2  UNL     1      28.926   5.507  48.183  1.00  0.00    -0.078 C 
HETATM    3  C3  UNL     1      27.531   5.411  48.601  1.00  0.00     0.019 A 
HETATM    4  C4  UNL     1      26.643   6.471  48.434  1.00  0.00     0.021 A 
HETATM    5  C5  UNL     1      25.368   6.224  48.865  1.00  0.00     0.004 A 
HETATM    6  C6  UNL     1      25.022   5.017  49.417  1.00  0.00     0.029 A 
HETATM    7  C7  UNL     1      25.890   3.962  49.590  1.00  0.00     0.035 A 
HETATM    8  C21 UNL     1      27.168   4.205  49.157  1.00  0.00     0.050 A 
ENDROOT
BRANCH   7   9
HETATM    9  N1  UNL     1      25.319   2.803  50.169  1.00  0.00    -0.340 N 
HETATM   10  H5  UNL     1      24.421   2.413  49.840  1.00  0.00     0.167 HD
BRANCH   9  11
HETATM   11  C8  UNL     1      26.034   2.204  51.211  1.00  0.00     0.141 C 
HETATM   12  N2  UNL     1      27.196   2.525  51.746  1.00  0.00    -0.224 NA
HETATM   13  C9  UNL     1      27.695   1.713  52.791  1.00  0.00     0.230 C 
HETATM   14  N3  UNL     1      27.181   0.613  53.339  1.00  0.00    -0.269 NA
HETATM   15  C10 UNL     1      25.940   0.130  52.802  1.00  0.00     0.174 A 
HETATM   16  C11 UNL     1      24.959  -0.517  53.604  1.00  0.00     0.045 A 
HETATM   17  C20 UNL     1      25.291   1.260  52.107  1.00  0.00     0.052 A 
HETATM   18  C12 UNL     1      23.815   0.089  53.368  1.00  0.00     0.101 A 
HETATM   19  C16 UNL     1      23.970   1.217  52.418  1.00  0.00     0.114 A 
BRANCH  18  20
HETATM   20  O1  UNL     1      22.552  -0.206  53.918  1.00  0.00    -0.346 OA
BRANCH  20  21
HETATM   21  C13 UNL     1      21.455  -0.473  53.031  1.00  0.00     0.201 C 
BRANCH  21  22
HETATM   22  C14 UNL     1      20.325   0.425  53.515  1.00  0.00     0.193 C 
BRANCH  22  23
HETATM   23  O2  UNL     1      19.567   0.967  52.522  1.00  0.00    -0.394 OA
HETATM   24  C15 UNL     1      19.593   0.342  51.304  1.00  0.00     0.201 C 
ENDBRANCH  22  23
ENDBRANCH  21  22
ENDBRANCH  20  21
ENDBRANCH  18  20
BRANCH  19  25
HETATM   25  O3  UNL     1      23.013   2.094  51.898  1.00  0.00    -0.345 OA
BRANCH  25  26
HETATM   26  C17 UNL     1      22.645   3.330  52.409  1.00  0.00     0.202 C 
BRANCH  26  27
HETATM   27  C18 UNL     1      21.399   3.892  51.770  1.00  0.00     0.193 C 
BRANCH  27  28
HETATM   28  O4  UNL     1      21.693   4.735  50.747  1.00  0.00    -0.394 OA
HETATM   29  C19 UNL     1      21.811   6.057  51.056  1.00  0.00     0.201 C 
ENDBRANCH  27  28
ENDBRANCH  26  27
ENDBRANCH  25  26
ENDBRANCH  19  25
ENDBRANCH   9  11
ENDBRANCH   7   9
TORSDOF 10
ENDMDL
MODEL 4
REMARK VINA RESULT:      -6.9      2.321      7.622
REMARK  10 active torsions:
REMARK  status: ('A' for Active; 'I' for Inactive)
REMARK    1  A    between atoms: C7_7  and  N1_8 
REMARK    2  A    between atoms: N1_8  and  C8_9 
REMARK    3  A    between atoms: C12_15  and  O1_16 
REMARK    4  A    between atoms: O1_16  and  C13_17 
REMARK    5  A    between atoms: C13_17  and  C14_18 
REMARK    6  A    between atoms: C14_18  and  O2_19 
REMARK    7  A    between atoms: C16_21  and  O3_22 
REMARK    8  A    between atoms: O3_22  and  C17_23 
REMARK    9  A    between atoms: C17_23  and  C18_24 
REMARK   10  A    between atoms: C18_24  and  O4_25 
ROOT
HETATM    1  C1  UNL     1      16.579  -0.267  49.555  1.00  0.00     0.018 C 
HETATM    2  C2  UNL     1      17.338   0.487  50.078  1.00  0.00    -0.078 C 
HETATM    3  C3  UNL     1      18.250   1.430  50.715  1.00  0.00     0.019 A 
HETATM    4  C4  UNL     1      17.949   2.787  50.812  1.00  0.00     0.021 A 
HETATM    5  C5  UNL     1      18.898   3.542  51.445  1.00  0.00     0.004 A 
HETATM    6  C6  UNL     1      20.048   2.978  51.936  1.00  0.00     0.029 A 
HETATM    7  C7  UNL     1      20.359   1.639  51.845  1.00  0.00     0.035 A 
HETATM    8  C21 UNL     1      19.410   0.879  51.213  1.00  0.00     0.050 A 
ENDROOT
BRANCH   7   9
HETATM    9  N1  UNL     1      21.595   1.269  52.430  1.00  0.00    -0.340 N 
HETATM   10  H5  UNL     1      22.463   1.802  52.258  1.00  0.00     0.167 HD
BRANCH   9  11
HETATM   11  C8  UNL     1      21.584   0.146  53.264  1.00  0.00     0.141 C 
HETATM   12  N2  UNL     1      20.690  -0.816  53.391  1.00  0.00    -0.224 NA
HETATM   13  C9  UNL     1      20.936  -1.831  54.346  1.00  0.00     0.230 C 
HETATM   14  N3  UNL     1      21.951  -1.977  55.196  1.00  0.00    -0.269 NA
HETATM   15  C10 UNL     1      22.964  -0.960  55.190  1.00  0.00     0.174 A 
HETATM   16  C11 UNL     1      24.334  -1.242  55.454  1.00  0.00     0.045 A 
HETATM   17  C20 UNL     1      22.882  -0.262  53.891  1.00  0.00     0.052 A 
HETATM   18  C12 UNL     1      25.028  -0.706  54.473  1.00  0.00     0.101 A 
HETATM   19  C16 UNL     1      24.155  -0.064  53.461  1.00  0.00     0.114 A 
BRANCH  18  20
HETATM   20  O1  UNL     1      26.427  -0.709  54.303  1.00  0.00    -0.346 OA
BRANCH  20  21
HETATM   21  C13 UNL     1      27.191   0.384  54.833  1.00  0.00     0.201 C 
BRANCH  21  22
HETATM   22  C14 UNL     1      28.632   0.091  54.436  1.00  0.00     0.193 C 
BRANCH  22  23
HETATM   23  O2  UNL     1      28.862  -1.193  54.044  1.00  0.00    -0.394 OA
HETATM   24  C15 UNL     1      30.066  -1.458  53.447  1.00  0.00     0.201 C 
ENDBRANCH  22  23
ENDBRANCH  21  22
ENDBRANCH  20  21
ENDBRANCH  18  20
BRANCH  19  25
HETATM   25  O3  UNL     1      24.488   0.624  52.290  1.00  0.00    -0.345 OA
BRANCH  25  26
HETATM   26  C17 UNL     1      25.121   1.854  52.195  1.00  0.00     0.202 C 
BRANCH  26  27
HETATM   27  C18 UNL     1      24.717   2.818  53.282  1.00  0.00     0.193 C 
BRANCH  27  28
HETATM   28  O4  UNL     1      23.639   3.562  52.922  1.00  0.00    -0.394 OA
HETATM   29  C19 UNL     1      23.691   4.170  51.703  1.00  0.00     0.201 C 
ENDBRANCH  27  28
ENDBRANCH  26  27
ENDBRANCH  25  26
ENDBRANCH  19  25
ENDBRANCH   9  11
ENDBRANCH   7   9
TORSDOF 10
ENDMDL
MODEL 5
REMARK VINA RESULT:      -6.7      2.022      4.233
REMARK  10 active torsions:
REMARK  status: ('A' for Active; 'I' for Inactive)
REMARK    1  A    between atoms: C7_7  and  N1_8 
REMARK    2  A    between atoms: N1_8  and  C8_9 
REMARK    3  A    between atoms: C12_15  and  O1_16 
REMARK    4  A    between atoms: O1_16  and  C13_17 
REMARK    5  A    between atoms: C13_17  and  C14_18 
REMARK    6  A    between atoms: C14_18  and  O2_19 
REMARK    7  A    between atoms: C16_21  and  O3_22 
REMARK    8  A    between atoms: O3_22  and  C17_23 
REMARK    9  A    between atoms: C17_23  and  C18_24 
REMARK   10  A    between atoms: C18_24  and  O4_25 
ROOT
HETATM    1  C1  UNL     1      30.521  -0.519  53.773  1.00  0.00     0.018 C 
HETATM    2  C2  UNL     1      29.355  -0.445  53.547  1.00  0.00    -0.078 C 
HETATM    3  C3  UNL     1      27.924  -0.379  53.265  1.00  0.00     0.019 A 
HETATM    4  C4  UNL     1      27.218  -1.490  52.808  1.00  0.00     0.021 A 
HETATM    5  C5  UNL     1      25.883  -1.274  52.599  1.00  0.00     0.004 A 
HETATM    6  C6  UNL     1      25.314  -0.047  52.829  1.00  0.00     0.029 A 
HETATM    7  C7  UNL     1      26.001   1.059  53.278  1.00  0.00     0.035 A 
HETATM    8  C21 UNL     1      27.338   0.846  53.491  1.00  0.00     0.050 A 
ENDROOT
BRANCH   7   9
HETATM    9  N1  UNL     1      25.213   2.221  53.459  1.00  0.00    -0.340 N 
HETATM   10  H5  UNL     1      24.928   2.548  54.397  1.00  0.00     0.167 HD
BRANCH   9  11
HETATM   11  C8  UNL     1      24.843   2.916  52.303  1.00  0.00     0.141 C 
HETATM   12  N2  UNL     1      25.488   3.087  51.165  1.00  0.00    -0.224 NA
HETATM   13  C9  UNL     1      24.870   3.867  50.161  1.00  0.00     0.230 C 
HETATM   14  N3  UNL     1      23.703   4.510  50.174  1.00  0.00    -0.269 NA
HETATM   15  C10 UNL     1      22.931   4.444  51.382  1.00  0.00     0.174 A 
HETATM   16  C11 UNL     1      21.508   4.437  51.383  1.00  0.00     0.045 A 
HETATM   17  C20 UNL     1      23.395   3.263  52.139  1.00  0.00     0.052 A 
HETATM   18  C12 UNL     1      21.133   3.416  52.124  1.00  0.00     0.101 A 
HETATM   19  C16 UNL     1      22.292   2.646  52.636  1.00  0.00     0.114 A 
BRANCH  18  20
HETATM   20  O1  UNL     1      19.820   3.010  52.434  1.00  0.00    -0.346 OA
BRANCH  20  21
HETATM   21  C13 UNL     1      18.862   2.893  51.372  1.00  0.00     0.201 C 
BRANCH  21  22
HETATM   22  C14 UNL     1      19.057   1.490  50.813  1.00  0.00     0.193 C 
BRANCH  22  23
HETATM   23  O2  UNL     1      19.720   1.441  49.624  1.00  0.00    -0.394 OA
HETATM   24  C15 UNL     1      19.523   2.482  48.756  1.00  0.00     0.201 C 
ENDBRANCH  22  23
ENDBRANCH  21  22
ENDBRANCH  20  21
ENDBRANCH  18  20
BRANCH  19  25
HETATM   25  O3  UNL     1      22.330   1.519  53.462  1.00  0.00    -0.345 OA
BRANCH  25  26
HETATM   26  C17 UNL     1      21.725   0.292  53.231  1.00  0.00     0.202 C 
BRANCH  26  27
HETATM   27  C18 UNL     1      20.855  -0.168  54.375  1.00  0.00     0.193 C 
BRANCH  27  28
HETATM   28  O4  UNL     1      21.337  -1.298  54.953  1.00  0.00    -0.394 OA
HETATM   29  C19 UNL     1      22.683  -1.354  55.164  1.00  0.00     0.201 C 
ENDBRANCH  27  28
ENDBRANCH  26  27
ENDBRANCH  25  26
ENDBRANCH  19  25
ENDBRANCH   9  11
ENDBRANCH   7   9
TORSDOF 10
ENDMDL
MODEL 6
REMARK VINA RESULT:      -6.7      3.696      6.146
REMARK  10 active torsions:
REMARK  status: ('A' for Active; 'I' for Inactive)
REMARK    1  A    between atoms: C7_7  and  N1_8 
REMARK    2  A    between atoms: N1_8  and  C8_9 
REMARK    3  A    between atoms: C12_15  and  O1_16 
REMARK    4  A    between atoms: O1_16  and  C13_17 
REMARK    5  A    between atoms: C13_17  and  C14_18 
REMARK    6  A    between atoms: C14_18  and  O2_19 
REMARK    7  A    between atoms: C16_21  and  O3_22 
REMARK    8  A    between atoms: O3_22  and  C17_23 
REMARK    9  A    between atoms: C17_23  and  C18_24 
REMARK   10  A    between atoms: C18_24  and  O4_25 
ROOT
HETATM    1  C1  UNL     1      27.515   8.467  47.586  1.00  0.00     0.018 C 
HETATM    2  C2  UNL     1      27.182   7.408  48.015  1.00  0.00    -0.078 C 
HETATM    3  C3  UNL     1      26.798   6.101  48.538  1.00  0.00     0.019 A 
HETATM    4  C4  UNL     1      27.702   5.044  48.599  1.00  0.00     0.021 A 
HETATM    5  C5  UNL     1      27.196   3.885  49.124  1.00  0.00     0.004 A 
HETATM    6  C6  UNL     1      25.895   3.803  49.548  1.00  0.00     0.029 A 
HETATM    7  C7  UNL     1      24.990   4.840  49.493  1.00  0.00     0.035 A 
HETATM    8  C21 UNL     1      25.494   6.002  48.969  1.00  0.00     0.050 A 
ENDROOT
BRANCH   7   9
HETATM    9  N1  UNL     1      23.701   4.540  49.996  1.00  0.00    -0.340 N 
HETATM   10  H5  UNL     1      23.251   5.116  50.726  1.00  0.00     0.167 HD
BRANCH   9  11
HETATM   11  C8  UNL     1      23.058   3.423  49.451  1.00  0.00     0.141 C 
HETATM   12  N2  UNL     1      23.020   2.980  48.210  1.00  0.00    -0.224 NA
HETATM   13  C9  UNL     1      22.261   1.818  47.940  1.00  0.00     0.230 C 
HETATM   14  N3  UNL     1      21.521   1.071  48.759  1.00  0.00    -0.269 NA
HETATM   15  C10 UNL     1      21.439   1.486  50.131  1.00  0.00     0.174 A 
HETATM   16  C11 UNL     1      21.325   0.560  51.206  1.00  0.00     0.045 A 
HETATM   17  C20 UNL     1      22.601   2.357  50.399  1.00  0.00     0.052 A 
HETATM   18  C12 UNL     1      22.257   0.875  52.080  1.00  0.00     0.101 A 
HETATM   19  C16 UNL     1      23.087   2.015  51.620  1.00  0.00     0.114 A 
BRANCH  18  20
HETATM   20  O1  UNL     1      22.528   0.254  53.315  1.00  0.00    -0.346 OA
BRANCH  20  21
HETATM   21  C13 UNL     1      22.289  -1.155  53.450  1.00  0.00     0.201 C 
BRANCH  21  22
HETATM   22  C14 UNL     1      21.103  -1.269  54.397  1.00  0.00     0.193 C 
BRANCH  22  23
HETATM   23  O2  UNL     1      19.983  -1.807  53.840  1.00  0.00    -0.394 OA
HETATM   24  C15 UNL     1      18.984  -0.941  53.482  1.00  0.00     0.201 C 
ENDBRANCH  22  23
ENDBRANCH  21  22
ENDBRANCH  20  21
ENDBRANCH  18  20
BRANCH  19  25
HETATM   25  O3  UNL     1      24.154   2.662  52.249  1.00  0.00    -0.345 OA
BRANCH  25  26
HETATM   26  C17 UNL     1      25.271   2.071  52.822  1.00  0.00     0.202 C 
BRANCH  26  27
HETATM   27  C18 UNL     1      25.941   1.064  51.920  1.00  0.00     0.193 C 
BRANCH  27  28
HETATM   28  O4  UNL     1      26.573   0.094  52.628  1.00  0.00    -0.394 OA
HETATM   29  C19 UNL     1      25.959  -0.334  53.767  1.00  0.00     0.201 C 
ENDBRANCH  27  28
ENDBRANCH  26  27
ENDBRANCH  25  26
ENDBRANCH  19  25
ENDBRANCH   9  11
ENDBRANCH   7   9
TORSDOF 10
ENDMDL
MODEL 7
REMARK VINA RESULT:      -6.5      2.512      4.853
REMARK  10 active torsions:
REMARK  status: ('A' for Active; 'I' for Inactive)
REMARK    1  A    between atoms: C7_7  and  N1_8 
REMARK    2  A    between atoms: N1_8  and  C8_9 
REMARK    3  A    between atoms: C12_15  and  O1_16 
REMARK    4  A    between atoms: O1_16  and  C13_17 
REMARK    5  A    between atoms: C13_17  and  C14_18 
REMARK    6  A    between atoms: C14_18  and  O2_19 
REMARK    7  A    between atoms: C16_21  and  O3_22 
REMARK    8  A    between atoms: O3_22  and  C17_23 
REMARK    9  A    between atoms: C17_23  and  C18_24 
REMARK   10  A    between atoms: C18_24  and  O4_25 
ROOT
HETATM    1  C1  UNL     1      28.928  -2.717  53.103  1.00  0.00     0.018 C 
HETATM    2  C2  UNL     1      28.743  -1.547  53.222  1.00  0.00    -0.078 C 
HETATM    3  C3  UNL     1      28.541  -0.110  53.378  1.00  0.00     0.019 A 
HETATM    4  C4  UNL     1      29.498   0.701  53.983  1.00  0.00     0.021 A 
HETATM    5  C5  UNL     1      29.168   2.028  54.046  1.00  0.00     0.004 A 
HETATM    6  C6  UNL     1      27.979   2.492  53.545  1.00  0.00     0.029 A 
HETATM    7  C7  UNL     1      27.024   1.700  52.946  1.00  0.00     0.035 A 
HETATM    8  C21 UNL     1      27.352   0.372  52.879  1.00  0.00     0.050 A 
ENDROOT
BRANCH   7   9
HETATM    9  N1  UNL     1      25.875   2.390  52.488  1.00  0.00    -0.340 N 
HETATM   10  H5  UNL     1      24.975   2.350  52.994  1.00  0.00     0.167 HD
BRANCH   9  11
HETATM   11  C8  UNL     1      26.017   3.138  51.314  1.00  0.00     0.141 C 
HETATM   12  N2  UNL     1      26.928   3.071  50.363  1.00  0.00    -0.224 NA
HETATM   13  C9  UNL     1      26.833   3.982  49.285  1.00  0.00     0.230 C 
HETATM   14  N3  UNL     1      25.955   4.960  49.068  1.00  0.00    -0.269 NA
HETATM   15  C10 UNL     1      24.944   5.169  50.065  1.00  0.00     0.174 A 
HETATM   16  C11 UNL     1      23.630   5.611  49.743  1.00  0.00     0.045 A 
HETATM   17  C20 UNL     1      24.829   3.920  50.845  1.00  0.00     0.052 A 
HETATM   18  C12 UNL     1      22.795   4.779  50.327  1.00  0.00     0.101 A 
HETATM   19  C16 UNL     1      23.505   3.694  51.047  1.00  0.00     0.114 A 
BRANCH  18  20
HETATM   20  O1  UNL     1      21.387   4.815  50.311  1.00  0.00    -0.346 OA
BRANCH  20  21
HETATM   21  C13 UNL     1      20.710   4.873  49.047  1.00  0.00     0.201 C 
BRANCH  21  22
HETATM   22  C14 UNL     1      20.068   3.503  48.875  1.00  0.00     0.193 C 
BRANCH  22  23
HETATM   23  O2  UNL     1      20.920   2.527  48.457  1.00  0.00    -0.394 OA
HETATM   24  C15 UNL     1      21.726   2.817  47.388  1.00  0.00     0.201 C 
ENDBRANCH  22  23
ENDBRANCH  21  22
ENDBRANCH  20  21
ENDBRANCH  18  20
BRANCH  19  25
HETATM   25  O3  UNL     1      22.998   2.632  51.802  1.00  0.00    -0.345 OA
BRANCH  25  26
HETATM   26  C17 UNL     1      22.628   1.378  51.338  1.00  0.00     0.202 C 
BRANCH  26  27
HETATM   27  C18 UNL     1      21.908   0.549  52.372  1.00  0.00     0.193 C 
BRANCH  27  28
HETATM   28  O4  UNL     1      22.603  -0.573  52.693  1.00  0.00    -0.394 OA
HETATM   29  C19 UNL     1      23.678  -0.415  53.516  1.00  0.00     0.201 C 
ENDBRANCH  27  28
ENDBRANCH  26  27
ENDBRANCH  25  26
ENDBRANCH  19  25
ENDBRANCH   9  11
ENDBRANCH   7   9
TORSDOF 10
ENDMDL
MODEL 8
REMARK VINA RESULT:      -6.4      2.948      3.750
REMARK  10 active torsions:
REMARK  status: ('A' for Active; 'I' for Inactive)
REMARK    1  A    between atoms: C7_7  and  N1_8 
REMARK    2  A    between atoms: N1_8  and  C8_9 
REMARK    3  A    between atoms: C12_15  and  O1_16 
REMARK    4  A    between atoms: O1_16  and  C13_17 
REMARK    5  A    between atoms: C13_17  and  C14_18 
REMARK    6  A    between atoms: C14_18  and  O2_19 
REMARK    7  A    between atoms: C16_21  and  O3_22 
REMARK    8  A    between atoms: O3_22  and  C17_23 
REMARK    9  A    between atoms: C17_23  and  C18_24 
REMARK   10  A    between atoms: C18_24  and  O4_25 
ROOT
HETATM    1  C1  UNL     1      28.814  -2.734  53.106  1.00  0.00     0.018 C 
HETATM    2  C2  UNL     1      28.681  -1.556  53.214  1.00  0.00    -0.078 C 
HETATM    3  C3  UNL     1      28.540  -0.111  53.359  1.00  0.00     0.019 A 
HETATM    4  C4  UNL     1      29.450   0.641  54.097  1.00  0.00     0.021 A 
HETATM    5  C5  UNL     1      29.190   1.985  54.132  1.00  0.00     0.004 A 
HETATM    6  C6  UNL     1      28.107   2.518  53.480  1.00  0.00     0.029 A 
HETATM    7  C7  UNL     1      27.199   1.786  52.748  1.00  0.00     0.035 A 
HETATM    8  C21 UNL     1      27.458   0.441  52.711  1.00  0.00     0.050 A 
ENDROOT
BRANCH   7   9
HETATM    9  N1  UNL     1      26.163   2.541  52.148  1.00  0.00    -0.340 N 
HETATM   10  H5  UNL     1      26.347   3.437  51.668  1.00  0.00     0.167 HD
BRANCH   9  11
HETATM   11  C8  UNL     1      24.870   2.012  52.231  1.00  0.00     0.141 C 
HETATM   12  N2  UNL     1      24.217   1.509  53.259  1.00  0.00    -0.224 NA
HETATM   13  C9  UNL     1      22.908   1.020  53.042  1.00  0.00     0.230 C 
HETATM   14  N3  UNL     1      22.196   0.955  51.918  1.00  0.00    -0.269 NA
HETATM   15  C10 UNL     1      22.822   1.424  50.715  1.00  0.00     0.174 A 
HETATM   16  C11 UNL     1      22.094   2.053  49.667  1.00  0.00     0.045 A 
HETATM   17  C20 UNL     1      23.923   2.325  51.113  1.00  0.00     0.052 A 
HETATM   18  C12 UNL     1      22.721   3.177  49.390  1.00  0.00     0.101 A 
HETATM   19  C16 UNL     1      23.893   3.391  50.272  1.00  0.00     0.114 A 
BRANCH  18  20
HETATM   20  O1  UNL     1      22.386   4.134  48.412  1.00  0.00    -0.346 OA
BRANCH  20  21
HETATM   21  C13 UNL     1      22.089   3.690  47.080  1.00  0.00     0.201 C 
BRANCH  21  22
HETATM   22  C14 UNL     1      20.661   4.149  46.816  1.00  0.00     0.193 C 
BRANCH  22  23
HETATM   23  O2  UNL     1      19.726   3.162  46.888  1.00  0.00    -0.394 OA
HETATM   24  C15 UNL     1      18.947   3.120  48.013  1.00  0.00     0.201 C 
ENDBRANCH  22  23
ENDBRANCH  21  22
ENDBRANCH  20  21
ENDBRANCH  18  20
BRANCH  19  25
HETATM   25  O3  UNL     1      24.823   4.434  50.297  1.00  0.00    -0.345 OA
BRANCH  25  26
HETATM   26  C17 UNL     1      25.736   4.765  49.306  1.00  0.00     0.202 C 
BRANCH  26  27
HETATM   27  C18 UNL     1      25.770   6.241  48.995  1.00  0.00     0.193 C 
BRANCH  27  28
HETATM   28  O4  UNL     1      26.027   6.984  50.103  1.00  0.00    -0.394 OA
HETATM   29  C19 UNL     1      26.014   8.338  49.950  1.00  0.00     0.201 C 
ENDBRANCH  27  28
ENDBRANCH  26  27
ENDBRANCH  25  26
ENDBRANCH  19  25
ENDBRANCH   9  11
ENDBRANCH   7   9
TORSDOF 10
ENDMDL
MODEL 9
REMARK VINA RESULT:      -6.4      2.625      7.754
REMARK  10 active torsions:
REMARK  status: ('A' for Active; 'I' for Inactive)
REMARK    1  A    between atoms: C7_7  and  N1_8 
REMARK    2  A    between atoms: N1_8  and  C8_9 
REMARK    3  A    between atoms: C12_15  and  O1_16 
REMARK    4  A    between atoms: O1_16  and  C13_17 
REMARK    5  A    between atoms: C13_17  and  C14_18 
REMARK    6  A    between atoms: C14_18  and  O2_19 
REMARK    7  A    between atoms: C16_21  and  O3_22 
REMARK    8  A    between atoms: O3_22  and  C17_23 
REMARK    9  A    between atoms: C17_23  and  C18_24 
REMARK   10  A    between atoms: C18_24  and  O4_25 
ROOT
HETATM    1  C1  UNL     1      17.034   4.363  50.235  1.00  0.00     0.018 C 
HETATM    2  C2  UNL     1      18.014   3.688  50.213  1.00  0.00    -0.078 C 
HETATM    3  C3  UNL     1      19.213   2.857  50.161  1.00  0.00     0.019 A 
HETATM    4  C4  UNL     1      19.606   2.215  48.989  1.00  0.00     0.021 A 
HETATM    5  C5  UNL     1      20.756   1.480  49.096  1.00  0.00     0.004 A 
HETATM    6  C6  UNL     1      21.445   1.401  50.279  1.00  0.00     0.029 A 
HETATM    7  C7  UNL     1      21.066   2.030  51.445  1.00  0.00     0.035 A 
HETATM    8  C21 UNL     1      19.916   2.767  51.341  1.00  0.00     0.050 A 
ENDROOT
BRANCH   7   9
HETATM    9  N1  UNL     1      21.931   1.822  52.547  1.00  0.00    -0.340 N 
HETATM   10  H5  UNL     1      22.662   2.506  52.805  1.00  0.00     0.167 HD
BRANCH   9  11
HETATM   11  C8  UNL     1      21.745   0.645  53.279  1.00  0.00     0.141 C 
HETATM   12  N2  UNL     1      20.701  -0.157  53.356  1.00  0.00    -0.224 NA
HETATM   13  C9  UNL     1      20.788  -1.284  54.207  1.00  0.00     0.230 C 
HETATM   14  N3  UNL     1      21.782  -1.680  55.001  1.00  0.00    -0.269 NA
HETATM   15  C10 UNL     1      22.956  -0.856  55.045  1.00  0.00     0.174 A 
HETATM   16  C11 UNL     1      24.262  -1.391  55.229  1.00  0.00     0.045 A 
HETATM   17  C20 UNL     1      22.966  -0.036  53.816  1.00  0.00     0.052 A 
HETATM   18  C12 UNL     1      25.015  -0.893  54.272  1.00  0.00     0.101 A 
HETATM   19  C16 UNL     1      24.244  -0.019  53.355  1.00  0.00     0.114 A 
BRANCH  18  20
HETATM   20  O1  UNL     1      26.388  -1.119  54.047  1.00  0.00    -0.346 OA
BRANCH  20  21
HETATM   21  C13 UNL     1      26.791  -1.804  52.853  1.00  0.00     0.201 C 
BRANCH  21  22
HETATM   22  C14 UNL     1      28.272  -1.487  52.693  1.00  0.00     0.193 C 
BRANCH  22  23
HETATM   23  O2  UNL     1      28.975  -1.460  53.858  1.00  0.00    -0.394 OA
HETATM   24  C15 UNL     1      30.195  -0.838  53.838  1.00  0.00     0.201 C 
ENDBRANCH  22  23
ENDBRANCH  21  22
ENDBRANCH  20  21
ENDBRANCH  18  20
BRANCH  19  25
HETATM   25  O3  UNL     1      24.664   0.708  52.237  1.00  0.00    -0.345 OA
BRANCH  25  26
HETATM   26  C17 UNL     1      25.103   2.023  52.211  1.00  0.00     0.202 C 
BRANCH  26  27
HETATM   27  C18 UNL     1      26.606   2.149  52.198  1.00  0.00     0.193 C 
BRANCH  27  28
HETATM   28  O4  UNL     1      27.131   2.066  53.448  1.00  0.00    -0.394 OA
HETATM   29  C19 UNL     1      28.467   2.307  53.571  1.00  0.00     0.201 C 
ENDBRANCH  27  28
ENDBRANCH  26  27
ENDBRANCH  25  26
ENDBRANCH  19  25
ENDBRANCH   9  11
ENDBRANCH   7   9
TORSDOF 10
ENDMDL
