MODEL 1
REMARK VINA RESULT:      -7.9      0.000      0.000
REMARK  4 active torsions:
REMARK  status: ('A' for Active; 'I' for Inactive)
REMARK       I    between atoms: C3_3  and  N1_5 
REMARK    1  A    between atoms: N1_5  and  C4_6 
REMARK    2  A    between atoms: C9_13  and  N4_14 
REMARK    3  A    between atoms: N4_14  and  C10_15 
REMARK    4  A    between atoms: C10_15  and  C11_16 
ROOT
HETATM    1  C1  UNL     1      30.152  -0.307  53.491  1.00  0.00     0.022 C 
HETATM    2  C2  UNL     1      28.997  -0.629  53.547  1.00  0.00    -0.016 C 
HETATM    3  C3  UNL     1      27.617  -0.994  53.631  1.00  0.00     0.300 C 
HETATM    4  O1  UNL     1      27.267  -2.027  53.013  1.00  0.00    -0.258 OA
HETATM    5  N1  UNL     1      26.625  -0.287  54.352  1.00  0.00    -0.316 N 
HETATM    6  H2  UNL     1      27.050   0.544  54.816  1.00  0.00     0.170 HD
ENDROOT
BRANCH   5   7
HETATM    7  C4  UNL     1      25.246  -0.558  54.499  1.00  0.00     0.036 A 
HETATM    8  C5  UNL     1      24.636  -1.239  55.524  1.00  0.00     0.032 A 
HETATM    9  C6  UNL     1      23.282  -1.475  55.618  1.00  0.00     0.035 A 
HETATM   10  C7  UNL     1      22.472  -1.006  54.633  1.00  0.00     0.072 A 
HETATM   11  N2  UNL     1      21.143  -1.217  54.691  1.00  0.00    -0.241 NA
HETATM   12  C14 UNL     1      23.036  -0.318  53.585  1.00  0.00     0.041 A 
HETATM   13  C8  UNL     1      20.317  -0.756  53.717  1.00  0.00     0.235 A 
HETATM   14  N3  UNL     1      20.902  -0.089  52.711  1.00  0.00    -0.224 NA
HETATM   15  C9  UNL     1      22.212   0.152  52.596  1.00  0.00     0.137 A 
HETATM   16  C15 UNL     1      24.392  -0.101  53.524  1.00  0.00     0.047 A 
BRANCH  15  17
HETATM   17  N4  UNL     1      22.677   0.877  51.463  1.00  0.00    -0.371 N 
HETATM   18  H6  UNL     1      22.906   0.506  50.525  1.00  0.00     0.161 HD
BRANCH  17  19
HETATM   19  C10 UNL     1      22.881   2.294  51.544  1.00  0.00     0.149 C 
BRANCH  19  20
HETATM   20  C11 UNL     1      24.202   2.767  51.096  1.00  0.00     0.007 C 
HETATM   21  C12 UNL     1      24.487   3.287  49.910  1.00  0.00    -0.018 C 
HETATM   22  C13 UNL     1      23.386   3.418  48.916  1.00  0.00     0.056 C 
HETATM   23 BR1  UNL     1      26.291   3.825  49.581  1.00  0.00    -0.056 Br
ENDBRANCH  19  20
ENDBRANCH  17  19
ENDBRANCH  15  17
ENDBRANCH   5   7
TORSDOF 4
ENDMDL
MODEL 2
REMARK VINA RESULT:      -7.8      1.803      2.455
REMARK  4 active torsions:
REMARK  status: ('A' for Active; 'I' for Inactive)
REMARK       I    between atoms: C3_3  and  N1_5 
REMARK    1  A    between atoms: N1_5  and  C4_6 
REMARK    2  A    between atoms: C9_13  and  N4_14 
REMARK    3  A    between atoms: N4_14  and  C10_15 
REMARK    4  A    between atoms: C10_15  and  C11_16 
ROOT
HETATM    1  C1  UNL     1      29.752  -0.721  53.713  1.00  0.00     0.022 C 
HETATM    2  C2  UNL     1      28.616  -0.360  53.847  1.00  0.00    -0.016 C 
HETATM    3  C3  UNL     1      27.255   0.058  53.984  1.00  0.00     0.300 C 
HETATM    4  O1  UNL     1      26.992   0.815  54.947  1.00  0.00    -0.258 OA
HETATM    5  N1  UNL     1      26.194  -0.313  53.125  1.00  0.00    -0.316 N 
HETATM    6  H2  UNL     1      26.549  -0.940  52.372  1.00  0.00     0.170 HD
ENDROOT
BRANCH   5   7
HETATM    7  C4  UNL     1      24.826   0.041  53.170  1.00  0.00     0.036 A 
HETATM    8  C5  UNL     1      23.796  -0.684  53.719  1.00  0.00     0.032 A 
HETATM    9  C6  UNL     1      22.476  -0.290  53.736  1.00  0.00     0.035 A 
HETATM   10  C7  UNL     1      22.148   0.902  53.171  1.00  0.00     0.072 A 
HETATM   11  N2  UNL     1      20.868   1.319  53.168  1.00  0.00    -0.241 NA
HETATM   12  C14 UNL     1      23.144   1.663  52.609  1.00  0.00     0.041 A 
HETATM   13  C8  UNL     1      20.519   2.507  52.610  1.00  0.00     0.235 A 
HETATM   14  N3  UNL     1      21.517   3.224  52.071  1.00  0.00    -0.224 NA
HETATM   15  C9  UNL     1      22.804   2.864  52.042  1.00  0.00     0.137 A 
HETATM   16  C15 UNL     1      24.451   1.239  52.611  1.00  0.00     0.047 A 
BRANCH  15  17
HETATM   17  N4  UNL     1      23.745   3.739  51.430  1.00  0.00    -0.371 N 
HETATM   18  H6  UNL     1      24.456   4.329  51.896  1.00  0.00     0.161 HD
BRANCH  17  19
HETATM   19  C10 UNL     1      23.779   3.881  50.004  1.00  0.00     0.149 C 
BRANCH  19  20
HETATM   20  C11 UNL     1      24.729   4.886  49.494  1.00  0.00     0.007 C 
HETATM   21  C12 UNL     1      26.019   4.694  49.256  1.00  0.00    -0.018 C 
HETATM   22  C13 UNL     1      26.591   3.344  49.519  1.00  0.00     0.056 C 
HETATM   23 BR1  UNL     1      27.034   6.170  48.592  1.00  0.00    -0.056 Br
ENDBRANCH  19  20
ENDBRANCH  17  19
ENDBRANCH  15  17
ENDBRANCH   5   7
TORSDOF 4
ENDMDL
MODEL 3
REMARK VINA RESULT:      -7.5      2.600      5.464
REMARK  4 active torsions:
REMARK  status: ('A' for Active; 'I' for Inactive)
REMARK       I    between atoms: C3_3  and  N1_5 
REMARK    1  A    between atoms: N1_5  and  C4_6 
REMARK    2  A    between atoms: C9_13  and  N4_14 
REMARK    3  A    between atoms: N4_14  and  C10_15 
REMARK    4  A    between atoms: C10_15  and  C11_16 
ROOT
HETATM    1  C1  UNL     1      18.585  -1.071  53.089  1.00  0.00     0.022 C 
HETATM    2  C2  UNL     1      19.682  -0.734  53.437  1.00  0.00    -0.016 C 
HETATM    3  C3  UNL     1      21.001  -0.344  53.832  1.00  0.00     0.300 C 
HETATM    4  O1  UNL     1      21.101   0.312  54.895  1.00  0.00    -0.258 OA
HETATM    5  N1  UNL     1      22.189  -0.640  53.123  1.00  0.00    -0.316 N 
HETATM    6  H2  UNL     1      21.963  -1.186  52.264  1.00  0.00     0.170 HD
ENDROOT
BRANCH   5   7
HETATM    7  C4  UNL     1      23.530  -0.306  53.421  1.00  0.00     0.036 A 
HETATM    8  C5  UNL     1      24.312  -0.821  54.426  1.00  0.00     0.032 A 
HETATM    9  C6  UNL     1      25.618  -0.458  54.673  1.00  0.00     0.035 A 
HETATM   10  C7  UNL     1      26.193   0.477  53.873  1.00  0.00     0.072 A 
HETATM   11  N2  UNL     1      27.468   0.856  54.083  1.00  0.00    -0.241 NA
HETATM   12  C14 UNL     1      25.450   1.022  52.853  1.00  0.00     0.041 A 
HETATM   13  C8  UNL     1      28.062   1.789  53.295  1.00  0.00     0.235 A 
HETATM   14  N3  UNL     1      27.307   2.299  52.310  1.00  0.00    -0.224 NA
HETATM   15  C9  UNL     1      26.039   1.965  52.050  1.00  0.00     0.137 A 
HETATM   16  C15 UNL     1      24.149   0.636  52.636  1.00  0.00     0.047 A 
BRANCH  15  17
HETATM   17  N4  UNL     1      25.373   2.600  50.965  1.00  0.00    -0.371 N 
HETATM   18  H6  UNL     1      24.354   2.693  50.815  1.00  0.00     0.161 HD
BRANCH  17  19
HETATM   19  C10 UNL     1      26.128   3.208  49.909  1.00  0.00     0.149 C 
BRANCH  19  20
HETATM   20  C11 UNL     1      25.693   4.561  49.521  1.00  0.00     0.007 C 
HETATM   21  C12 UNL     1      26.425   5.467  48.886  1.00  0.00    -0.018 C 
HETATM   22  C13 UNL     1      27.822   5.110  48.516  1.00  0.00     0.056 C 
HETATM   23 BR1  UNL     1      25.618   7.155  48.500  1.00  0.00    -0.056 Br
ENDBRANCH  19  20
ENDBRANCH  17  19
ENDBRANCH  15  17
ENDBRANCH   5   7
TORSDOF 4
ENDMDL
MODEL 4
REMARK VINA RESULT:      -7.2      3.156      5.877
REMARK  4 active torsions:
REMARK  status: ('A' for Active; 'I' for Inactive)
REMARK       I    between atoms: C3_3  and  N1_5 
REMARK    1  A    between atoms: N1_5  and  C4_6 
REMARK    2  A    between atoms: C9_13  and  N4_14 
REMARK    3  A    between atoms: N4_14  and  C10_15 
REMARK    4  A    between atoms: C10_15  and  C11_16 
ROOT
HETATM    1  C1  UNL     1      27.798   6.324  48.257  1.00  0.00     0.022 C 
HETATM    2  C2  UNL     1      26.875   5.773  48.790  1.00  0.00    -0.016 C 
HETATM    3  C3  UNL     1      25.781   5.095  49.414  1.00  0.00     0.300 C 
HETATM    4  O1  UNL     1      25.046   5.780  50.164  1.00  0.00    -0.258 OA
HETATM    5  N1  UNL     1      25.466   3.726  49.251  1.00  0.00    -0.316 N 
HETATM    6  H2  UNL     1      26.152   3.278  48.607  1.00  0.00     0.170 HD
ENDROOT
BRANCH   5   7
HETATM    7  C4  UNL     1      24.418   2.963  49.815  1.00  0.00     0.036 A 
HETATM    8  C5  UNL     1      23.176   2.729  49.278  1.00  0.00     0.032 A 
HETATM    9  C6  UNL     1      22.189   1.974  49.874  1.00  0.00     0.035 A 
HETATM   10  C7  UNL     1      22.444   1.412  51.084  1.00  0.00     0.072 A 
HETATM   11  N2  UNL     1      21.503   0.668  51.696  1.00  0.00    -0.241 NA
HETATM   12  C14 UNL     1      23.674   1.617  51.662  1.00  0.00     0.041 A 
HETATM   13  C8  UNL     1      21.738   0.096  52.905  1.00  0.00     0.235 A 
HETATM   14  N3  UNL     1      22.949   0.318  53.439  1.00  0.00    -0.224 NA
HETATM   15  C9  UNL     1      23.923   1.045  52.882  1.00  0.00     0.137 A 
HETATM   16  C15 UNL     1      24.635   2.376  51.039  1.00  0.00     0.047 A 
BRANCH  15  17
HETATM   17  N4  UNL     1      25.155   1.186  53.580  1.00  0.00    -0.371 N 
HETATM   18  H6  UNL     1      25.733   2.038  53.677  1.00  0.00     0.161 HD
BRANCH  17  19
HETATM   19  C10 UNL     1      25.736   0.063  54.256  1.00  0.00     0.149 C 
BRANCH  19  20
HETATM   20  C11 UNL     1      27.204  -0.031  54.175  1.00  0.00     0.007 C 
HETATM   21  C12 UNL     1      27.894  -0.883  53.429  1.00  0.00    -0.018 C 
HETATM   22  C13 UNL     1      27.140  -1.848  52.581  1.00  0.00     0.056 C 
HETATM   23 BR1  UNL     1      29.801  -0.796  53.506  1.00  0.00    -0.056 Br
ENDBRANCH  19  20
ENDBRANCH  17  19
ENDBRANCH  15  17
ENDBRANCH   5   7
TORSDOF 4
ENDMDL
MODEL 5
REMARK VINA RESULT:      -7.0      3.241      6.248
REMARK  4 active torsions:
REMARK  status: ('A' for Active; 'I' for Inactive)
REMARK       I    between atoms: C3_3  and  N1_5 
REMARK    1  A    between atoms: N1_5  and  C4_6 
REMARK    2  A    between atoms: C9_13  and  N4_14 
REMARK    3  A    between atoms: N4_14  and  C10_15 
REMARK    4  A    between atoms: C10_15  and  C11_16 
ROOT
HETATM    1  C1  UNL     1      19.175   4.189  48.701  1.00  0.00     0.022 C 
HETATM    2  C2  UNL     1      19.472   3.592  49.698  1.00  0.00    -0.016 C 
HETATM    3  C3  UNL     1      19.832   2.859  50.873  1.00  0.00     0.300 C 
HETATM    4  O1  UNL     1      19.660   3.435  51.972  1.00  0.00    -0.258 OA
HETATM    5  N1  UNL     1      20.360   1.546  50.890  1.00  0.00    -0.316 N 
HETATM    6  H2  UNL     1      20.451   1.189  49.915  1.00  0.00     0.170 HD
ENDROOT
BRANCH   5   7
HETATM    7  C4  UNL     1      20.746   0.738  51.983  1.00  0.00     0.036 A 
HETATM    8  C5  UNL     1      19.938  -0.067  52.749  1.00  0.00     0.032 A 
HETATM    9  C6  UNL     1      20.369  -0.837  53.807  1.00  0.00     0.035 A 
HETATM   10  C7  UNL     1      21.687  -0.812  54.133  1.00  0.00     0.072 A 
HETATM   11  N2  UNL     1      22.144  -1.551  55.162  1.00  0.00    -0.241 NA
HETATM   12  C14 UNL     1      22.535  -0.020  53.396  1.00  0.00     0.041 A 
HETATM   13  C8  UNL     1      23.458  -1.540  55.504  1.00  0.00     0.235 A 
HETATM   14  N3  UNL     1      24.256  -0.757  54.763  1.00  0.00    -0.224 NA
HETATM   15  C9  UNL     1      23.864  -0.001  53.732  1.00  0.00     0.137 A 
HETATM   16  C15 UNL     1      22.071   0.735  52.346  1.00  0.00     0.047 A 
BRANCH  15  17
HETATM   17  N4  UNL     1      24.838   0.777  53.045  1.00  0.00    -0.371 N 
HETATM   18  H6  UNL     1      24.956   1.804  53.066  1.00  0.00     0.161 HD
BRANCH  17  19
HETATM   19  C10 UNL     1      25.808   0.142  52.203  1.00  0.00     0.149 C 
BRANCH  19  20
HETATM   20  C11 UNL     1      27.168   0.051  52.765  1.00  0.00     0.007 C 
HETATM   21  C12 UNL     1      27.871  -1.060  52.938  1.00  0.00    -0.018 C 
HETATM   22  C13 UNL     1      27.254  -2.354  52.535  1.00  0.00     0.056 C 
HETATM   23 BR1  UNL     1      29.619  -0.901  53.691  1.00  0.00    -0.056 Br
ENDBRANCH  19  20
ENDBRANCH  17  19
ENDBRANCH  15  17
ENDBRANCH   5   7
TORSDOF 4
ENDMDL
MODEL 6
REMARK VINA RESULT:      -7.0      2.881      4.028
REMARK  4 active torsions:
REMARK  status: ('A' for Active; 'I' for Inactive)
REMARK       I    between atoms: C3_3  and  N1_5 
REMARK    1  A    between atoms: N1_5  and  C4_6 
REMARK    2  A    between atoms: C9_13  and  N4_14 
REMARK    3  A    between atoms: N4_14  and  C10_15 
REMARK    4  A    between atoms: C10_15  and  C11_16 
ROOT
HETATM    1  C1  UNL     1      27.085   4.847  48.774  1.00  0.00     0.022 C 
HETATM    2  C2  UNL     1      26.776   4.046  49.612  1.00  0.00    -0.016 C 
HETATM    3  C3  UNL     1      26.383   3.093  50.604  1.00  0.00     0.300 C 
HETATM    4  O1  UNL     1      27.281   2.674  51.370  1.00  0.00    -0.258 OA
HETATM    5  N1  UNL     1      25.072   2.593  50.785  1.00  0.00    -0.316 N 
HETATM    6  H2  UNL     1      24.429   3.022  50.085  1.00  0.00     0.170 HD
ENDROOT
BRANCH   5   7
HETATM    7  C4  UNL     1      24.580   1.658  51.724  1.00  0.00     0.036 A 
HETATM    8  C5  UNL     1      25.290   0.678  52.373  1.00  0.00     0.032 A 
HETATM    9  C6  UNL     1      24.757  -0.209  53.284  1.00  0.00     0.035 A 
HETATM   10  C7  UNL     1      23.433  -0.123  53.574  1.00  0.00     0.072 A 
HETATM   11  N2  UNL     1      22.878  -0.973  54.459  1.00  0.00    -0.241 NA
HETATM   12  C14 UNL     1      22.680   0.843  52.950  1.00  0.00     0.041 A 
HETATM   13  C8  UNL     1      21.556  -0.903  54.764  1.00  0.00     0.235 A 
HETATM   14  N3  UNL     1      20.853   0.051  54.136  1.00  0.00    -0.224 NA
HETATM   15  C9  UNL     1      21.345   0.922  53.249  1.00  0.00     0.137 A 
HETATM   16  C15 UNL     1      23.245   1.711  52.047  1.00  0.00     0.047 A 
BRANCH  15  17
HETATM   17  N4  UNL     1      20.464   1.878  52.669  1.00  0.00    -0.371 N 
HETATM   18  H6  UNL     1      20.338   2.868  52.940  1.00  0.00     0.161 HD
BRANCH  17  19
HETATM   19  C10 UNL     1      19.616   1.508  51.574  1.00  0.00     0.149 C 
BRANCH  19  20
HETATM   20  C11 UNL     1      19.710   2.373  50.384  1.00  0.00     0.007 C 
HETATM   21  C12 UNL     1      20.422   2.128  49.293  1.00  0.00    -0.018 C 
HETATM   22  C13 UNL     1      21.211   0.866  49.234  1.00  0.00     0.056 C 
HETATM   23 BR1  UNL     1      20.370   3.419  47.885  1.00  0.00    -0.056 Br
ENDBRANCH  19  20
ENDBRANCH  17  19
ENDBRANCH  15  17
ENDBRANCH   5   7
TORSDOF 4
ENDMDL
MODEL 7
REMARK VINA RESULT:      -6.9      2.803      5.600
REMARK  4 active torsions:
REMARK  status: ('A' for Active; 'I' for Inactive)
REMARK       I    between atoms: C3_3  and  N1_5 
REMARK    1  A    between atoms: N1_5  and  C4_6 
REMARK    2  A    between atoms: C9_13  and  N4_14 
REMARK    3  A    between atoms: N4_14  and  C10_15 
REMARK    4  A    between atoms: C10_15  and  C11_16 
ROOT
HETATM    1  C1  UNL     1      18.585   3.587  51.469  1.00  0.00     0.022 C 
HETATM    2  C2  UNL     1      19.523   2.846  51.574  1.00  0.00    -0.016 C 
HETATM    3  C3  UNL     1      20.647   1.974  51.721  1.00  0.00     0.300 C 
HETATM    4  O1  UNL     1      20.860   1.166  50.788  1.00  0.00    -0.258 OA
HETATM    5  N1  UNL     1      21.529   1.955  52.827  1.00  0.00    -0.316 N 
HETATM    6  H2  UNL     1      21.238   2.672  53.525  1.00  0.00     0.170 HD
ENDROOT
BRANCH   5   7
HETATM    7  C4  UNL     1      22.660   1.142  53.071  1.00  0.00     0.036 A 
HETATM    8  C5  UNL     1      22.674  -0.135  53.575  1.00  0.00     0.032 A 
HETATM    9  C6  UNL     1      23.810  -0.885  53.792  1.00  0.00     0.035 A 
HETATM   10  C7  UNL     1      25.016  -0.335  53.492  1.00  0.00     0.072 A 
HETATM   11  N2  UNL     1      26.148  -1.037  53.691  1.00  0.00    -0.241 NA
HETATM   12  C14 UNL     1      25.053   0.942  52.985  1.00  0.00     0.041 A 
HETATM   13  C8  UNL     1      27.363  -0.507  53.397  1.00  0.00     0.235 A 
HETATM   14  N3  UNL     1      27.361   0.741  52.905  1.00  0.00    -0.224 NA
HETATM   15  C9  UNL     1      26.274   1.488  52.685  1.00  0.00     0.137 A 
HETATM   16  C15 UNL     1      23.899   1.660  52.781  1.00  0.00     0.047 A 
BRANCH  15  17
HETATM   17  N4  UNL     1      26.441   2.799  52.156  1.00  0.00    -0.371 N 
HETATM   18  H6  UNL     1      26.458   3.693  52.675  1.00  0.00     0.161 HD
BRANCH  17  19
HETATM   19  C10 UNL     1      26.611   2.994  50.746  1.00  0.00     0.149 C 
BRANCH  19  20
HETATM   20  C11 UNL     1      25.670   3.940  50.122  1.00  0.00     0.007 C 
HETATM   21  C12 UNL     1      25.967   4.851  49.205  1.00  0.00    -0.018 C 
HETATM   22  C13 UNL     1      27.379   4.949  48.742  1.00  0.00     0.056 C 
HETATM   23 BR1  UNL     1      24.553   5.960  48.557  1.00  0.00    -0.056 Br
ENDBRANCH  19  20
ENDBRANCH  17  19
ENDBRANCH  15  17
ENDBRANCH   5   7
TORSDOF 4
ENDMDL
MODEL 8
REMARK VINA RESULT:      -6.7      2.721      5.400
REMARK  4 active torsions:
REMARK  status: ('A' for Active; 'I' for Inactive)
REMARK       I    between atoms: C3_3  and  N1_5 
REMARK    1  A    between atoms: N1_5  and  C4_6 
REMARK    2  A    between atoms: C9_13  and  N4_14 
REMARK    3  A    between atoms: N4_14  and  C10_15 
REMARK    4  A    between atoms: C10_15  and  C11_16 
ROOT
HETATM    1  C1  UNL     1      19.755   3.075  47.767  1.00  0.00     0.022 C 
HETATM    2  C2  UNL     1      20.081   2.706  48.861  1.00  0.00    -0.016 C 
HETATM    3  C3  UNL     1      20.466   2.241  50.158  1.00  0.00     0.300 C 
HETATM    4  O1  UNL     1      20.690   3.116  51.027  1.00  0.00    -0.258 OA
HETATM    5  N1  UNL     1      20.612   0.884  50.532  1.00  0.00    -0.316 N 
HETATM    6  H2  UNL     1      20.397   0.268  49.719  1.00  0.00     0.170 HD
ENDROOT
BRANCH   5   7
HETATM    7  C4  UNL     1      20.984   0.321  51.774  1.00  0.00     0.036 A 
HETATM    8  C5  UNL     1      20.150  -0.171  52.748  1.00  0.00     0.032 A 
HETATM    9  C6  UNL     1      20.569  -0.711  53.944  1.00  0.00     0.035 A 
HETATM   10  C7  UNL     1      21.902  -0.770  54.198  1.00  0.00     0.072 A 
HETATM   11  N2  UNL     1      22.348  -1.292  55.357  1.00  0.00    -0.241 NA
HETATM   12  C14 UNL     1      22.777  -0.290  53.252  1.00  0.00     0.041 A 
HETATM   13  C8  UNL     1      23.677  -1.360  55.629  1.00  0.00     0.235 A 
HETATM   14  N3  UNL     1      24.500  -0.883  54.684  1.00  0.00    -0.224 NA
HETATM   15  C9  UNL     1      24.120  -0.354  53.516  1.00  0.00     0.137 A 
HETATM   16  C15 UNL     1      22.324   0.242  52.069  1.00  0.00     0.047 A 
BRANCH  15  17
HETATM   17  N4  UNL     1      25.121   0.110  52.618  1.00  0.00    -0.371 N 
HETATM   18  H6  UNL     1      25.434  -0.332  51.737  1.00  0.00     0.161 HD
BRANCH  17  19
HETATM   19  C10 UNL     1      25.830   1.326  52.890  1.00  0.00     0.149 C 
BRANCH  19  20
HETATM   20  C11 UNL     1      26.334   2.041  51.703  1.00  0.00     0.007 C 
HETATM   21  C12 UNL     1      25.698   2.992  51.034  1.00  0.00    -0.018 C 
HETATM   22  C13 UNL     1      24.344   3.399  51.502  1.00  0.00     0.056 C 
HETATM   23 BR1  UNL     1      26.579   3.761  49.522  1.00  0.00    -0.056 Br
ENDBRANCH  19  20
ENDBRANCH  17  19
ENDBRANCH  15  17
ENDBRANCH   5   7
TORSDOF 4
ENDMDL
MODEL 9
REMARK VINA RESULT:      -6.7      2.496      5.411
REMARK  4 active torsions:
REMARK  status: ('A' for Active; 'I' for Inactive)
REMARK       I    between atoms: C3_3  and  N1_5 
REMARK    1  A    between atoms: N1_5  and  C4_6 
REMARK    2  A    between atoms: C9_13  and  N4_14 
REMARK    3  A    between atoms: N4_14  and  C10_15 
REMARK    4  A    between atoms: C10_15  and  C11_16 
ROOT
HETATM    1  C1  UNL     1      17.932   0.228  51.659  1.00  0.00     0.022 C 
HETATM    2  C2  UNL     1      19.127   0.202  51.764  1.00  0.00    -0.016 C 
HETATM    3  C3  UNL     1      20.550   0.174  51.916  1.00  0.00     0.300 C 
HETATM    4  O1  UNL     1      21.228   0.131  50.863  1.00  0.00    -0.258 OA
HETATM    5  N1  UNL     1      21.242   0.192  53.149  1.00  0.00    -0.316 N 
HETATM    6  H2  UNL     1      20.561   0.228  53.938  1.00  0.00     0.170 HD
ENDROOT
BRANCH   5   7
HETATM    7  C4  UNL     1      22.631   0.168  53.409  1.00  0.00     0.036 A 
HETATM    8  C5  UNL     1      23.343  -0.824  54.038  1.00  0.00     0.032 A 
HETATM    9  C6  UNL     1      24.703  -0.796  54.265  1.00  0.00     0.035 A 
HETATM   10  C7  UNL     1      25.408   0.286  53.843  1.00  0.00     0.072 A 
HETATM   11  N2  UNL     1      26.738   0.348  54.048  1.00  0.00    -0.241 NA
HETATM   12  C14 UNL     1      24.739   1.305  53.208  1.00  0.00     0.041 A 
HETATM   13  C8  UNL     1      27.461   1.420  53.633  1.00  0.00     0.235 A 
HETATM   14  N3  UNL     1      26.775   2.395  53.017  1.00  0.00    -0.224 NA
HETATM   15  C9  UNL     1      25.459   2.392  52.785  1.00  0.00     0.137 A 
HETATM   16  C15 UNL     1      23.382   1.243  52.998  1.00  0.00     0.047 A 
BRANCH  15  17
HETATM   17  N4  UNL     1      24.880   3.507  52.117  1.00  0.00    -0.371 N 
HETATM   18  H6  UNL     1      24.287   4.250  52.525  1.00  0.00     0.161 HD
BRANCH  17  19
HETATM   19  C10 UNL     1      25.092   3.700  50.713  1.00  0.00     0.149 C 
BRANCH  19  20
HETATM   20  C11 UNL     1      24.184   2.948  49.829  1.00  0.00     0.007 C 
HETATM   21  C12 UNL     1      23.440   3.456  48.856  1.00  0.00    -0.018 C 
HETATM   22  C13 UNL     1      23.507   4.923  48.610  1.00  0.00     0.056 C 
HETATM   23 BR1  UNL     1      22.343   2.255  47.852  1.00  0.00    -0.056 Br
ENDBRANCH  19  20
ENDBRANCH  17  19
ENDBRANCH  15  17
ENDBRANCH   5   7
TORSDOF 4
ENDMDL
