MODEL 1
REMARK VINA RESULT:      -7.0      0.000      0.000
REMARK  6 active torsions:
REMARK  status: ('A' for Active; 'I' for Inactive)
REMARK    1  A    between atoms: O1_2  and  C2_3 
REMARK    2  A    between atoms: N1_6  and  C5_7 
REMARK    3  A    between atoms: C5_7  and  N2_8 
REMARK    4  A    between atoms: N2_8  and  C6_9 
REMARK    5  A    between atoms: C10_13  and  O2_14 
REMARK    6  A    between atoms: C12_16  and  O3_17 
ROOT
HETATM    1  N2  UNL     1      24.263  -0.585  53.994  1.00  0.00    -0.365 N 
HETATM    2  H9  UNL     1      23.797  -1.322  54.602  1.00  0.00     0.161 HD
ENDROOT
BRANCH   1   3
HETATM    3  C5  UNL     1      25.704  -0.469  53.927  1.00  0.00     0.396 C 
BRANCH   3   4
HETATM    4  N1  UNL     1      26.175  -0.896  52.651  1.00  0.00     0.112 N 
HETATM    5  C4  UNL     1      26.700   0.155  51.833  1.00  0.00     0.304 C 
HETATM    6  C3  UNL     1      27.432   1.087  52.762  1.00  0.00     0.035 C 
HETATM    7  C2  UNL     1      28.592   1.139  53.403  1.00  0.00     0.047 C 
HETATM    8  C18 UNL     1      29.761   0.240  53.494  1.00  0.00     0.091 C 
HETATM    9  C17 UNL     1      29.435  -1.191  53.364  1.00  0.00    -0.022 C 
HETATM   10  C16 UNL     1      28.367  -1.923  53.072  1.00  0.00    -0.001 C 
HETATM   11  C15 UNL     1      26.958  -2.074  52.715  1.00  0.00     0.302 C 
BRANCH   7  12
HETATM   12  O1  UNL     1      28.803   2.293  54.186  1.00  0.00    -0.360 OA
HETATM   13  C1  UNL     1      29.956   2.208  55.031  1.00  0.00     0.209 C 
ENDBRANCH   7  12
ENDBRANCH   3   4
ENDBRANCH   1   3
BRANCH   1  14
HETATM   14  C6  UNL     1      23.394   0.261  53.264  1.00  0.00     0.032 A 
HETATM   15  C7  UNL     1      23.640   1.623  53.080  1.00  0.00     0.039 A 
HETATM   16  C8  UNL     1      22.823   2.469  52.383  1.00  0.00    -0.024 A 
HETATM   17  C9  UNL     1      23.223   3.907  52.273  1.00  0.00     0.051 C 
HETATM   18  C10 UNL     1      21.661   1.965  51.806  1.00  0.00     0.107 A 
HETATM   19  C12 UNL     1      21.373   0.618  51.961  1.00  0.00     0.104 A 
HETATM   20  C14 UNL     1      22.238  -0.185  52.678  1.00  0.00     0.068 A 
BRANCH  18  21
HETATM   21  O2  UNL     1      20.906   2.906  51.123  1.00  0.00    -0.353 OA
HETATM   22  C11 UNL     1      19.792   3.574  51.672  1.00  0.00     0.210 C 
ENDBRANCH  18  21
BRANCH  19  23
HETATM   23  O3  UNL     1      20.203   0.195  51.360  1.00  0.00    -0.353 OA
HETATM   24  C13 UNL     1      18.999  -0.049  52.062  1.00  0.00     0.210 C 
ENDBRANCH  19  23
ENDBRANCH   1  14
TORSDOF 6
ENDMDL
MODEL 2
REMARK VINA RESULT:      -7.0      1.952      3.248
REMARK  6 active torsions:
REMARK  status: ('A' for Active; 'I' for Inactive)
REMARK    1  A    between atoms: O1_2  and  C2_3 
REMARK    2  A    between atoms: N1_6  and  C5_7 
REMARK    3  A    between atoms: C5_7  and  N2_8 
REMARK    4  A    between atoms: N2_8  and  C6_9 
REMARK    5  A    between atoms: C10_13  and  O2_14 
REMARK    6  A    between atoms: C12_16  and  O3_17 
ROOT
HETATM    1  N2  UNL     1      25.252   2.258  51.936  1.00  0.00    -0.365 N 
HETATM    2  H9  UNL     1      25.321   3.294  51.704  1.00  0.00     0.161 HD
ENDROOT
BRANCH   1   3
HETATM    3  C5  UNL     1      26.425   1.491  52.295  1.00  0.00     0.396 C 
BRANCH   3   4
HETATM    4  N1  UNL     1      26.831   1.804  53.626  1.00  0.00     0.112 N 
HETATM    5  C4  UNL     1      26.584   0.764  54.579  1.00  0.00     0.304 C 
HETATM    6  C3  UNL     1      26.862  -0.534  53.869  1.00  0.00     0.035 C 
HETATM    7  C2  UNL     1      27.911  -1.257  53.499  1.00  0.00     0.047 C 
HETATM    8  C18 UNL     1      29.374  -1.094  53.629  1.00  0.00     0.091 C 
HETATM    9  C17 UNL     1      29.828   0.308  53.629  1.00  0.00    -0.022 C 
HETATM   10  C16 UNL     1      29.270   1.512  53.652  1.00  0.00    -0.001 C 
HETATM   11  C15 UNL     1      28.112   2.403  53.688  1.00  0.00     0.302 C 
BRANCH   7  12
HETATM   12  O1  UNL     1      27.614  -2.460  52.825  1.00  0.00    -0.360 OA
HETATM   13  C1  UNL     1      26.495  -2.357  51.937  1.00  0.00     0.209 C 
ENDBRANCH   7  12
ENDBRANCH   3   4
ENDBRANCH   1   3
BRANCH   1  14
HETATM   14  C6  UNL     1      23.957   1.690  51.871  1.00  0.00     0.032 A 
HETATM   15  C7  UNL     1      23.196   1.669  50.701  1.00  0.00     0.039 A 
HETATM   16  C8  UNL     1      21.944   1.130  50.603  1.00  0.00    -0.024 A 
HETATM   17  C9  UNL     1      21.254   1.182  49.275  1.00  0.00     0.051 C 
HETATM   18  C10 UNL     1      21.364   0.556  51.730  1.00  0.00     0.107 A 
HETATM   19  C12 UNL     1      22.080   0.553  52.917  1.00  0.00     0.104 A 
HETATM   20  C14 UNL     1      23.341   1.114  52.951  1.00  0.00     0.068 A 
BRANCH  18  21
HETATM   21  O2  UNL     1      20.094   0.040  51.521  1.00  0.00    -0.353 OA
HETATM   22  C11 UNL     1      18.903   0.702  51.885  1.00  0.00     0.210 C 
ENDBRANCH  18  21
BRANCH  19  23
HETATM   23  O3  UNL     1      21.436  -0.034  53.989  1.00  0.00    -0.353 OA
HETATM   24  C13 UNL     1      22.062  -0.925  54.893  1.00  0.00     0.210 C 
ENDBRANCH  19  23
ENDBRANCH   1  14
TORSDOF 6
ENDMDL
MODEL 3
REMARK VINA RESULT:      -7.0      0.897      2.258
REMARK  6 active torsions:
REMARK  status: ('A' for Active; 'I' for Inactive)
REMARK    1  A    between atoms: O1_2  and  C2_3 
REMARK    2  A    between atoms: N1_6  and  C5_7 
REMARK    3  A    between atoms: C5_7  and  N2_8 
REMARK    4  A    between atoms: N2_8  and  C6_9 
REMARK    5  A    between atoms: C10_13  and  O2_14 
REMARK    6  A    between atoms: C12_16  and  O3_17 
ROOT
HETATM    1  N2  UNL     1      24.352  -0.950  54.032  1.00  0.00    -0.365 N 
HETATM    2  H9  UNL     1      24.120  -1.879  54.492  1.00  0.00     0.161 HD
ENDROOT
BRANCH   1   3
HETATM    3  C5  UNL     1      25.722  -0.512  53.875  1.00  0.00     0.396 C 
BRANCH   3   4
HETATM    4  N1  UNL     1      26.231  -0.927  52.608  1.00  0.00     0.112 N 
HETATM    5  C4  UNL     1      26.787   0.130  51.820  1.00  0.00     0.304 C 
HETATM    6  C3  UNL     1      27.495   1.047  52.782  1.00  0.00     0.035 C 
HETATM    7  C2  UNL     1      28.635   1.084  53.460  1.00  0.00     0.047 C 
HETATM    8  C18 UNL     1      29.796   0.177  53.577  1.00  0.00     0.091 C 
HETATM    9  C17 UNL     1      29.465  -1.250  53.419  1.00  0.00    -0.022 C 
HETATM   10  C16 UNL     1      28.402  -1.972  53.086  1.00  0.00    -0.001 C 
HETATM   11  C15 UNL     1      27.005  -2.110  52.683  1.00  0.00     0.302 C 
BRANCH   7  12
HETATM   12  O1  UNL     1      28.828   2.228  54.263  1.00  0.00    -0.360 OA
HETATM   13  C1  UNL     1      30.081   2.235  54.957  1.00  0.00     0.209 C 
ENDBRANCH   7  12
ENDBRANCH   3   4
ENDBRANCH   1   3
BRANCH   1  14
HETATM   14  C6  UNL     1      23.249  -0.181  53.589  1.00  0.00     0.032 A 
HETATM   15  C7  UNL     1      21.928  -0.621  53.691  1.00  0.00     0.039 A 
HETATM   16  C8  UNL     1      20.841   0.093  53.274  1.00  0.00    -0.024 A 
HETATM   17  C9  UNL     1      19.484  -0.515  53.451  1.00  0.00     0.051 C 
HETATM   18  C10 UNL     1      21.033   1.349  52.707  1.00  0.00     0.107 A 
HETATM   19  C12 UNL     1      22.327   1.832  52.584  1.00  0.00     0.104 A 
HETATM   20  C14 UNL     1      23.384   1.061  53.024  1.00  0.00     0.068 A 
BRANCH  18  21
HETATM   21  O2  UNL     1      19.865   1.989  52.320  1.00  0.00    -0.353 OA
HETATM   22  C11 UNL     1      19.383   2.016  50.995  1.00  0.00     0.210 C 
ENDBRANCH  18  21
BRANCH  19  23
HETATM   23  O3  UNL     1      22.434   3.084  52.012  1.00  0.00    -0.353 OA
HETATM   24  C13 UNL     1      23.238   4.125  52.536  1.00  0.00     0.210 C 
ENDBRANCH  19  23
ENDBRANCH   1  14
TORSDOF 6
ENDMDL
MODEL 4
REMARK VINA RESULT:      -6.9      3.230      7.251
REMARK  6 active torsions:
REMARK  status: ('A' for Active; 'I' for Inactive)
REMARK    1  A    between atoms: O1_2  and  C2_3 
REMARK    2  A    between atoms: N1_6  and  C5_7 
REMARK    3  A    between atoms: C5_7  and  N2_8 
REMARK    4  A    between atoms: N2_8  and  C6_9 
REMARK    5  A    between atoms: C10_13  and  O2_14 
REMARK    6  A    between atoms: C12_16  and  O3_17 
ROOT
HETATM    1  N2  UNL     1      24.534   2.334  52.451  1.00  0.00    -0.365 N 
HETATM    2  H9  UNL     1      23.579   2.164  52.887  1.00  0.00     0.161 HD
ENDROOT
BRANCH   1   3
HETATM    3  C5  UNL     1      24.747   3.408  51.506  1.00  0.00     0.396 C 
BRANCH   3   4
HETATM    4  N1  UNL     1      25.015   2.880  50.209  1.00  0.00     0.112 N 
HETATM    5  C4  UNL     1      24.045   3.230  49.216  1.00  0.00     0.304 C 
HETATM    6  C3  UNL     1      23.636   4.649  49.508  1.00  0.00     0.035 C 
HETATM    7  C2  UNL     1      24.113   5.875  49.333  1.00  0.00     0.047 C 
HETATM    8  C18 UNL     1      25.346   6.426  48.732  1.00  0.00     0.091 C 
HETATM    9  C17 UNL     1      26.522   5.547  48.854  1.00  0.00    -0.022 C 
HETATM   10  C16 UNL     1      26.776   4.312  49.270  1.00  0.00    -0.001 C 
HETATM   11  C15 UNL     1      26.370   3.022  49.822  1.00  0.00     0.302 C 
BRANCH   7  12
HETATM   12  O1  UNL     1      23.296   6.920  49.812  1.00  0.00    -0.360 OA
HETATM   13  C1  UNL     1      22.209   6.468  50.628  1.00  0.00     0.209 C 
ENDBRANCH   7  12
ENDBRANCH   3   4
ENDBRANCH   1   3
BRANCH   1  14
HETATM   14  C6  UNL     1      25.566   1.452  52.851  1.00  0.00     0.032 A 
HETATM   15  C7  UNL     1      25.657   0.135  52.398  1.00  0.00     0.039 A 
HETATM   16  C8  UNL     1      26.639  -0.743  52.764  1.00  0.00    -0.024 A 
HETATM   17  C9  UNL     1      26.601  -2.125  52.190  1.00  0.00     0.051 C 
HETATM   18  C10 UNL     1      27.629  -0.322  53.646  1.00  0.00     0.107 A 
HETATM   19  C12 UNL     1      27.582   0.979  54.125  1.00  0.00     0.104 A 
HETATM   20  C14 UNL     1      26.563   1.817  53.718  1.00  0.00     0.068 A 
BRANCH  18  21
HETATM   21  O2  UNL     1      28.575  -1.289  53.950  1.00  0.00    -0.353 OA
HETATM   22  C11 UNL     1      29.872  -1.323  53.398  1.00  0.00     0.210 C 
ENDBRANCH  18  21
BRANCH  19  23
HETATM   23  O3  UNL     1      28.599   1.320  54.996  1.00  0.00    -0.353 OA
HETATM   24  C13 UNL     1      29.714   2.112  54.635  1.00  0.00     0.210 C 
ENDBRANCH  19  23
ENDBRANCH   1  14
TORSDOF 6
ENDMDL
MODEL 5
REMARK VINA RESULT:      -6.9      1.899      7.486
REMARK  6 active torsions:
REMARK  status: ('A' for Active; 'I' for Inactive)
REMARK    1  A    between atoms: O1_2  and  C2_3 
REMARK    2  A    between atoms: N1_6  and  C5_7 
REMARK    3  A    between atoms: C5_7  and  N2_8 
REMARK    4  A    between atoms: N2_8  and  C6_9 
REMARK    5  A    between atoms: C10_13  and  O2_14 
REMARK    6  A    between atoms: C12_16  and  O3_17 
ROOT
HETATM    1  N2  UNL     1      25.273   2.913  52.167  1.00  0.00    -0.365 N 
HETATM    2  H9  UNL     1      25.747   3.682  51.605  1.00  0.00     0.161 HD
ENDROOT
BRANCH   1   3
HETATM    3  C5  UNL     1      23.850   2.938  52.422  1.00  0.00     0.396 C 
BRANCH   3   4
HETATM    4  N1  UNL     1      23.137   3.223  51.220  1.00  0.00     0.112 N 
HETATM    5  C4  UNL     1      22.790   2.066  50.451  1.00  0.00     0.304 C 
HETATM    6  C3  UNL     1      22.427   0.994  51.443  1.00  0.00     0.035 C 
HETATM    7  C2  UNL     1      21.400   0.666  52.217  1.00  0.00     0.047 C 
HETATM    8  C18 UNL     1      20.067   1.252  52.465  1.00  0.00     0.091 C 
HETATM    9  C17 UNL     1      20.015   2.718  52.324  1.00  0.00    -0.022 C 
HETATM   10  C16 UNL     1      20.829   3.686  51.921  1.00  0.00    -0.001 C 
HETATM   11  C15 UNL     1      22.104   4.174  51.400  1.00  0.00     0.302 C 
BRANCH   7  12
HETATM   12  O1  UNL     1      21.574  -0.496  52.998  1.00  0.00    -0.360 OA
HETATM   13  C1  UNL     1      22.848  -0.562  53.650  1.00  0.00     0.209 C 
ENDBRANCH   7  12
ENDBRANCH   3   4
ENDBRANCH   1   3
BRANCH   1  14
HETATM   14  C6  UNL     1      26.116   1.878  52.639  1.00  0.00     0.032 A 
HETATM   15  C7  UNL     1      26.012   0.556  52.202  1.00  0.00     0.039 A 
HETATM   16  C8  UNL     1      26.808  -0.467  52.636  1.00  0.00    -0.024 A 
HETATM   17  C9  UNL     1      26.574  -1.833  52.071  1.00  0.00     0.051 C 
HETATM   18  C10 UNL     1      27.798  -0.201  53.578  1.00  0.00     0.107 A 
HETATM   19  C12 UNL     1      27.941   1.097  54.043  1.00  0.00     0.104 A 
HETATM   20  C14 UNL     1      27.105   2.086  53.565  1.00  0.00     0.068 A 
BRANCH  18  21
HETATM   21  O2  UNL     1      28.547  -1.307  53.948  1.00  0.00    -0.353 OA
HETATM   22  C11 UNL     1      29.861  -1.556  53.499  1.00  0.00     0.210 C 
ENDBRANCH  18  21
BRANCH  19  23
HETATM   23  O3  UNL     1      28.944   1.278  54.975  1.00  0.00    -0.353 OA
HETATM   24  C13 UNL     1      29.998   2.211  54.827  1.00  0.00     0.210 C 
ENDBRANCH  19  23
ENDBRANCH   1  14
TORSDOF 6
ENDMDL
MODEL 6
REMARK VINA RESULT:      -6.9      1.827      7.332
REMARK  6 active torsions:
REMARK  status: ('A' for Active; 'I' for Inactive)
REMARK    1  A    between atoms: O1_2  and  C2_3 
REMARK    2  A    between atoms: N1_6  and  C5_7 
REMARK    3  A    between atoms: C5_7  and  N2_8 
REMARK    4  A    between atoms: N2_8  and  C6_9 
REMARK    5  A    between atoms: C10_13  and  O2_14 
REMARK    6  A    between atoms: C12_16  and  O3_17 
ROOT
HETATM    1  N2  UNL     1      23.000  -0.773  53.377  1.00  0.00    -0.365 N 
HETATM    2  H9  UNL     1      22.935  -1.506  54.144  1.00  0.00     0.161 HD
ENDROOT
BRANCH   1   3
HETATM    3  C5  UNL     1      21.850  -0.426  52.572  1.00  0.00     0.396 C 
BRANCH   3   4
HETATM    4  N1  UNL     1      20.898   0.293  53.354  1.00  0.00     0.112 N 
HETATM    5  C4  UNL     1      20.628   1.619  52.886  1.00  0.00     0.304 C 
HETATM    6  C3  UNL     1      20.638   1.545  51.382  1.00  0.00     0.035 C 
HETATM    7  C2  UNL     1      19.838   1.142  50.404  1.00  0.00     0.047 C 
HETATM    8  C18 UNL     1      18.487   0.544  50.356  1.00  0.00     0.091 C 
HETATM    9  C17 UNL     1      18.157  -0.295  51.521  1.00  0.00    -0.022 C 
HETATM   10  C16 UNL     1      18.704  -0.593  52.693  1.00  0.00    -0.001 C 
HETATM   11  C15 UNL     1      19.763  -0.481  53.694  1.00  0.00     0.302 C 
BRANCH   7  12
HETATM   12  O1  UNL     1      20.347   1.299  49.097  1.00  0.00    -0.360 OA
HETATM   13  C1  UNL     1      21.771   1.446  49.052  1.00  0.00     0.209 C 
ENDBRANCH   7  12
ENDBRANCH   3   4
ENDBRANCH   1   3
BRANCH   1  14
HETATM   14  C6  UNL     1      24.268  -0.169  53.200  1.00  0.00     0.032 A 
HETATM   15  C7  UNL     1      24.459   0.983  52.434  1.00  0.00     0.039 A 
HETATM   16  C8  UNL     1      25.667   1.592  52.241  1.00  0.00    -0.024 A 
HETATM   17  C9  UNL     1      25.711   2.824  51.391  1.00  0.00     0.051 C 
HETATM   18  C10 UNL     1      26.801   1.050  52.838  1.00  0.00     0.107 A 
HETATM   19  C12 UNL     1      26.663  -0.094  53.610  1.00  0.00     0.104 A 
HETATM   20  C14 UNL     1      25.415  -0.663  53.765  1.00  0.00     0.068 A 
BRANCH  18  21
HETATM   21  O2  UNL     1      27.973   1.745  52.580  1.00  0.00    -0.353 OA
HETATM   22  C11 UNL     1      28.668   2.504  53.544  1.00  0.00     0.210 C 
ENDBRANCH  18  21
BRANCH  19  23
HETATM   23  O3  UNL     1      27.834  -0.570  54.168  1.00  0.00    -0.353 OA
HETATM   24  C13 UNL     1      28.779  -1.356  53.467  1.00  0.00     0.210 C 
ENDBRANCH  19  23
ENDBRANCH   1  14
TORSDOF 6
ENDMDL
MODEL 7
REMARK VINA RESULT:      -6.8      2.086      7.178
REMARK  6 active torsions:
REMARK  status: ('A' for Active; 'I' for Inactive)
REMARK    1  A    between atoms: O1_2  and  C2_3 
REMARK    2  A    between atoms: N1_6  and  C5_7 
REMARK    3  A    between atoms: C5_7  and  N2_8 
REMARK    4  A    between atoms: N2_8  and  C6_9 
REMARK    5  A    between atoms: C10_13  and  O2_14 
REMARK    6  A    between atoms: C12_16  and  O3_17 
ROOT
HETATM    1  N2  UNL     1      25.271   3.115  52.565  1.00  0.00    -0.365 N 
HETATM    2  H9  UNL     1      25.709   3.993  52.156  1.00  0.00     0.161 HD
ENDROOT
BRANCH   1   3
HETATM    3  C5  UNL     1      23.835   2.957  52.638  1.00  0.00     0.396 C 
BRANCH   3   4
HETATM    4  N1  UNL     1      23.253   3.126  51.346  1.00  0.00     0.112 N 
HETATM    5  C4  UNL     1      22.926   1.901  50.682  1.00  0.00     0.304 C 
HETATM    6  C3  UNL     1      22.419   0.965  51.747  1.00  0.00     0.035 C 
HETATM    7  C2  UNL     1      21.310   0.768  52.447  1.00  0.00     0.047 C 
HETATM    8  C18 UNL     1      19.988   1.427  52.494  1.00  0.00     0.091 C 
HETATM    9  C17 UNL     1      20.021   2.868  52.185  1.00  0.00    -0.022 C 
HETATM   10  C16 UNL     1      20.914   3.752  51.758  1.00  0.00    -0.001 C 
HETATM   11  C15 UNL     1      22.255   4.128  51.315  1.00  0.00     0.302 C 
BRANCH   7  12
HETATM   12  O1  UNL     1      21.354  -0.301  53.368  1.00  0.00    -0.360 OA
HETATM   13  C1  UNL     1      22.514  -1.129  53.229  1.00  0.00     0.209 C 
ENDBRANCH   7  12
ENDBRANCH   3   4
ENDBRANCH   1   3
BRANCH   1  14
HETATM   14  C6  UNL     1      26.173   2.126  53.026  1.00  0.00     0.032 A 
HETATM   15  C7  UNL     1      27.424   2.432  53.565  1.00  0.00     0.039 A 
HETATM   16  C8  UNL     1      28.319   1.504  54.018  1.00  0.00    -0.024 A 
HETATM   17  C9  UNL     1      29.622   1.990  54.571  1.00  0.00     0.051 C 
HETATM   18  C10 UNL     1      27.986   0.155  53.951  1.00  0.00     0.107 A 
HETATM   19  C12 UNL     1      26.754  -0.201  53.423  1.00  0.00     0.104 A 
HETATM   20  C14 UNL     1      25.894   0.785  52.981  1.00  0.00     0.068 A 
BRANCH  18  21
HETATM   21  O2  UNL     1      28.963  -0.701  54.437  1.00  0.00    -0.353 OA
HETATM   22  C11 UNL     1      29.985  -1.263  53.644  1.00  0.00     0.210 C 
ENDBRANCH  18  21
BRANCH  19  23
HETATM   23  O3  UNL     1      26.500  -1.558  53.391  1.00  0.00    -0.353 OA
HETATM   24  C13 UNL     1      26.771  -2.385  52.275  1.00  0.00     0.210 C 
ENDBRANCH  19  23
ENDBRANCH   1  14
TORSDOF 6
ENDMDL
MODEL 8
REMARK VINA RESULT:      -6.8      1.809      3.392
REMARK  6 active torsions:
REMARK  status: ('A' for Active; 'I' for Inactive)
REMARK    1  A    between atoms: O1_2  and  C2_3 
REMARK    2  A    between atoms: N1_6  and  C5_7 
REMARK    3  A    between atoms: C5_7  and  N2_8 
REMARK    4  A    between atoms: N2_8  and  C6_9 
REMARK    5  A    between atoms: C10_13  and  O2_14 
REMARK    6  A    between atoms: C12_16  and  O3_17 
ROOT
HETATM    1  N2  UNL     1      25.709   2.534  52.185  1.00  0.00    -0.365 N 
HETATM    2  H9  UNL     1      25.893   3.532  51.868  1.00  0.00     0.161 HD
ENDROOT
BRANCH   1   3
HETATM    3  C5  UNL     1      26.796   1.616  52.444  1.00  0.00     0.396 C 
BRANCH   3   4
HETATM    4  N1  UNL     1      27.304   1.811  53.762  1.00  0.00     0.112 N 
HETATM    5  C4  UNL     1      26.976   0.764  54.682  1.00  0.00     0.304 C 
HETATM    6  C3  UNL     1      27.054  -0.522  53.902  1.00  0.00     0.035 C 
HETATM    7  C2  UNL     1      27.985  -1.349  53.444  1.00  0.00     0.047 C 
HETATM    8  C18 UNL     1      29.462  -1.373  53.500  1.00  0.00     0.091 C 
HETATM    9  C17 UNL     1      30.087  -0.039  53.535  1.00  0.00    -0.022 C 
HETATM   10  C16 UNL     1      29.685   1.222  53.641  1.00  0.00    -0.001 C 
HETATM   11  C15 UNL     1      28.651   2.245  53.779  1.00  0.00     0.302 C 
BRANCH   7  12
HETATM   12  O1  UNL     1      27.507  -2.472  52.737  1.00  0.00    -0.360 OA
HETATM   13  C1  UNL     1      26.341  -2.199  51.951  1.00  0.00     0.209 C 
ENDBRANCH   7  12
ENDBRANCH   3   4
ENDBRANCH   1   3
BRANCH   1  14
HETATM   14  C6  UNL     1      24.348   2.170  52.334  1.00  0.00     0.032 A 
HETATM   15  C7  UNL     1      23.939   0.864  52.609  1.00  0.00     0.039 A 
HETATM   16  C8  UNL     1      22.637   0.478  52.759  1.00  0.00    -0.024 A 
HETATM   17  C9  UNL     1      22.356  -0.963  53.052  1.00  0.00     0.051 C 
HETATM   18  C10 UNL     1      21.630   1.430  52.636  1.00  0.00     0.107 A 
HETATM   19  C12 UNL     1      21.986   2.743  52.364  1.00  0.00     0.104 A 
HETATM   20  C14 UNL     1      23.320   3.069  52.223  1.00  0.00     0.068 A 
BRANCH  18  21
HETATM   21  O2  UNL     1      20.347   0.933  52.807  1.00  0.00    -0.353 OA
HETATM   22  C11 UNL     1      19.474   0.621  51.744  1.00  0.00     0.210 C 
ENDBRANCH  18  21
BRANCH  19  23
HETATM   23  O3  UNL     1      20.930   3.627  52.257  1.00  0.00    -0.353 OA
HETATM   24  C13 UNL     1      20.606   4.329  51.072  1.00  0.00     0.210 C 
ENDBRANCH  19  23
ENDBRANCH   1  14
TORSDOF 6
ENDMDL
MODEL 9
REMARK VINA RESULT:      -6.7      4.464      6.719
REMARK  6 active torsions:
REMARK  status: ('A' for Active; 'I' for Inactive)
REMARK    1  A    between atoms: O1_2  and  C2_3 
REMARK    2  A    between atoms: N1_6  and  C5_7 
REMARK    3  A    between atoms: C5_7  and  N2_8 
REMARK    4  A    between atoms: N2_8  and  C6_9 
REMARK    5  A    between atoms: C10_13  and  O2_14 
REMARK    6  A    between atoms: C12_16  and  O3_17 
ROOT
HETATM    1  N2  UNL     1      25.879   3.036  49.700  1.00  0.00    -0.365 N 
HETATM    2  H9  UNL     1      26.244   2.323  49.002  1.00  0.00     0.161 HD
ENDROOT
BRANCH   1   3
HETATM    3  C5  UNL     1      25.074   2.634  50.833  1.00  0.00     0.396 C 
BRANCH   3   4
HETATM    4  N1  UNL     1      25.853   2.661  52.027  1.00  0.00     0.112 N 
HETATM    5  C4  UNL     1      25.086   2.781  53.230  1.00  0.00     0.304 C 
HETATM    6  C3  UNL     1      23.843   1.958  53.022  1.00  0.00     0.035 C 
HETATM    7  C2  UNL     1      23.487   0.680  53.039  1.00  0.00     0.047 C 
HETATM    8  C18 UNL     1      24.204  -0.588  53.286  1.00  0.00     0.091 C 
HETATM    9  C17 UNL     1      25.621  -0.569  52.883  1.00  0.00    -0.022 C 
HETATM   10  C16 UNL     1      26.496   0.327  52.443  1.00  0.00    -0.001 C 
HETATM   11  C15 UNL     1      26.875   1.681  52.045  1.00  0.00     0.302 C 
BRANCH   7  12
HETATM   12  O1  UNL     1      22.127   0.424  52.765  1.00  0.00    -0.360 OA
HETATM   13  C1  UNL     1      21.325   0.268  53.941  1.00  0.00     0.209 C 
ENDBRANCH   7  12
ENDBRANCH   3   4
ENDBRANCH   1   3
BRANCH   1  14
HETATM   14  C6  UNL     1      26.230   4.386  49.453  1.00  0.00     0.032 A 
HETATM   15  C7  UNL     1      27.397   4.755  48.782  1.00  0.00     0.039 A 
HETATM   16  C8  UNL     1      27.767   6.046  48.527  1.00  0.00    -0.024 A 
HETATM   17  C9  UNL     1      29.051   6.282  47.795  1.00  0.00     0.051 C 
HETATM   18  C10 UNL     1      26.941   7.083  48.952  1.00  0.00     0.107 A 
HETATM   19  C12 UNL     1      25.769   6.767  49.622  1.00  0.00     0.104 A 
HETATM   20  C14 UNL     1      25.453   5.442  49.850  1.00  0.00     0.068 A 
BRANCH  18  21
HETATM   21  O2  UNL     1      27.408   8.351  48.641  1.00  0.00    -0.353 OA
HETATM   22  C11 UNL     1      28.010   9.220  49.575  1.00  0.00     0.210 C 
ENDBRANCH  18  21
BRANCH  19  23
HETATM   23  O3  UNL     1      25.006   7.850  50.010  1.00  0.00    -0.353 OA
HETATM   24  C13 UNL     1      23.861   7.753  50.837  1.00  0.00     0.210 C 
ENDBRANCH  19  23
ENDBRANCH   1  14
TORSDOF 6
ENDMDL
