MODEL 1
REMARK VINA RESULT:      -8.4      0.000      0.000
REMARK  5 active torsions:
REMARK  status: ('A' for Active; 'I' for Inactive)
REMARK    1  A    between atoms: C3_3  and  C4_4 
REMARK    2  A    between atoms: C5_5  and  C6_7 
REMARK    3  A    between atoms: C6_7  and  C7_8 
REMARK    4  A    between atoms: C7_8  and  C8_9 
REMARK    5  A    between atoms: C12_14  and  N2_15 
ROOT
HETATM    1  C8  UNL     1      26.045   2.183  51.482  1.00  0.00    -0.068 C 
HETATM    2  C9  UNL     1      24.867   1.454  51.503  1.00  0.00     0.020 C 
HETATM    3  C10 UNL     1      24.331   0.565  52.581  1.00  0.00     0.028 A 
HETATM    4  C11 UNL     1      22.963   0.831  52.567  1.00  0.00     0.135 A 
HETATM    5  N1  UNL     1      22.004   0.297  53.390  1.00  0.00    -0.230 NA
HETATM    6  C12 UNL     1      22.464  -0.578  54.302  1.00  0.00     0.201 A 
HETATM    7  N3  UNL     1      23.771  -0.854  54.340  1.00  0.00    -0.200 NA
HETATM    8  C13 UNL     1      24.696  -0.328  53.534  1.00  0.00     0.142 A 
HETATM    9  N4  UNL     1      25.954  -0.957  54.004  1.00  0.00    -0.344 N 
HETATM   10  C14 UNL     1      27.098  -0.070  54.093  1.00  0.00     0.007 C 
HETATM   11  C15 UNL     1      28.197   0.774  54.263  1.00  0.00    -0.001 C 
HETATM   12  C16 UNL     1      28.132   2.184  53.548  1.00  0.00     0.044 C 
HETATM   13  C17 UNL     1      27.170   2.279  52.439  1.00  0.00     0.003 C 
HETATM   14  C18 UNL     1      26.437   1.494  53.109  1.00  0.00     0.011 C 
HETATM   15  C19 UNL     1      27.062   0.140  52.607  1.00  0.00     0.062 C 
HETATM   16  H15 UNL     1      26.136  -1.929  54.268  1.00  0.00     0.167 HD
ENDROOT
BRANCH   1  17
HETATM   17  C7  UNL     1      26.469   3.026  50.379  1.00  0.00     0.040 C 
BRANCH  17  18
HETATM   18  C6  UNL     1      25.297   3.399  49.466  1.00  0.00     0.055 C 
BRANCH  18  19
HETATM   19  C5  UNL     1      24.976   4.832  49.752  1.00  0.00     0.012 C 
HETATM   20  C4  UNL     1      23.878   5.295  50.291  1.00  0.00     0.019 C 
HETATM   21 CL1  UNL     1      26.360   5.800  49.228  1.00  0.00    -0.089 Cl
BRANCH  20  22
HETATM   22  C3  UNL     1      22.701   4.565  50.746  1.00  0.00    -0.003 C 
HETATM   23  C2  UNL     1      22.525   4.289  52.039  1.00  0.00    -0.031 C 
HETATM   24  C1  UNL     1      23.623   4.793  52.911  1.00  0.00     0.036 C 
ENDBRANCH  20  22
ENDBRANCH  18  19
ENDBRANCH  17  18
ENDBRANCH   1  17
BRANCH   6  25
HETATM   25  N2  UNL     1      21.469  -1.124  55.156  1.00  0.00    -0.271 NA
HETATM   26  H13 UNL     1      20.770  -1.740  54.658  1.00  0.00     0.127 HD
HETATM   27  H14 UNL     1      20.761  -1.741  54.680  1.00  0.00     0.127 HD
ENDBRANCH   6  25
TORSDOF 5
ENDMDL
MODEL 2
REMARK VINA RESULT:      -8.3      3.163      5.366
REMARK  5 active torsions:
REMARK  status: ('A' for Active; 'I' for Inactive)
REMARK    1  A    between atoms: C3_3  and  C4_4 
REMARK    2  A    between atoms: C5_5  and  C6_7 
REMARK    3  A    between atoms: C6_7  and  C7_8 
REMARK    4  A    between atoms: C7_8  and  C8_9 
REMARK    5  A    between atoms: C12_14  and  N2_15 
ROOT
HETATM    1  C8  UNL     1      23.224   1.399  52.905  1.00  0.00    -0.068 C 
HETATM    2  C9  UNL     1      24.430   0.788  53.206  1.00  0.00     0.020 C 
HETATM    3  C10 UNL     1      25.816   1.341  53.098  1.00  0.00     0.028 A 
HETATM    4  C11 UNL     1      26.454   0.837  54.229  1.00  0.00     0.135 A 
HETATM    5  N1  UNL     1      27.746   1.070  54.630  1.00  0.00    -0.230 NA
HETATM    6  C12 UNL     1      28.452   1.878  53.819  1.00  0.00     0.201 A 
HETATM    7  N3  UNL     1      27.868   2.378  52.725  1.00  0.00    -0.200 NA
HETATM    8  C13 UNL     1      26.610   2.144  52.346  1.00  0.00     0.142 A 
HETATM    9  N4  UNL     1      26.480   2.933  51.096  1.00  0.00    -0.344 N 
HETATM   10  C14 UNL     1      25.235   3.662  50.948  1.00  0.00     0.007 C 
HETATM   11  C15 UNL     1      24.082   4.436  50.810  1.00  0.00    -0.001 C 
HETATM   12  C16 UNL     1      22.863   4.076  51.754  1.00  0.00     0.044 C 
HETATM   13  C17 UNL     1      22.897   2.723  52.330  1.00  0.00     0.003 C 
HETATM   14  C18 UNL     1      24.155   2.857  52.375  1.00  0.00     0.011 C 
HETATM   15  C19 UNL     1      24.472   2.369  50.912  1.00  0.00     0.062 C 
HETATM   16  H15 UNL     1      27.138   3.032  50.319  1.00  0.00     0.167 HD
ENDROOT
BRANCH   1  17
HETATM   17  C7  UNL     1      21.925   0.768  53.055  1.00  0.00     0.040 C 
BRANCH  17  18
HETATM   18  C6  UNL     1      21.602  -0.156  51.877  1.00  0.00     0.055 C 
BRANCH  18  19
HETATM   19  C5  UNL     1      20.445   0.462  51.157  1.00  0.00     0.012 C 
HETATM   20  C4  UNL     1      20.450   0.958  49.948  1.00  0.00     0.019 C 
HETATM   21 CL1  UNL     1      19.051   0.399  52.244  1.00  0.00    -0.089 Cl
BRANCH  20  22
HETATM   22  C3  UNL     1      21.553   1.044  48.997  1.00  0.00    -0.003 C 
HETATM   23  C2  UNL     1      21.818   2.186  48.359  1.00  0.00    -0.031 C 
HETATM   24  C1  UNL     1      20.897   3.299  48.722  1.00  0.00     0.036 C 
ENDBRANCH  20  22
ENDBRANCH  18  19
ENDBRANCH  17  18
ENDBRANCH   1  17
BRANCH   6  25
HETATM   25  N2  UNL     1      29.786   2.122  54.240  1.00  0.00    -0.271 NA
HETATM   26  H13 UNL     1      30.358   1.245  54.377  1.00  0.00     0.127 HD
HETATM   27  H14 UNL     1      30.374   1.260  54.383  1.00  0.00     0.127 HD
ENDBRANCH   6  25
TORSDOF 5
ENDMDL
MODEL 3
REMARK VINA RESULT:      -8.3      3.582      6.042
REMARK  5 active torsions:
REMARK  status: ('A' for Active; 'I' for Inactive)
REMARK    1  A    between atoms: C3_3  and  C4_4 
REMARK    2  A    between atoms: C5_5  and  C6_7 
REMARK    3  A    between atoms: C6_7  and  C7_8 
REMARK    4  A    between atoms: C7_8  and  C8_9 
REMARK    5  A    between atoms: C12_14  and  N2_15 
ROOT
HETATM    1  C8  UNL     1      24.061   0.315  53.080  1.00  0.00    -0.068 C 
HETATM    2  C9  UNL     1      25.380  -0.008  53.357  1.00  0.00     0.020 C 
HETATM    3  C10 UNL     1      26.581   0.884  53.380  1.00  0.00     0.028 A 
HETATM    4  C11 UNL     1      27.312   0.413  54.468  1.00  0.00     0.135 A 
HETATM    5  N1  UNL     1      28.497   0.907  54.951  1.00  0.00    -0.230 NA
HETATM    6  C12 UNL     1      28.984   1.966  54.279  1.00  0.00     0.201 A 
HETATM    7  N3  UNL     1      28.305   2.442  53.230  1.00  0.00    -0.200 NA
HETATM    8  C13 UNL     1      27.153   1.952  52.769  1.00  0.00     0.142 A 
HETATM    9  N4  UNL     1      26.841   2.840  51.622  1.00  0.00    -0.344 N 
HETATM   10  C14 UNL     1      25.454   3.246  51.510  1.00  0.00     0.007 C 
HETATM   11  C15 UNL     1      24.143   3.718  51.417  1.00  0.00    -0.001 C 
HETATM   12  C16 UNL     1      23.045   2.943  52.254  1.00  0.00     0.044 C 
HETATM   13  C17 UNL     1      23.415   1.579  52.660  1.00  0.00     0.003 C 
HETATM   14  C18 UNL     1      24.597   2.017  52.777  1.00  0.00     0.011 C 
HETATM   15  C19 UNL     1      25.044   1.820  51.281  1.00  0.00     0.062 C 
HETATM   16  H15 UNL     1      27.461   3.201  50.893  1.00  0.00     0.167 HD
ENDROOT
BRANCH   1  17
HETATM   17  C7  UNL     1      22.963  -0.635  53.093  1.00  0.00     0.040 C 
BRANCH  17  18
HETATM   18  C6  UNL     1      21.666  -0.012  52.569  1.00  0.00     0.055 C 
BRANCH  18  19
HETATM   19  C5  UNL     1      20.563  -0.540  53.431  1.00  0.00     0.012 C 
HETATM   20  C4  UNL     1      19.290  -0.576  53.137  1.00  0.00     0.019 C 
HETATM   21 CL1  UNL     1      21.295  -1.116  54.934  1.00  0.00    -0.089 Cl
BRANCH  20  22
HETATM   22  C3  UNL     1      18.614  -0.125  51.926  1.00  0.00    -0.003 C 
HETATM   23  C2  UNL     1      17.367  -0.511  51.654  1.00  0.00    -0.031 C 
HETATM   24  C1  UNL     1      16.783  -1.412  52.686  1.00  0.00     0.036 C 
ENDBRANCH  20  22
ENDBRANCH  18  19
ENDBRANCH  17  18
ENDBRANCH   1  17
BRANCH   6  25
HETATM   25  N2  UNL     1      30.208   2.479  54.786  1.00  0.00    -0.271 NA
HETATM   26  H13 UNL     1      30.086   3.162  55.583  1.00  0.00     0.127 HD
HETATM   27  H14 UNL     1      30.109   3.162  55.581  1.00  0.00     0.127 HD
ENDBRANCH   6  25
TORSDOF 5
ENDMDL
MODEL 4
REMARK VINA RESULT:      -8.2      1.609      2.587
REMARK  5 active torsions:
REMARK  status: ('A' for Active; 'I' for Inactive)
REMARK    1  A    between atoms: C3_3  and  C4_4 
REMARK    2  A    between atoms: C5_5  and  C6_7 
REMARK    3  A    between atoms: C6_7  and  C7_8 
REMARK    4  A    between atoms: C7_8  and  C8_9 
REMARK    5  A    between atoms: C12_14  and  N2_15 
ROOT
HETATM    1  C8  UNL     1      26.241   2.233  51.712  1.00  0.00    -0.068 C 
HETATM    2  C9  UNL     1      25.018   1.582  51.664  1.00  0.00     0.020 C 
HETATM    3  C10 UNL     1      24.407   0.658  52.670  1.00  0.00     0.028 A 
HETATM    4  C11 UNL     1      23.059   1.011  52.656  1.00  0.00     0.135 A 
HETATM    5  N1  UNL     1      22.053   0.485  53.425  1.00  0.00    -0.230 NA
HETATM    6  C12 UNL     1      22.439  -0.479  54.280  1.00  0.00     0.201 A 
HETATM    7  N3  UNL     1      23.726  -0.841  54.317  1.00  0.00    -0.200 NA
HETATM    8  C13 UNL     1      24.697  -0.322  53.563  1.00  0.00     0.142 A 
HETATM    9  N4  UNL     1      25.904  -1.061  54.005  1.00  0.00    -0.344 N 
HETATM   10  C14 UNL     1      27.099  -0.258  54.172  1.00  0.00     0.007 C 
HETATM   11  C15 UNL     1      28.247   0.499  54.417  1.00  0.00    -0.001 C 
HETATM   12  C16 UNL     1      28.285   1.956  53.801  1.00  0.00     0.044 C 
HETATM   13  C17 UNL     1      27.352   2.190  52.688  1.00  0.00     0.003 C 
HETATM   14  C18 UNL     1      26.558   1.410  53.292  1.00  0.00     0.011 C 
HETATM   15  C19 UNL     1      27.105   0.056  52.704  1.00  0.00     0.062 C 
HETATM   16  H15 UNL     1      26.018  -2.059  54.203  1.00  0.00     0.167 HD
ENDROOT
BRANCH   1  17
HETATM   17  C7  UNL     1      26.738   3.121  50.676  1.00  0.00     0.040 C 
BRANCH  17  18
HETATM   18  C6  UNL     1      25.689   3.368  49.587  1.00  0.00     0.055 C 
BRANCH  18  19
HETATM   19  C5  UNL     1      25.633   4.849  49.380  1.00  0.00     0.012 C 
HETATM   20  C4  UNL     1      26.578   5.606  48.887  1.00  0.00     0.019 C 
HETATM   21 CL1  UNL     1      24.044   5.400  49.925  1.00  0.00    -0.089 Cl
BRANCH  20  22
HETATM   22  C3  UNL     1      27.907   5.227  48.418  1.00  0.00    -0.003 C 
HETATM   23  C2  UNL     1      28.787   6.153  48.037  1.00  0.00    -0.031 C 
HETATM   24  C1  UNL     1      28.271   7.546  48.144  1.00  0.00     0.036 C 
ENDBRANCH  20  22
ENDBRANCH  18  19
ENDBRANCH  17  18
ENDBRANCH   1  17
BRANCH   6  25
HETATM   25  N2  UNL     1      21.396  -1.017  55.080  1.00  0.00    -0.271 NA
HETATM   26  H13 UNL     1      21.729  -1.705  55.809  1.00  0.00     0.127 HD
HETATM   27  H14 UNL     1      21.707  -1.706  55.813  1.00  0.00     0.127 HD
ENDBRANCH   6  25
TORSDOF 5
ENDMDL
MODEL 5
REMARK VINA RESULT:      -8.2      3.001      6.020
REMARK  5 active torsions:
REMARK  status: ('A' for Active; 'I' for Inactive)
REMARK    1  A    between atoms: C3_3  and  C4_4 
REMARK    2  A    between atoms: C5_5  and  C6_7 
REMARK    3  A    between atoms: C6_7  and  C7_8 
REMARK    4  A    between atoms: C7_8  and  C8_9 
REMARK    5  A    between atoms: C12_14  and  N2_15 
ROOT
HETATM    1  C8  UNL     1      23.865   0.067  53.402  1.00  0.00    -0.068 C 
HETATM    2  C9  UNL     1      24.124   1.216  52.673  1.00  0.00     0.020 C 
HETATM    3  C10 UNL     1      23.190   2.326  52.306  1.00  0.00     0.028 A 
HETATM    4  C11 UNL     1      23.977   3.468  52.440  1.00  0.00     0.135 A 
HETATM    5  N1  UNL     1      23.592   4.771  52.250  1.00  0.00    -0.230 NA
HETATM    6  C12 UNL     1      22.306   4.934  51.894  1.00  0.00     0.201 A 
HETATM    7  N3  UNL     1      21.525   3.858  51.757  1.00  0.00    -0.200 NA
HETATM    8  C13 UNL     1      21.910   2.594  51.944  1.00  0.00     0.142 A 
HETATM    9  N4  UNL     1      20.676   1.818  51.675  1.00  0.00    -0.344 N 
HETATM   10  C14 UNL     1      20.415   0.726  52.592  1.00  0.00     0.007 C 
HETATM   11  C15 UNL     1      20.095  -0.283  53.502  1.00  0.00    -0.001 C 
HETATM   12  C16 UNL     1      21.258  -0.783  54.452  1.00  0.00     0.044 C 
HETATM   13  C17 UNL     1      22.620  -0.480  53.986  1.00  0.00     0.003 C 
HETATM   14  C18 UNL     1      22.138   0.594  53.521  1.00  0.00     0.011 C 
HETATM   15  C19 UNL     1      21.662   0.029  52.131  1.00  0.00     0.062 C 
HETATM   16  H15 UNL     1      19.983   1.936  50.930  1.00  0.00     0.167 HD
ENDROOT
BRANCH   1  17
HETATM   17  C7  UNL     1      24.855  -0.950  53.710  1.00  0.00     0.040 C 
BRANCH  17  18
HETATM   18  C6  UNL     1      26.114  -0.347  54.340  1.00  0.00     0.055 C 
BRANCH  18  19
HETATM   19  C5  UNL     1      27.246  -0.668  53.417  1.00  0.00     0.012 C 
HETATM   20  C4  UNL     1      28.369  -0.009  53.298  1.00  0.00     0.019 C 
HETATM   21 CL1  UNL     1      26.793  -2.114  52.506  1.00  0.00    -0.089 Cl
BRANCH  20  22
HETATM   22  C3  UNL     1      28.813   1.184  54.011  1.00  0.00    -0.003 C 
HETATM   23  C2  UNL     1      28.462   2.400  53.592  1.00  0.00    -0.031 C 
HETATM   24  C1  UNL     1      27.606   2.387  52.373  1.00  0.00     0.036 C 
ENDBRANCH  20  22
ENDBRANCH  18  19
ENDBRANCH  17  18
ENDBRANCH   1  17
BRANCH   6  25
HETATM   25  N2  UNL     1      21.909   6.285  51.705  1.00  0.00    -0.271 NA
HETATM   26  H13 UNL     1      22.400   6.967  52.344  1.00  0.00     0.127 HD
HETATM   27  H14 UNL     1      22.386   6.982  52.333  1.00  0.00     0.127 HD
ENDBRANCH   6  25
TORSDOF 5
ENDMDL
MODEL 6
REMARK VINA RESULT:      -8.1      2.978      5.702
REMARK  5 active torsions:
REMARK  status: ('A' for Active; 'I' for Inactive)
REMARK    1  A    between atoms: C3_3  and  C4_4 
REMARK    2  A    between atoms: C5_5  and  C6_7 
REMARK    3  A    between atoms: C6_7  and  C7_8 
REMARK    4  A    between atoms: C7_8  and  C8_9 
REMARK    5  A    between atoms: C12_14  and  N2_15 
ROOT
HETATM    1  C8  UNL     1      23.349   1.596  51.436  1.00  0.00    -0.068 C 
HETATM    2  C9  UNL     1      24.468   0.979  51.973  1.00  0.00     0.020 C 
HETATM    3  C10 UNL     1      25.811   1.566  52.273  1.00  0.00     0.028 A 
HETATM    4  C11 UNL     1      26.167   0.959  53.476  1.00  0.00     0.135 A 
HETATM    5  N1  UNL     1      27.305   1.172  54.211  1.00  0.00    -0.230 NA
HETATM    6  C12 UNL     1      28.156   2.073  53.688  1.00  0.00     0.201 A 
HETATM    7  N3  UNL     1      27.843   2.673  52.534  1.00  0.00    -0.200 NA
HETATM    8  C13 UNL     1      26.731   2.457  51.828  1.00  0.00     0.142 A 
HETATM    9  N4  UNL     1      26.883   3.369  50.668  1.00  0.00    -0.344 N 
HETATM   10  C14 UNL     1      25.685   4.087  50.279  1.00  0.00     0.007 C 
HETATM   11  C15 UNL     1      24.570   4.850  49.929  1.00  0.00    -0.001 C 
HETATM   12  C16 UNL     1      23.171   4.371  50.494  1.00  0.00     0.044 C 
HETATM   13  C17 UNL     1      23.119   2.967  50.927  1.00  0.00     0.003 C 
HETATM   14  C18 UNL     1      24.319   3.118  51.302  1.00  0.00     0.011 C 
HETATM   15  C19 UNL     1      25.012   2.791  49.928  1.00  0.00     0.062 C 
HETATM   16  H15 UNL     1      27.710   3.561  50.096  1.00  0.00     0.167 HD
ENDROOT
BRANCH   1  17
HETATM   17  C7  UNL     1      22.083   0.929  51.190  1.00  0.00     0.040 C 
BRANCH  17  18
HETATM   18  C6  UNL     1      20.915   1.665  51.854  1.00  0.00     0.055 C 
BRANCH  18  19
HETATM   19  C5  UNL     1      19.998   0.611  52.389  1.00  0.00     0.012 C 
HETATM   20  C4  UNL     1      20.076   0.025  53.555  1.00  0.00     0.019 C 
HETATM   21 CL1  UNL     1      18.775   0.295  51.152  1.00  0.00    -0.089 Cl
BRANCH  20  22
HETATM   22  C3  UNL     1      21.049   0.230  54.622  1.00  0.00    -0.003 C 
HETATM   23  C2  UNL     1      21.915  -0.729  54.953  1.00  0.00    -0.031 C 
HETATM   24  C1  UNL     1      21.769  -1.968  54.140  1.00  0.00     0.036 C 
ENDBRANCH  20  22
ENDBRANCH  18  19
ENDBRANCH  17  18
ENDBRANCH   1  17
BRANCH   6  25
HETATM   25  N2  UNL     1      29.330   2.297  54.454  1.00  0.00    -0.271 NA
HETATM   26  H13 UNL     1      29.342   3.227  54.955  1.00  0.00     0.127 HD
HETATM   27  H14 UNL     1      29.363   3.219  54.962  1.00  0.00     0.127 HD
ENDBRANCH   6  25
TORSDOF 5
ENDMDL
MODEL 7
REMARK VINA RESULT:      -8.0      1.649      4.261
REMARK  5 active torsions:
REMARK  status: ('A' for Active; 'I' for Inactive)
REMARK    1  A    between atoms: C3_3  and  C4_4 
REMARK    2  A    between atoms: C5_5  and  C6_7 
REMARK    3  A    between atoms: C6_7  and  C7_8 
REMARK    4  A    between atoms: C7_8  and  C8_9 
REMARK    5  A    between atoms: C12_14  and  N2_15 
ROOT
HETATM    1  C8  UNL     1      23.631   2.770  52.545  1.00  0.00    -0.068 C 
HETATM    2  C9  UNL     1      24.861   2.542  53.142  1.00  0.00     0.020 C 
HETATM    3  C10 UNL     1      25.560   1.242  53.388  1.00  0.00     0.028 A 
HETATM    4  C11 UNL     1      26.896   1.539  53.125  1.00  0.00     0.135 A 
HETATM    5  N1  UNL     1      27.964   0.679  53.171  1.00  0.00    -0.230 NA
HETATM    6  C12 UNL     1      27.658  -0.585  53.512  1.00  0.00     0.201 A 
HETATM    7  N3  UNL     1      26.384  -0.902  53.770  1.00  0.00    -0.200 NA
HETATM    8  C13 UNL     1      25.353  -0.057  53.722  1.00  0.00     0.142 A 
HETATM    9  N4  UNL     1      24.195  -0.912  54.080  1.00  0.00    -0.344 N 
HETATM   10  C14 UNL     1      22.998  -0.701  53.290  1.00  0.00     0.007 C 
HETATM   11  C15 UNL     1      21.855  -0.576  52.498  1.00  0.00    -0.001 C 
HETATM   12  C16 UNL     1      21.744   0.727  51.605  1.00  0.00     0.044 C 
HETATM   13  C17 UNL     1      22.592   1.850  52.030  1.00  0.00     0.003 C 
HETATM   14  C18 UNL     1      23.442   0.978  52.375  1.00  0.00     0.011 C 
HETATM   15  C19 UNL     1      22.884   0.699  53.820  1.00  0.00     0.062 C 
HETATM   16  H15 UNL     1      24.116  -1.625  54.809  1.00  0.00     0.167 HD
ENDROOT
BRANCH   1  17
HETATM   17  C7  UNL     1      23.045   4.083  52.348  1.00  0.00     0.040 C 
BRANCH  17  18
HETATM   18  C6  UNL     1      23.990   5.019  51.588  1.00  0.00     0.055 C 
BRANCH  18  19
HETATM   19  C5  UNL     1      23.754   4.769  50.132  1.00  0.00     0.012 C 
HETATM   20  C4  UNL     1      24.542   4.126  49.311  1.00  0.00     0.019 C 
HETATM   21 CL1  UNL     1      22.201   5.504  49.713  1.00  0.00    -0.089 Cl
BRANCH  20  22
HETATM   22  C3  UNL     1      25.830   3.496  49.580  1.00  0.00    -0.003 C 
HETATM   23  C2  UNL     1      26.971   4.118  49.282  1.00  0.00    -0.031 C 
HETATM   24  C1  UNL     1      26.776   5.463  48.675  1.00  0.00     0.036 C 
ENDBRANCH  20  22
ENDBRANCH  18  19
ENDBRANCH  17  18
ENDBRANCH   1  17
BRANCH   6  25
HETATM   25  N2  UNL     1      28.765  -1.474  53.552  1.00  0.00    -0.271 NA
HETATM   26  H13 UNL     1      29.413  -1.312  54.370  1.00  0.00     0.127 HD
HETATM   27  H14 UNL     1      29.424  -1.330  54.360  1.00  0.00     0.127 HD
ENDBRANCH   6  25
TORSDOF 5
ENDMDL
MODEL 8
REMARK VINA RESULT:      -7.9      3.419      5.110
REMARK  5 active torsions:
REMARK  status: ('A' for Active; 'I' for Inactive)
REMARK    1  A    between atoms: C3_3  and  C4_4 
REMARK    2  A    between atoms: C5_5  and  C6_7 
REMARK    3  A    between atoms: C6_7  and  C7_8 
REMARK    4  A    between atoms: C7_8  and  C8_9 
REMARK    5  A    between atoms: C12_14  and  N2_15 
ROOT
HETATM    1  C8  UNL     1      24.349   0.162  53.203  1.00  0.00    -0.068 C 
HETATM    2  C9  UNL     1      24.266   1.430  52.652  1.00  0.00     0.020 C 
HETATM    3  C10 UNL     1      25.300   2.189  51.881  1.00  0.00     0.028 A 
HETATM    4  C11 UNL     1      24.560   2.827  50.889  1.00  0.00     0.135 A 
HETATM    5  N1  UNL     1      25.034   3.633  49.885  1.00  0.00    -0.230 NA
HETATM    6  C12 UNL     1      26.367   3.810  49.884  1.00  0.00     0.201 A 
HETATM    7  N3  UNL     1      27.106   3.211  50.823  1.00  0.00    -0.200 NA
HETATM    8  C13 UNL     1      26.633   2.429  51.796  1.00  0.00     0.142 A 
HETATM    9  N4  UNL     1      27.855   2.030  52.536  1.00  0.00    -0.344 N 
HETATM   10  C14 UNL     1      27.913   0.638  52.937  1.00  0.00     0.007 C 
HETATM   11  C15 UNL     1      28.034  -0.713  53.270  1.00  0.00    -0.001 C 
HETATM   12  C16 UNL     1      26.712  -1.581  53.222  1.00  0.00     0.044 C 
HETATM   13  C17 UNL     1      25.458  -0.815  53.285  1.00  0.00     0.003 C 
HETATM   14  C18 UNL     1      26.060   0.077  52.618  1.00  0.00     0.011 C 
HETATM   15  C19 UNL     1      26.721   0.835  53.828  1.00  0.00     0.062 C 
HETATM   16  H15 UNL     1      28.661   2.597  52.812  1.00  0.00     0.167 HD
ENDROOT
BRANCH   1  17
HETATM   17  C7  UNL     1      23.274  -0.488  53.931  1.00  0.00     0.040 C 
BRANCH  17  18
HETATM   18  C6  UNL     1      22.207  -1.051  52.987  1.00  0.00     0.055 C 
BRANCH  18  19
HETATM   19  C5  UNL     1      21.164   0.013  52.844  1.00  0.00     0.012 C 
HETATM   20  C4  UNL     1      20.805   0.613  51.740  1.00  0.00     0.019 C 
HETATM   21 CL1  UNL     1      20.494   0.317  54.452  1.00  0.00    -0.089 Cl
BRANCH  20  22
HETATM   22  C3  UNL     1      21.307   0.417  50.384  1.00  0.00    -0.003 C 
HETATM   23  C2  UNL     1      21.379   1.437  49.527  1.00  0.00    -0.031 C 
HETATM   24  C1  UNL     1      20.906   2.729  50.098  1.00  0.00     0.036 C 
ENDBRANCH  20  22
ENDBRANCH  18  19
ENDBRANCH  17  18
ENDBRANCH   1  17
BRANCH   6  25
HETATM   25  N2  UNL     1      26.855   4.639  48.839  1.00  0.00    -0.271 NA
HETATM   26  H13 UNL     1      27.751   5.144  49.079  1.00  0.00     0.127 HD
HETATM   27  H14 UNL     1      27.748   5.153  49.057  1.00  0.00     0.127 HD
ENDBRANCH   6  25
TORSDOF 5
ENDMDL
MODEL 9
REMARK VINA RESULT:      -7.8      2.851      5.712
REMARK  5 active torsions:
REMARK  status: ('A' for Active; 'I' for Inactive)
REMARK    1  A    between atoms: C3_3  and  C4_4 
REMARK    2  A    between atoms: C5_5  and  C6_7 
REMARK    3  A    between atoms: C6_7  and  C7_8 
REMARK    4  A    between atoms: C7_8  and  C8_9 
REMARK    5  A    between atoms: C12_14  and  N2_15 
ROOT
HETATM    1  C8  UNL     1      24.318   0.803  52.569  1.00  0.00    -0.068 C 
HETATM    2  C9  UNL     1      23.422   0.214  53.446  1.00  0.00     0.020 C 
HETATM    3  C10 UNL     1      21.927   0.189  53.386  1.00  0.00     0.028 A 
HETATM    4  C11 UNL     1      21.608  -1.098  53.812  1.00  0.00     0.135 A 
HETATM    5  N1  UNL     1      20.358  -1.656  53.913  1.00  0.00    -0.230 NA
HETATM    6  C12 UNL     1      19.347  -0.845  53.554  1.00  0.00     0.201 A 
HETATM    7  N3  UNL     1      19.621   0.397  53.141  1.00  0.00    -0.200 NA
HETATM    8  C13 UNL     1      20.841   0.929  53.048  1.00  0.00     0.142 A 
HETATM    9  N4  UNL     1      20.578   2.298  52.541  1.00  0.00    -0.344 N 
HETATM   10  C14 UNL     1      21.484   2.764  51.510  1.00  0.00     0.007 C 
HETATM   11  C15 UNL     1      22.292   3.214  50.464  1.00  0.00    -0.001 C 
HETATM   12  C16 UNL     1      23.646   2.431  50.220  1.00  0.00     0.044 C 
HETATM   13  C17 UNL     1      24.124   1.637  51.362  1.00  0.00     0.003 C 
HETATM   14  C18 UNL     1      22.905   1.415  51.619  1.00  0.00     0.011 C 
HETATM   15  C19 UNL     1      22.631   2.704  52.478  1.00  0.00     0.062 C 
HETATM   16  H15 UNL     1      19.853   2.965  52.818  1.00  0.00     0.167 HD
ENDROOT
BRANCH   1  17
HETATM   17  C7  UNL     1      25.762   0.760  52.718  1.00  0.00     0.040 C 
BRANCH  17  18
HETATM   18  C6  UNL     1      26.217   1.404  54.031  1.00  0.00     0.055 C 
BRANCH  18  19
HETATM   19  C5  UNL     1      26.857   0.318  54.837  1.00  0.00     0.012 C 
HETATM   20  C4  UNL     1      28.125   0.000  54.853  1.00  0.00     0.019 C 
HETATM   21 CL1  UNL     1      25.582  -0.468  55.776  1.00  0.00    -0.089 Cl
BRANCH  20  22
HETATM   22  C3  UNL     1      29.231   0.598  54.112  1.00  0.00    -0.003 C 
HETATM   23  C2  UNL     1      30.038  -0.154  53.364  1.00  0.00    -0.031 C 
HETATM   24  C1  UNL     1      29.688  -1.602  53.379  1.00  0.00     0.036 C 
ENDBRANCH  20  22
ENDBRANCH  18  19
ENDBRANCH  17  18
ENDBRANCH   1  17
BRANCH   6  25
HETATM   25  N2  UNL     1      18.055  -1.427  53.653  1.00  0.00    -0.271 NA
HETATM   26  H13 UNL     1      17.410  -1.171  52.857  1.00  0.00     0.127 HD
HETATM   27  H14 UNL     1      17.395  -1.185  52.869  1.00  0.00     0.127 HD
ENDBRANCH   6  25
TORSDOF 5
ENDMDL
