MODEL 1
REMARK VINA RESULT:      -8.5      0.000      0.000
REMARK  5 active torsions:
REMARK  status: ('A' for Active; 'I' for Inactive)
REMARK    1  A    between atoms: C2_2  and  N1_3 
REMARK    2  A    between atoms: N1_3  and  C4_5 
REMARK    3  A    between atoms: C4_5  and  C5_6 
REMARK    4  A    between atoms: S1_7  and  C6_8 
REMARK    5  A    between atoms: C7_10  and  C8_12 
ROOT
HETATM    1  C6  UNL     1      23.402   3.622  49.522  1.00  0.00     0.083 A 
HETATM    2  O1  UNL     1      23.571   2.765  50.605  1.00  0.00     0.000 OA
HETATM    3  C7  UNL     1      23.929   3.013  51.892  1.00  0.00    -0.031 A 
HETATM    4  O2  UNL     1      23.786   3.775  50.932  1.00  0.00     0.000 OA
ENDROOT
BRANCH   3   5
HETATM    5  C8  UNL     1      24.127   2.208  53.097  1.00  0.00     0.069 A 
HETATM    6  C9  UNL     1      23.234   0.996  53.022  1.00  0.00     0.011 A 
HETATM    7  C10 UNL     1      23.641  -0.252  53.037  1.00  0.00     0.139 A 
HETATM    8  O3  UNL     1      24.977  -0.606  53.129  1.00  0.00    -0.323 OA
HETATM    9  C11 UNL     1      25.937   0.413  53.208  1.00  0.00     0.082 A 
HETATM   10  C12 UNL     1      27.328   0.069  53.303  1.00  0.00    -0.003 A 
HETATM   11  C18 UNL     1      25.508   1.657  53.190  1.00  0.00     0.025 A 
HETATM   12  C13 UNL     1      27.708  -1.267  53.319  1.00  0.00     0.014 A 
HETATM   13  C17 UNL     1      28.353   0.960  53.379  1.00  0.00     0.014 A 
HETATM   14  C14 UNL     1      29.041  -1.662  53.407  1.00  0.00     0.001 A 
HETATM   15  C15 UNL     1      30.033  -0.707  53.482  1.00  0.00     0.000 A 
HETATM   16  C16 UNL     1      29.688   0.628  53.469  1.00  0.00     0.001 A 
ENDBRANCH   3   5
BRANCH   1  17
HETATM   17  S1  UNL     1      24.899   4.569  49.121  1.00  0.00    -0.164 SA
HETATM   18  C5  UNL     1      24.806   6.105  48.597  1.00  0.00    -0.010 A 
HETATM   19  C22 UNL     1      26.128   6.695  48.326  1.00  0.00     0.015 A 
HETATM   20  C21 UNL     1      27.301   6.102  48.471  1.00  0.00     0.002 A 
HETATM   21  C20 UNL     1      27.535   4.722  48.934  1.00  0.00     0.006 A 
HETATM   22  C19 UNL     1      26.540   3.888  49.272  1.00  0.00     0.039 A 
BRANCH  18  23
HETATM   23  C4  UNL     1      23.568   6.893  48.391  1.00  0.00     0.166 C 
BRANCH  23  24
HETATM   24  N1  UNL     1      23.089   7.293  49.720  1.00  0.00    -0.393 N 
HETATM   25  C3  UNL     1      23.816   7.766  50.883  1.00  0.00     0.148 C 
BRANCH  24  26
HETATM   26  C2  UNL     1      21.731   7.287  50.120  1.00  0.00     0.058 C 
HETATM   27  C1  UNL     1      21.732   6.498  51.197  1.00  0.00     0.049 C 
ENDBRANCH  24  26
ENDBRANCH  23  24
ENDBRANCH  18  23
ENDBRANCH   1  17
TORSDOF 5
ENDMDL
MODEL 2
REMARK VINA RESULT:      -8.3      2.672      7.311
REMARK  5 active torsions:
REMARK  status: ('A' for Active; 'I' for Inactive)
REMARK    1  A    between atoms: C2_2  and  N1_3 
REMARK    2  A    between atoms: N1_3  and  C4_5 
REMARK    3  A    between atoms: C4_5  and  C5_6 
REMARK    4  A    between atoms: S1_7  and  C6_8 
REMARK    5  A    between atoms: C7_10  and  C8_12 
ROOT
HETATM    1  C6  UNL     1      24.940   2.504  53.410  1.00  0.00     0.083 A 
HETATM    2  O1  UNL     1      24.795   3.203  52.216  1.00  0.00     0.000 OA
HETATM    3  C7  UNL     1      24.777   2.773  50.927  1.00  0.00    -0.031 A 
HETATM    4  O2  UNL     1      24.913   2.151  51.985  1.00  0.00     0.000 OA
ENDROOT
BRANCH   3   5
HETATM    5  C8  UNL     1      24.626   3.401  49.615  1.00  0.00     0.069 A 
HETATM    6  C9  UNL     1      23.560   4.463  49.708  1.00  0.00     0.011 A 
HETATM    7  C10 UNL     1      23.733   5.741  49.459  1.00  0.00     0.139 A 
HETATM    8  O3  UNL     1      24.952   6.272  49.070  1.00  0.00    -0.323 OA
HETATM    9  C11 UNL     1      26.049   5.408  48.937  1.00  0.00     0.082 A 
HETATM   10  C12 UNL     1      27.321   5.938  48.535  1.00  0.00    -0.003 A 
HETATM   11  C18 UNL     1      25.854   4.133  49.192  1.00  0.00     0.025 A 
HETATM   12  C13 UNL     1      27.453   7.297  48.280  1.00  0.00     0.014 A 
HETATM   13  C17 UNL     1      28.459   5.209  48.377  1.00  0.00     0.014 A 
HETATM   14  C14 UNL     1      28.662   7.869  47.890  1.00  0.00     0.001 A 
HETATM   15  C15 UNL     1      29.780   7.074  47.747  1.00  0.00     0.000 A 
HETATM   16  C16 UNL     1      29.681   5.719  47.993  1.00  0.00     0.001 A 
ENDBRANCH   3   5
BRANCH   1  17
HETATM   17  S1  UNL     1      26.493   1.568  53.505  1.00  0.00    -0.164 SA
HETATM   18  C5  UNL     1      26.505  -0.053  53.381  1.00  0.00    -0.010 A 
HETATM   19  C22 UNL     1      27.859  -0.622  53.484  1.00  0.00     0.015 A 
HETATM   20  C21 UNL     1      28.986   0.050  53.659  1.00  0.00     0.002 A 
HETATM   21  C20 UNL     1      29.124   1.512  53.787  1.00  0.00     0.006 A 
HETATM   22  C19 UNL     1      28.078   2.349  53.738  1.00  0.00     0.039 A 
BRANCH  18  23
HETATM   23  C4  UNL     1      25.327  -0.931  53.184  1.00  0.00     0.166 C 
BRANCH  23  24
HETATM   24  N1  UNL     1      24.570  -0.920  54.442  1.00  0.00    -0.393 N 
HETATM   25  C3  UNL     1      25.025  -0.961  55.819  1.00  0.00     0.148 C 
BRANCH  24  26
HETATM   26  C2  UNL     1      23.158  -0.857  54.530  1.00  0.00     0.058 C 
HETATM   27  C1  UNL     1      22.789  -0.517  53.293  1.00  0.00     0.049 C 
ENDBRANCH  24  26
ENDBRANCH  23  24
ENDBRANCH  18  23
ENDBRANCH   1  17
TORSDOF 5
ENDMDL
MODEL 3
REMARK VINA RESULT:      -8.2      3.271      7.995
REMARK  5 active torsions:
REMARK  status: ('A' for Active; 'I' for Inactive)
REMARK    1  A    between atoms: C2_2  and  N1_3 
REMARK    2  A    between atoms: N1_3  and  C4_5 
REMARK    3  A    between atoms: C4_5  and  C5_6 
REMARK    4  A    between atoms: S1_7  and  C6_8 
REMARK    5  A    between atoms: C7_10  and  C8_12 
ROOT
HETATM    1  C6  UNL     1      26.909   2.104  51.965  1.00  0.00     0.083 A 
HETATM    2  O1  UNL     1      27.016   2.774  50.750  1.00  0.00     0.000 OA
HETATM    3  C7  UNL     1      26.308   3.816  50.241  1.00  0.00    -0.031 A 
HETATM    4  O2  UNL     1      26.207   3.220  51.317  1.00  0.00     0.000 OA
ENDROOT
BRANCH   3   5
HETATM    5  C8  UNL     1      26.335   4.594  49.003  1.00  0.00     0.069 A 
HETATM    6  C9  UNL     1      25.698   5.936  49.262  1.00  0.00     0.011 A 
HETATM    7  C10 UNL     1      26.288   7.101  49.115  1.00  0.00     0.139 A 
HETATM    8  O3  UNL     1      27.601   7.230  48.691  1.00  0.00    -0.323 OA
HETATM    9  C11 UNL     1      28.332   6.067  48.408  1.00  0.00     0.082 A 
HETATM   10  C12 UNL     1      29.694   6.179  47.968  1.00  0.00    -0.003 A 
HETATM   11  C18 UNL     1      27.723   4.912  48.562  1.00  0.00     0.025 A 
HETATM   12  C13 UNL     1      30.272   7.433  47.824  1.00  0.00     0.014 A 
HETATM   13  C17 UNL     1      30.509   5.132  47.667  1.00  0.00     0.014 A 
HETATM   14  C14 UNL     1      31.590   7.605  47.404  1.00  0.00     0.001 A 
HETATM   15  C15 UNL     1      32.363   6.500  47.115  1.00  0.00     0.000 A 
HETATM   16  C16 UNL     1      31.817   5.240  47.247  1.00  0.00     0.001 A 
ENDBRANCH   3   5
BRANCH   1  17
HETATM   17  S1  UNL     1      25.272   1.366  52.231  1.00  0.00    -0.164 SA
HETATM   18  C5  UNL     1      25.038   0.231  53.372  1.00  0.00    -0.010 A 
HETATM   19  C22 UNL     1      23.644  -0.241  53.428  1.00  0.00     0.015 A 
HETATM   20  C21 UNL     1      22.641   0.168  52.668  1.00  0.00     0.002 A 
HETATM   21  C20 UNL     1      22.708   1.184  51.602  1.00  0.00     0.006 A 
HETATM   22  C19 UNL     1      23.839   1.827  51.277  1.00  0.00     0.039 A 
BRANCH  18  23
HETATM   23  C4  UNL     1      26.062  -0.319  54.292  1.00  0.00     0.166 C 
BRANCH  23  24
HETATM   24  N1  UNL     1      27.043  -1.031  53.463  1.00  0.00    -0.393 N 
HETATM   25  C3  UNL     1      26.863  -2.079  52.476  1.00  0.00     0.148 C 
BRANCH  24  26
HETATM   26  C2  UNL     1      28.439  -0.792  53.486  1.00  0.00     0.058 C 
HETATM   27  C1  UNL     1      28.604  -0.048  54.582  1.00  0.00     0.049 C 
ENDBRANCH  24  26
ENDBRANCH  23  24
ENDBRANCH  18  23
ENDBRANCH   1  17
TORSDOF 5
ENDMDL
MODEL 4
REMARK VINA RESULT:      -8.0      1.371      3.135
REMARK  5 active torsions:
REMARK  status: ('A' for Active; 'I' for Inactive)
REMARK    1  A    between atoms: C2_2  and  N1_3 
REMARK    2  A    between atoms: N1_3  and  C4_5 
REMARK    3  A    between atoms: C4_5  and  C5_6 
REMARK    4  A    between atoms: S1_7  and  C6_8 
REMARK    5  A    between atoms: C7_10  and  C8_12 
ROOT
HETATM    1  C6  UNL     1      22.696   3.273  49.368  1.00  0.00     0.083 A 
HETATM    2  O1  UNL     1      23.158   2.655  50.526  1.00  0.00     0.000 OA
HETATM    3  C7  UNL     1      22.542   2.409  51.712  1.00  0.00    -0.031 A 
HETATM    4  O2  UNL     1      22.131   2.963  50.688  1.00  0.00     0.000 OA
ENDROOT
BRANCH   3   5
HETATM    5  C8  UNL     1      22.916   1.772  52.973  1.00  0.00     0.069 A 
HETATM    6  C9  UNL     1      22.432   0.344  52.957  1.00  0.00     0.011 A 
HETATM    7  C10 UNL     1      23.194  -0.720  53.069  1.00  0.00     0.139 A 
HETATM    8  O3  UNL     1      24.569  -0.648  53.220  1.00  0.00    -0.323 OA
HETATM    9  C11 UNL     1      25.175   0.616  53.254  1.00  0.00     0.082 A 
HETATM   10  C12 UNL     1      26.598   0.714  53.410  1.00  0.00    -0.003 A 
HETATM   11  C18 UNL     1      24.394   1.669  53.140  1.00  0.00     0.025 A 
HETATM   12  C13 UNL     1      27.360  -0.441  53.527  1.00  0.00     0.014 A 
HETATM   13  C17 UNL     1      27.304   1.876  53.452  1.00  0.00     0.014 A 
HETATM   14  C14 UNL     1      28.745  -0.410  53.677  1.00  0.00     0.001 A 
HETATM   15  C15 UNL     1      29.401   0.803  53.713  1.00  0.00     0.000 A 
HETATM   16  C16 UNL     1      28.672   1.969  53.600  1.00  0.00     0.001 A 
ENDBRANCH   3   5
BRANCH   1  17
HETATM   17  S1  UNL     1      22.134   4.977  49.643  1.00  0.00    -0.164 SA
HETATM   18  C5  UNL     1      23.051   6.041  50.462  1.00  0.00    -0.010 A 
HETATM   19  C22 UNL     1      22.419   7.367  50.578  1.00  0.00     0.015 A 
HETATM   20  C21 UNL     1      21.240   7.723  50.095  1.00  0.00     0.002 A 
HETATM   21  C20 UNL     1      20.308   6.868  49.338  1.00  0.00     0.006 A 
HETATM   22  C19 UNL     1      20.568   5.585  49.047  1.00  0.00     0.039 A 
BRANCH  18  23
HETATM   23  C4  UNL     1      24.385   5.784  51.054  1.00  0.00     0.166 C 
BRANCH  23  24
HETATM   24  N1  UNL     1      25.382   6.232  50.073  1.00  0.00    -0.393 N 
HETATM   25  C3  UNL     1      26.039   7.516  49.913  1.00  0.00     0.148 C 
BRANCH  24  26
HETATM   26  C2  UNL     1      25.915   5.423  49.041  1.00  0.00     0.058 C 
HETATM   27  C1  UNL     1      26.227   4.288  49.672  1.00  0.00     0.049 C 
ENDBRANCH  24  26
ENDBRANCH  23  24
ENDBRANCH  18  23
ENDBRANCH   1  17
TORSDOF 5
ENDMDL
MODEL 5
REMARK VINA RESULT:      -7.9      2.541      3.956
REMARK  5 active torsions:
REMARK  status: ('A' for Active; 'I' for Inactive)
REMARK    1  A    between atoms: C2_2  and  N1_3 
REMARK    2  A    between atoms: N1_3  and  C4_5 
REMARK    3  A    between atoms: C4_5  and  C5_6 
REMARK    4  A    between atoms: S1_7  and  C6_8 
REMARK    5  A    between atoms: C7_10  and  C8_12 
ROOT
HETATM    1  C6  UNL     1      23.139   4.936  50.864  1.00  0.00     0.083 A 
HETATM    2  O1  UNL     1      23.302   4.161  52.008  1.00  0.00     0.000 OA
HETATM    3  C7  UNL     1      23.796   2.906  52.173  1.00  0.00    -0.031 A 
HETATM    4  O2  UNL     1      23.647   3.589  51.155  1.00  0.00     0.000 OA
ENDROOT
BRANCH   3   5
HETATM    5  C8  UNL     1      24.019   2.009  53.306  1.00  0.00     0.069 A 
HETATM    6  C9  UNL     1      23.173   0.775  53.120  1.00  0.00     0.011 A 
HETATM    7  C10 UNL     1      23.627  -0.454  53.031  1.00  0.00     0.139 A 
HETATM    8  O3  UNL     1      24.976  -0.764  53.102  1.00  0.00    -0.323 OA
HETATM    9  C11 UNL     1      25.896   0.280  53.276  1.00  0.00     0.082 A 
HETATM   10  C12 UNL     1      27.298  -0.020  53.353  1.00  0.00    -0.003 A 
HETATM   11  C18 UNL     1      25.420   1.503  53.362  1.00  0.00     0.025 A 
HETATM   12  C13 UNL     1      27.728  -1.336  53.257  1.00  0.00     0.014 A 
HETATM   13  C17 UNL     1      28.288   0.900  53.513  1.00  0.00     0.014 A 
HETATM   14  C14 UNL     1      29.075  -1.688  53.321  1.00  0.00     0.001 A 
HETATM   15  C15 UNL     1      30.030  -0.707  53.486  1.00  0.00     0.000 A 
HETATM   16  C16 UNL     1      29.634   0.611  53.585  1.00  0.00     0.001 A 
ENDBRANCH   3   5
BRANCH   1  17
HETATM   17  S1  UNL     1      22.078   4.153  49.616  1.00  0.00    -0.164 SA
HETATM   18  C5  UNL     1      20.515   3.830  49.926  1.00  0.00    -0.010 A 
HETATM   19  C22 UNL     1      19.829   3.194  48.789  1.00  0.00     0.015 A 
HETATM   20  C21 UNL     1      20.361   2.890  47.616  1.00  0.00     0.002 A 
HETATM   21  C20 UNL     1      21.755   3.124  47.199  1.00  0.00     0.006 A 
HETATM   22  C19 UNL     1      22.669   3.693  47.998  1.00  0.00     0.039 A 
BRANCH  18  23
HETATM   23  C4  UNL     1      19.789   4.114  51.186  1.00  0.00     0.166 C 
BRANCH  23  24
HETATM   24  N1  UNL     1      19.110   2.873  51.577  1.00  0.00    -0.393 N 
HETATM   25  C3  UNL     1      17.708   2.504  51.519  1.00  0.00     0.148 C 
BRANCH  24  26
HETATM   26  C2  UNL     1      19.760   1.735  52.114  1.00  0.00     0.058 C 
HETATM   27  C1  UNL     1      19.025   0.718  51.659  1.00  0.00     0.049 C 
ENDBRANCH  24  26
ENDBRANCH  23  24
ENDBRANCH  18  23
ENDBRANCH   1  17
TORSDOF 5
ENDMDL
MODEL 6
REMARK VINA RESULT:      -7.7      2.234      4.372
REMARK  5 active torsions:
REMARK  status: ('A' for Active; 'I' for Inactive)
REMARK    1  A    between atoms: C2_2  and  N1_3 
REMARK    2  A    between atoms: N1_3  and  C4_5 
REMARK    3  A    between atoms: C4_5  and  C5_6 
REMARK    4  A    between atoms: S1_7  and  C6_8 
REMARK    5  A    between atoms: C7_10  and  C8_12 
ROOT
HETATM    1  C6  UNL     1      23.844   5.896  51.113  1.00  0.00     0.083 A 
HETATM    2  O1  UNL     1      24.091   4.532  51.241  1.00  0.00     0.000 OA
HETATM    3  C7  UNL     1      25.111   3.763  50.778  1.00  0.00    -0.031 A 
HETATM    4  O2  UNL     1      24.891   4.972  50.657  1.00  0.00     0.000 OA
ENDROOT
BRANCH   3   5
HETATM    5  C8  UNL     1      25.474   2.349  50.856  1.00  0.00     0.069 A 
HETATM    6  C9  UNL     1      26.734   2.217  51.674  1.00  0.00     0.011 A 
HETATM    7  C10 UNL     1      26.852   1.528  52.786  1.00  0.00     0.139 A 
HETATM    8  O3  UNL     1      25.800   0.822  53.348  1.00  0.00    -0.323 OA
HETATM    9  C11 UNL     1      24.555   0.845  52.702  1.00  0.00     0.082 A 
HETATM   10  C12 UNL     1      23.453   0.121  53.268  1.00  0.00    -0.003 A 
HETATM   11  C18 UNL     1      24.459   1.542  51.591  1.00  0.00     0.025 A 
HETATM   12  C13 UNL     1      23.628  -0.596  54.444  1.00  0.00     0.014 A 
HETATM   13  C17 UNL     1      22.198   0.069  52.744  1.00  0.00     0.014 A 
HETATM   14  C14 UNL     1      22.595  -1.315  55.042  1.00  0.00     0.001 A 
HETATM   15  C15 UNL     1      21.346  -1.328  54.458  1.00  0.00     0.000 A 
HETATM   16  C16 UNL     1      21.139  -0.625  53.289  1.00  0.00     0.001 A 
ENDBRANCH   3   5
BRANCH   1  17
HETATM   17  S1  UNL     1      23.718   6.439  49.385  1.00  0.00    -0.164 SA
HETATM   18  C5  UNL     1      22.433   6.042  48.472  1.00  0.00    -0.010 A 
HETATM   19  C22 UNL     1      22.520   6.576  47.102  1.00  0.00     0.015 A 
HETATM   20  C21 UNL     1      23.505   7.306  46.601  1.00  0.00     0.002 A 
HETATM   21  C20 UNL     1      24.723   7.738  47.310  1.00  0.00     0.006 A 
HETATM   22  C19 UNL     1      24.972   7.424  48.589  1.00  0.00     0.039 A 
BRANCH  18  23
HETATM   23  C4  UNL     1      21.263   5.237  48.897  1.00  0.00     0.166 C 
BRANCH  23  24
HETATM   24  N1  UNL     1      21.714   3.843  48.988  1.00  0.00    -0.393 N 
HETATM   25  C3  UNL     1      21.416   2.814  49.967  1.00  0.00     0.148 C 
BRANCH  24  26
HETATM   26  C2  UNL     1      22.581   3.216  48.059  1.00  0.00     0.058 C 
HETATM   27  C1  UNL     1      22.202   1.936  48.102  1.00  0.00     0.049 C 
ENDBRANCH  24  26
ENDBRANCH  23  24
ENDBRANCH  18  23
ENDBRANCH   1  17
TORSDOF 5
ENDMDL
MODEL 7
REMARK VINA RESULT:      -7.6      1.794      3.555
REMARK  5 active torsions:
REMARK  status: ('A' for Active; 'I' for Inactive)
REMARK    1  A    between atoms: C2_2  and  N1_3 
REMARK    2  A    between atoms: N1_3  and  C4_5 
REMARK    3  A    between atoms: C4_5  and  C5_6 
REMARK    4  A    between atoms: S1_7  and  C6_8 
REMARK    5  A    between atoms: C7_10  and  C8_12 
ROOT
HETATM    1  C6  UNL     1      23.964   7.318  51.156  1.00  0.00     0.083 A 
HETATM    2  O1  UNL     1      23.498   6.210  51.858  1.00  0.00     0.000 OA
HETATM    3  C7  UNL     1      23.801   4.890  51.745  1.00  0.00    -0.031 A 
HETATM    4  O2  UNL     1      24.211   5.870  51.116  1.00  0.00     0.000 OA
ENDROOT
BRANCH   3   5
HETATM    5  C8  UNL     1      23.390   3.660  52.420  1.00  0.00     0.069 A 
HETATM    6  C9  UNL     1      22.592   2.822  51.454  1.00  0.00     0.011 A 
HETATM    7  C10 UNL     1      22.901   1.607  51.063  1.00  0.00     0.139 A 
HETATM    8  O3  UNL     1      24.029   0.938  51.510  1.00  0.00    -0.323 OA
HETATM    9  C11 UNL     1      24.878   1.587  52.419  1.00  0.00     0.082 A 
HETATM   10  C12 UNL     1      26.052   0.912  52.894  1.00  0.00    -0.003 A 
HETATM   11  C18 UNL     1      24.550   2.804  52.796  1.00  0.00     0.025 A 
HETATM   12  C13 UNL     1      26.334  -0.375  52.454  1.00  0.00     0.014 A 
HETATM   13  C17 UNL     1      26.955   1.432  53.768  1.00  0.00     0.014 A 
HETATM   14  C14 UNL     1      27.460  -1.078  52.877  1.00  0.00     0.001 A 
HETATM   15  C15 UNL     1      28.337  -0.493  53.766  1.00  0.00     0.000 A 
HETATM   16  C16 UNL     1      28.084   0.784  54.223  1.00  0.00     0.001 A 
ENDBRANCH   3   5
BRANCH   1  17
HETATM   17  S1  UNL     1      23.661   7.209  49.369  1.00  0.00    -0.164 SA
HETATM   18  C5  UNL     1      24.843   7.520  48.297  1.00  0.00    -0.010 A 
HETATM   19  C22 UNL     1      24.396   7.378  46.900  1.00  0.00     0.015 A 
HETATM   20  C21 UNL     1      23.185   7.039  46.490  1.00  0.00     0.002 A 
HETATM   21  C20 UNL     1      22.024   6.731  47.345  1.00  0.00     0.006 A 
HETATM   22  C19 UNL     1      22.077   6.763  48.685  1.00  0.00     0.039 A 
BRANCH  18  23
HETATM   23  C4  UNL     1      26.239   7.907  48.610  1.00  0.00     0.166 C 
BRANCH  23  24
HETATM   24  N1  UNL     1      27.056   6.694  48.489  1.00  0.00    -0.393 N 
HETATM   25  C3  UNL     1      26.760   5.317  48.838  1.00  0.00     0.148 C 
BRANCH  24  26
HETATM   26  C2  UNL     1      28.372   6.659  47.967  1.00  0.00     0.058 C 
HETATM   27  C1  UNL     1      28.780   5.419  48.247  1.00  0.00     0.049 C 
ENDBRANCH  24  26
ENDBRANCH  23  24
ENDBRANCH  18  23
ENDBRANCH   1  17
TORSDOF 5
ENDMDL
MODEL 8
REMARK VINA RESULT:      -7.6      2.112      4.656
REMARK  5 active torsions:
REMARK  status: ('A' for Active; 'I' for Inactive)
REMARK    1  A    between atoms: C2_2  and  N1_3 
REMARK    2  A    between atoms: N1_3  and  C4_5 
REMARK    3  A    between atoms: C4_5  and  C5_6 
REMARK    4  A    between atoms: S1_7  and  C6_8 
REMARK    5  A    between atoms: C7_10  and  C8_12 
ROOT
HETATM    1  C6  UNL     1      23.867   5.814  51.257  1.00  0.00     0.083 A 
HETATM    2  O1  UNL     1      24.079   4.442  51.350  1.00  0.00     0.000 OA
HETATM    3  C7  UNL     1      25.077   3.659  50.862  1.00  0.00    -0.031 A 
HETATM    4  O2  UNL     1      24.887   4.875  50.772  1.00  0.00     0.000 OA
ENDROOT
BRANCH   3   5
HETATM    5  C8  UNL     1      25.403   2.234  50.903  1.00  0.00     0.069 A 
HETATM    6  C9  UNL     1      26.677   2.052  51.689  1.00  0.00     0.011 A 
HETATM    7  C10 UNL     1      26.802   1.338  52.783  1.00  0.00     0.139 A 
HETATM    8  O3  UNL     1      25.746   0.649  53.356  1.00  0.00    -0.323 OA
HETATM    9  C11 UNL     1      24.487   0.717  52.740  1.00  0.00     0.082 A 
HETATM   10  C12 UNL     1      23.379   0.011  53.317  1.00  0.00    -0.003 A 
HETATM   11  C18 UNL     1      24.384   1.439  51.645  1.00  0.00     0.025 A 
HETATM   12  C13 UNL     1      23.562  -0.734  54.474  1.00  0.00     0.014 A 
HETATM   13  C17 UNL     1      22.112   0.002  52.821  1.00  0.00     0.014 A 
HETATM   14  C14 UNL     1      22.524  -1.438  55.082  1.00  0.00     0.001 A 
HETATM   15  C15 UNL     1      21.262  -1.406  54.527  1.00  0.00     0.000 A 
HETATM   16  C16 UNL     1      21.047  -0.675  53.377  1.00  0.00     0.001 A 
ENDBRANCH   3   5
BRANCH   1  17
HETATM   17  S1  UNL     1      23.744   6.402  49.543  1.00  0.00    -0.164 SA
HETATM   18  C5  UNL     1      24.955   7.241  48.855  1.00  0.00    -0.010 A 
HETATM   19  C22 UNL     1      24.661   7.627  47.464  1.00  0.00     0.015 A 
HETATM   20  C21 UNL     1      23.557   7.355  46.786  1.00  0.00     0.002 A 
HETATM   21  C20 UNL     1      22.386   6.609  47.281  1.00  0.00     0.006 A 
HETATM   22  C19 UNL     1      22.314   6.105  48.522  1.00  0.00     0.039 A 
BRANCH  18  23
HETATM   23  C4  UNL     1      26.242   7.614  49.488  1.00  0.00     0.166 C 
BRANCH  23  24
HETATM   24  N1  UNL     1      27.295   6.869  48.787  1.00  0.00    -0.393 N 
HETATM   25  C3  UNL     1      27.453   5.445  48.560  1.00  0.00     0.148 C 
BRANCH  24  26
HETATM   26  C2  UNL     1      28.419   7.462  48.162  1.00  0.00     0.058 C 
HETATM   27  C1  UNL     1      29.164   6.410  47.811  1.00  0.00     0.049 C 
ENDBRANCH  24  26
ENDBRANCH  23  24
ENDBRANCH  18  23
ENDBRANCH   1  17
TORSDOF 5
ENDMDL
MODEL 9
REMARK VINA RESULT:      -7.6      1.669      2.709
REMARK  5 active torsions:
REMARK  status: ('A' for Active; 'I' for Inactive)
REMARK    1  A    between atoms: C2_2  and  N1_3 
REMARK    2  A    between atoms: N1_3  and  C4_5 
REMARK    3  A    between atoms: C4_5  and  C5_6 
REMARK    4  A    between atoms: S1_7  and  C6_8 
REMARK    5  A    between atoms: C7_10  and  C8_12 
ROOT
HETATM    1  C6  UNL     1      24.076   3.618  49.505  1.00  0.00     0.083 A 
HETATM    2  O1  UNL     1      24.436   2.926  50.658  1.00  0.00     0.000 OA
HETATM    3  C7  UNL     1      23.721   2.615  51.771  1.00  0.00    -0.031 A 
HETATM    4  O2  UNL     1      23.401   3.235  50.753  1.00  0.00     0.000 OA
ENDROOT
BRANCH   3   5
HETATM    5  C8  UNL     1      23.986   1.899  53.018  1.00  0.00     0.069 A 
HETATM    6  C9  UNL     1      23.168   0.633  53.033  1.00  0.00     0.011 A 
HETATM    7  C10 UNL     1      23.650  -0.586  53.115  1.00  0.00     0.139 A 
HETATM    8  O3  UNL     1      25.007  -0.852  53.204  1.00  0.00    -0.323 OA
HETATM    9  C11 UNL     1      25.904   0.226  53.204  1.00  0.00     0.082 A 
HETATM   10  C12 UNL     1      27.314  -0.028  53.295  1.00  0.00    -0.003 A 
HETATM   11  C18 UNL     1      25.400   1.438  53.119  1.00  0.00     0.025 A 
HETATM   12  C13 UNL     1      27.775  -1.335  53.384  1.00  0.00     0.014 A 
HETATM   13  C17 UNL     1      28.284   0.926  53.298  1.00  0.00     0.014 A 
HETATM   14  C14 UNL     1      29.131  -1.644  53.471  1.00  0.00     0.001 A 
HETATM   15  C15 UNL     1      30.064  -0.628  53.471  1.00  0.00     0.000 A 
HETATM   16  C16 UNL     1      29.637   0.681  53.383  1.00  0.00     0.001 A 
ENDBRANCH   3   5
BRANCH   1  17
HETATM   17  S1  UNL     1      23.502   5.308  49.837  1.00  0.00    -0.164 SA
HETATM   18  C5  UNL     1      22.024   5.799  49.372  1.00  0.00    -0.010 A 
HETATM   19  C22 UNL     1      21.750   7.201  49.732  1.00  0.00     0.015 A 
HETATM   20  C21 UNL     1      22.568   8.027  50.364  1.00  0.00     0.002 A 
HETATM   21  C20 UNL     1      23.929   7.719  50.841  1.00  0.00     0.006 A 
HETATM   22  C19 UNL     1      24.504   6.519  50.678  1.00  0.00     0.039 A 
BRANCH  18  23
HETATM   23  C4  UNL     1      21.008   4.988  48.661  1.00  0.00     0.166 C 
BRANCH  23  24
HETATM   24  N1  UNL     1      20.432   4.066  49.648  1.00  0.00    -0.393 N 
HETATM   25  C3  UNL     1      20.184   2.638  49.575  1.00  0.00     0.148 C 
BRANCH  24  26
HETATM   26  C2  UNL     1      19.991   4.443  50.940  1.00  0.00     0.058 C 
HETATM   27  C1  UNL     1      19.930   3.281  51.595  1.00  0.00     0.049 C 
ENDBRANCH  24  26
ENDBRANCH  23  24
ENDBRANCH  18  23
ENDBRANCH   1  17
TORSDOF 5
ENDMDL
