MODEL 1
REMARK VINA RESULT:      -8.2      0.000      0.000
REMARK  2 active torsions:
REMARK  status: ('A' for Active; 'I' for Inactive)
REMARK    1  A    between atoms: N1_1  and  C1_2 
REMARK    2  A    between atoms: C14_17  and  N3_18 
ROOT
HETATM    1  C1  UNL     1      27.780   0.328  54.468  1.00  0.00     0.026 C 
HETATM    2  C2  UNL     1      28.197   0.263  53.216  1.00  0.00     0.034 C 
HETATM    3  C3  UNL     1      27.362  -0.247  52.104  1.00  0.00     0.160 C 
HETATM    4  C4  UNL     1      26.241  -1.148  52.578  1.00  0.00     0.093 C 
HETATM    5  C5  UNL     1      25.586  -0.583  53.798  1.00  0.00     0.010 C 
HETATM    6  C6  UNL     1      26.401  -0.121  54.764  1.00  0.00     0.053 C 
HETATM    7  N2  UNL     1      24.134  -0.585  53.815  1.00  0.00    -0.389 N 
HETATM    8  C7  UNL     1      23.684   0.508  52.977  1.00  0.00     0.160 C 
HETATM    9  C8  UNL     1      22.245   0.677  52.847  1.00  0.00    -0.013 A 
HETATM   10  C9  UNL     1      21.190  -0.027  53.373  1.00  0.00     0.019 A 
HETATM   11 BR1  UNL     1      21.668  -1.503  54.476  1.00  0.00    -0.050 Br
HETATM   12  C10 UNL     1      19.854   0.230  53.178  1.00  0.00     0.020 A 
HETATM   13  C11 UNL     1      19.541   1.305  52.374  1.00  0.00     0.002 A 
HETATM   14  C12 UNL     1      20.566   2.050  51.818  1.00  0.00     0.012 A 
HETATM   15  C13 UNL     1      21.926   1.772  52.028  1.00  0.00     0.005 A 
HETATM   16  C14 UNL     1      22.743   2.743  51.302  1.00  0.00     0.374 C 
HETATM   17  N4  UNL     1      24.142   2.467  51.239  1.00  0.00    -0.243 NA
HETATM   18  C15 UNL     1      24.990   3.425  50.991  1.00  0.00     0.231 C 
HETATM   19  N5  UNL     1      25.783   2.256  51.145  1.00  0.00    -0.231 NA
HETATM   20  C16 UNL     1      26.822   2.140  51.868  1.00  0.00     0.253 C 
HETATM   21  O1  UNL     1      26.802   0.822  51.370  1.00  0.00    -0.335 OA
HETATM   22  H8  UNL     1      24.246  -1.424  54.460  1.00  0.00     0.159 HD
ENDROOT
BRANCH   1  23
HETATM   23  N1  UNL     1      28.528   0.793  55.585  1.00  0.00    -0.399 N 
HETATM   24  H1  UNL     1      28.235   0.269  56.431  1.00  0.00     0.156 HD
HETATM   25  H2  UNL     1      29.214   1.542  55.400  1.00  0.00     0.156 HD
ENDBRANCH   1  23
BRANCH  16  26
HETATM   26  N3  UNL     1      22.631   4.093  51.877  1.00  0.00     0.107 N 
HETATM   27  H15 UNL     1      21.630   4.350  52.036  1.00  0.00     0.316 HD
HETATM   28  H16 UNL     1      23.122   4.798  51.275  1.00  0.00     0.316 HD
ENDBRANCH  16  26
TORSDOF 2
ENDMDL
MODEL 2
REMARK VINA RESULT:      -7.9      2.220      5.275
REMARK  2 active torsions:
REMARK  status: ('A' for Active; 'I' for Inactive)
REMARK    1  A    between atoms: N1_1  and  C1_2 
REMARK    2  A    between atoms: C14_17  and  N3_18 
ROOT
HETATM    1  C1  UNL     1      22.458   3.279  48.317  1.00  0.00     0.026 C 
HETATM    2  C2  UNL     1      23.170   4.308  48.741  1.00  0.00     0.034 C 
HETATM    3  C3  UNL     1      23.339   4.647  50.173  1.00  0.00     0.160 C 
HETATM    4  C4  UNL     1      22.243   4.072  51.045  1.00  0.00     0.093 C 
HETATM    5  C5  UNL     1      21.935   2.663  50.649  1.00  0.00     0.010 C 
HETATM    6  C6  UNL     1      21.810   2.417  49.331  1.00  0.00     0.053 C 
HETATM    7  N2  UNL     1      21.805   1.699  51.727  1.00  0.00    -0.389 N 
HETATM    8  C7  UNL     1      23.141   1.359  52.174  1.00  0.00     0.160 C 
HETATM    9  C8  UNL     1      23.236   0.406  53.269  1.00  0.00    -0.013 A 
HETATM   10  C9  UNL     1      22.275  -0.251  53.996  1.00  0.00     0.019 A 
HETATM   11 BR1  UNL     1      20.477   0.139  53.506  1.00  0.00    -0.050 Br
HETATM   12  C10 UNL     1      22.487  -1.142  55.021  1.00  0.00     0.020 A 
HETATM   13  C11 UNL     1      23.800  -1.403  55.352  1.00  0.00     0.002 A 
HETATM   14  C12 UNL     1      24.810  -0.768  54.651  1.00  0.00     0.012 A 
HETATM   15  C13 UNL     1      24.573   0.140  53.607  1.00  0.00     0.005 A 
HETATM   16  C14 UNL     1      25.848   0.627  53.082  1.00  0.00     0.374 C 
HETATM   17  N4  UNL     1      25.775   1.717  52.163  1.00  0.00    -0.243 NA
HETATM   18  C15 UNL     1      26.762   1.955  51.347  1.00  0.00     0.231 C 
HETATM   19  N5  UNL     1      25.792   2.953  51.060  1.00  0.00    -0.231 NA
HETATM   20  C16 UNL     1      25.361   3.275  49.907  1.00  0.00     0.253 C 
HETATM   21  O1  UNL     1      24.585   4.187  50.651  1.00  0.00    -0.335 OA
HETATM   22  H8  UNL     1      20.760   1.806  51.558  1.00  0.00     0.159 HD
ENDROOT
BRANCH   1  23
HETATM   23  N1  UNL     1      22.242   2.901  46.963  1.00  0.00    -0.399 N 
HETATM   24  H1  UNL     1      22.337   1.871  46.878  1.00  0.00     0.156 HD
HETATM   25  H2  UNL     1      22.035   3.664  46.299  1.00  0.00     0.156 HD
ENDBRANCH   1  23
BRANCH  16  26
HETATM   26  N3  UNL     1      26.593  -0.431  52.383  1.00  0.00     0.107 N 
HETATM   27  H15 UNL     1      27.625  -0.286  52.478  1.00  0.00     0.316 HD
HETATM   28  H16 UNL     1      26.301  -0.491  51.377  1.00  0.00     0.316 HD
ENDBRANCH  16  26
TORSDOF 2
ENDMDL
MODEL 3
REMARK VINA RESULT:      -7.8      3.024      6.358
REMARK  2 active torsions:
REMARK  status: ('A' for Active; 'I' for Inactive)
REMARK    1  A    between atoms: N1_1  and  C1_2 
REMARK    2  A    between atoms: C14_17  and  N3_18 
ROOT
HETATM    1  C1  UNL     1      20.891   4.191  49.311  1.00  0.00     0.026 C 
HETATM    2  C2  UNL     1      20.220   3.229  48.703  1.00  0.00     0.034 C 
HETATM    3  C3  UNL     1      20.690   1.826  48.634  1.00  0.00     0.160 C 
HETATM    4  C4  UNL     1      22.185   1.698  48.833  1.00  0.00     0.093 C 
HETATM    5  C5  UNL     1      22.649   2.580  49.948  1.00  0.00     0.010 C 
HETATM    6  C6  UNL     1      22.172   3.838  49.964  1.00  0.00     0.053 C 
HETATM    7  N2  UNL     1      23.565   1.987  50.906  1.00  0.00    -0.389 N 
HETATM    8  C7  UNL     1      22.788   1.148  51.795  1.00  0.00     0.160 C 
HETATM    9  C8  UNL     1      23.525   0.444  52.834  1.00  0.00    -0.013 A 
HETATM   10  C9  UNL     1      24.862   0.409  53.143  1.00  0.00     0.019 A 
HETATM   11 BR1  UNL     1      25.983   1.463  52.021  1.00  0.00    -0.050 Br
HETATM   12  C10 UNL     1      25.451  -0.301  54.162  1.00  0.00     0.020 A 
HETATM   13  C11 UNL     1      24.612  -1.054  54.956  1.00  0.00     0.002 A 
HETATM   14  C12 UNL     1      23.254  -1.056  54.689  1.00  0.00     0.012 A 
HETATM   15  C13 UNL     1      22.672  -0.324  53.642  1.00  0.00     0.005 A 
HETATM   16  C14 UNL     1      21.226  -0.544  53.636  1.00  0.00     0.374 C 
HETATM   17  N4  UNL     1      20.518  -0.041  52.503  1.00  0.00    -0.243 NA
HETATM   18  C15 UNL     1      19.237   0.182  52.575  1.00  0.00     0.231 C 
HETATM   19  N5  UNL     1      19.603   0.540  51.249  1.00  0.00    -0.231 NA
HETATM   20  C16 UNL     1      19.295   1.617  50.648  1.00  0.00     0.253 C 
HETATM   21  O1  UNL     1      20.036   1.031  49.601  1.00  0.00    -0.335 OA
HETATM   22  H8  UNL     1      24.309   2.535  50.378  1.00  0.00     0.159 HD
ENDROOT
BRANCH   1  23
HETATM   23  N1  UNL     1      20.509   5.558  49.407  1.00  0.00    -0.399 N 
HETATM   24  H1  UNL     1      21.182   6.056  50.020  1.00  0.00     0.156 HD
HETATM   25  H2  UNL     1      19.664   5.838  48.883  1.00  0.00     0.156 HD
ENDBRANCH   1  23
BRANCH  16  26
HETATM   26  N3  UNL     1      20.574   0.059  54.808  1.00  0.00     0.107 N 
HETATM   27  H15 UNL     1      19.648   0.472  54.550  1.00  0.00     0.316 HD
HETATM   28  H16 UNL     1      21.202   0.767  55.263  1.00  0.00     0.316 HD
ENDBRANCH  16  26
TORSDOF 2
ENDMDL
MODEL 4
REMARK VINA RESULT:      -7.5      3.369      4.559
REMARK  2 active torsions:
REMARK  status: ('A' for Active; 'I' for Inactive)
REMARK    1  A    between atoms: N1_1  and  C1_2 
REMARK    2  A    between atoms: C14_17  and  N3_18 
ROOT
HETATM    1  C1  UNL     1      24.020   4.985  51.635  1.00  0.00     0.026 C 
HETATM    2  C2  UNL     1      24.418   4.582  50.441  1.00  0.00     0.034 C 
HETATM    3  C3  UNL     1      24.296   3.183  49.970  1.00  0.00     0.160 C 
HETATM    4  C4  UNL     1      24.183   2.190  51.107  1.00  0.00     0.093 C 
HETATM    5  C5  UNL     1      23.257   2.699  52.166  1.00  0.00     0.010 C 
HETATM    6  C6  UNL     1      23.409   3.983  52.537  1.00  0.00     0.053 C 
HETATM    7  N2  UNL     1      22.282   1.755  52.684  1.00  0.00    -0.389 N 
HETATM    8  C7  UNL     1      21.220   1.641  51.706  1.00  0.00     0.160 C 
HETATM    9  C8  UNL     1      20.135   0.726  52.029  1.00  0.00    -0.013 A 
HETATM   10  C9  UNL     1      19.918  -0.089  53.113  1.00  0.00     0.019 A 
HETATM   11 BR1  UNL     1      21.268  -0.034  54.455  1.00  0.00    -0.050 Br
HETATM   12  C10 UNL     1      18.842  -0.920  53.312  1.00  0.00     0.020 A 
HETATM   13  C11 UNL     1      17.882  -0.937  52.322  1.00  0.00     0.002 A 
HETATM   14  C12 UNL     1      18.051  -0.135  51.207  1.00  0.00     0.012 A 
HETATM   15  C13 UNL     1      19.158   0.708  51.022  1.00  0.00     0.005 A 
HETATM   16  C14 UNL     1      19.029   1.412  49.747  1.00  0.00     0.374 C 
HETATM   17  N4  UNL     1      20.176   2.143  49.313  1.00  0.00    -0.243 NA
HETATM   18  C15 UNL     1      20.052   3.105  48.443  1.00  0.00     0.231 C 
HETATM   19  N5  UNL     1      21.440   3.052  48.744  1.00  0.00    -0.231 NA
HETATM   20  C16 UNL     1      22.183   4.038  49.049  1.00  0.00     0.253 C 
HETATM   21  O1  UNL     1      23.171   3.036  49.128  1.00  0.00    -0.335 OA
HETATM   22  H8  UNL     1      22.942   1.691  53.517  1.00  0.00     0.159 HD
ENDROOT
BRANCH   1  23
HETATM   23  N1  UNL     1      24.117   6.304  52.157  1.00  0.00    -0.399 N 
HETATM   24  H1  UNL     1      24.207   6.975  51.371  1.00  0.00     0.156 HD
HETATM   25  H2  UNL     1      24.085   6.396  53.185  1.00  0.00     0.156 HD
ENDBRANCH   1  23
BRANCH  16  26
HETATM   26  N3  UNL     1      17.926   2.385  49.767  1.00  0.00     0.107 N 
HETATM   27  H15 UNL     1      17.934   2.942  50.652  1.00  0.00     0.316 HD
HETATM   28  H16 UNL     1      17.004   1.907  49.617  1.00  0.00     0.316 HD
ENDBRANCH  16  26
TORSDOF 2
ENDMDL
MODEL 5
REMARK VINA RESULT:      -7.5      2.883      4.454
REMARK  2 active torsions:
REMARK  status: ('A' for Active; 'I' for Inactive)
REMARK    1  A    between atoms: N1_1  and  C1_2 
REMARK    2  A    between atoms: C14_17  and  N3_18 
ROOT
HETATM    1  C1  UNL     1      26.505  -1.157  52.802  1.00  0.00     0.026 C 
HETATM    2  C2  UNL     1      25.786  -0.985  53.897  1.00  0.00     0.034 C 
HETATM    3  C3  UNL     1      25.157   0.305  54.265  1.00  0.00     0.160 C 
HETATM    4  C4  UNL     1      25.821   1.492  53.599  1.00  0.00     0.093 C 
HETATM    5  C5  UNL     1      26.120   1.196  52.164  1.00  0.00     0.010 C 
HETATM    6  C6  UNL     1      26.676   0.001  51.895  1.00  0.00     0.053 C 
HETATM    7  N2  UNL     1      25.775   2.229  51.203  1.00  0.00    -0.389 N 
HETATM    8  C7  UNL     1      24.343   2.172  50.993  1.00  0.00     0.160 C 
HETATM    9  C8  UNL     1      23.783   3.142  50.064  1.00  0.00    -0.013 A 
HETATM   10  C9  UNL     1      24.365   4.145  49.328  1.00  0.00     0.019 A 
HETATM   11 BR1  UNL     1      26.249   4.324  49.545  1.00  0.00    -0.050 Br
HETATM   12  C10 UNL     1      23.728   5.010  48.471  1.00  0.00     0.020 A 
HETATM   13  C11 UNL     1      22.364   4.854  48.336  1.00  0.00     0.002 A 
HETATM   14  C12 UNL     1      21.726   3.858  49.055  1.00  0.00     0.012 A 
HETATM   15  C13 UNL     1      22.395   2.985  49.926  1.00  0.00     0.005 A 
HETATM   16  C14 UNL     1      21.435   2.058  50.524  1.00  0.00     0.374 C 
HETATM   17  N4  UNL     1      21.924   1.248  51.593  1.00  0.00    -0.243 NA
HETATM   18  C15 UNL     1      21.311   0.144  51.914  1.00  0.00     0.231 C 
HETATM   19  N5  UNL     1      22.406   0.237  52.814  1.00  0.00    -0.231 NA
HETATM   20  C16 UNL     1      23.241  -0.683  53.083  1.00  0.00     0.253 C 
HETATM   21  O1  UNL     1      23.786   0.306  53.927  1.00  0.00    -0.335 OA
HETATM   22  H8  UNL     1      26.818   2.439  51.211  1.00  0.00     0.159 HD
ENDROOT
BRANCH   1  23
HETATM   23  N1  UNL     1      27.147  -2.358  52.392  1.00  0.00    -0.399 N 
HETATM   24  H1  UNL     1      27.119  -2.422  51.357  1.00  0.00     0.156 HD
HETATM   25  H2  UNL     1      27.525  -2.957  53.143  1.00  0.00     0.156 HD
ENDBRANCH   1  23
BRANCH  16  26
HETATM   26  N3  UNL     1      20.890   1.117  49.533  1.00  0.00     0.107 N 
HETATM   27  H15 UNL     1      21.633   0.467  49.188  1.00  0.00     0.316 HD
HETATM   28  H16 UNL     1      20.427   1.632  48.745  1.00  0.00     0.316 HD
ENDBRANCH  16  26
TORSDOF 2
ENDMDL
MODEL 6
REMARK VINA RESULT:      -7.4      2.330      5.958
REMARK  2 active torsions:
REMARK  status: ('A' for Active; 'I' for Inactive)
REMARK    1  A    between atoms: N1_1  and  C1_2 
REMARK    2  A    between atoms: C14_17  and  N3_18 
ROOT
HETATM    1  C1  UNL     1      19.662   2.589  49.504  1.00  0.00     0.026 C 
HETATM    2  C2  UNL     1      19.749   3.837  49.931  1.00  0.00     0.034 C 
HETATM    3  C3  UNL     1      20.263   4.206  51.270  1.00  0.00     0.160 C 
HETATM    4  C4  UNL     1      20.177   3.068  52.265  1.00  0.00     0.093 C 
HETATM    5  C5  UNL     1      20.605   1.780  51.637  1.00  0.00     0.010 C 
HETATM    6  C6  UNL     1      20.116   1.512  50.412  1.00  0.00     0.053 C 
HETATM    7  N2  UNL     1      21.511   0.950  52.410  1.00  0.00    -0.389 N 
HETATM    8  C7  UNL     1      22.835   1.527  52.303  1.00  0.00     0.160 C 
HETATM    9  C8  UNL     1      23.901   0.847  53.023  1.00  0.00    -0.013 A 
HETATM   10  C9  UNL     1      23.897  -0.269  53.822  1.00  0.00     0.019 A 
HETATM   11 BR1  UNL     1      22.198  -1.100  54.050  1.00  0.00    -0.050 Br
HETATM   12  C10 UNL     1      24.980  -0.828  54.457  1.00  0.00     0.020 A 
HETATM   13  C11 UNL     1      26.196  -0.203  54.272  1.00  0.00     0.002 A 
HETATM   14  C12 UNL     1      26.257   0.927  53.476  1.00  0.00     0.012 A 
HETATM   15  C13 UNL     1      25.138   1.483  52.836  1.00  0.00     0.005 A 
HETATM   16  C14 UNL     1      25.544   2.665  52.077  1.00  0.00     0.374 C 
HETATM   17  N4  UNL     1      24.489   3.466  51.546  1.00  0.00    -0.243 NA
HETATM   18  C15 UNL     1      24.715   4.274  50.549  1.00  0.00     0.231 C 
HETATM   19  N5  UNL     1      23.337   4.437  50.856  1.00  0.00    -0.231 NA
HETATM   20  C16 UNL     1      22.373   4.415  50.027  1.00  0.00     0.253 C 
HETATM   21  O1  UNL     1      21.606   4.634  51.189  1.00  0.00    -0.335 OA
HETATM   22  H8  UNL     1      20.640   0.374  52.618  1.00  0.00     0.159 HD
ENDROOT
BRANCH   1  23
HETATM   23  N1  UNL     1      19.169   2.161  48.240  1.00  0.00    -0.399 N 
HETATM   24  H1  UNL     1      19.197   2.958  47.577  1.00  0.00     0.156 HD
HETATM   25  H2  UNL     1      18.872   1.174  48.172  1.00  0.00     0.156 HD
ENDBRANCH   1  23
BRANCH  16  26
HETATM   26  N3  UNL     1      26.392   2.314  50.927  1.00  0.00     0.107 N 
HETATM   27  H15 UNL     1      25.887   2.482  50.026  1.00  0.00     0.316 HD
HETATM   28  H16 UNL     1      26.734   1.326  51.002  1.00  0.00     0.316 HD
ENDBRANCH  16  26
TORSDOF 2
ENDMDL
MODEL 7
REMARK VINA RESULT:      -7.2      3.509      7.430
REMARK  2 active torsions:
REMARK  status: ('A' for Active; 'I' for Inactive)
REMARK    1  A    between atoms: N1_1  and  C1_2 
REMARK    2  A    between atoms: C14_17  and  N3_18 
ROOT
HETATM    1  C1  UNL     1      17.613   3.667  50.679  1.00  0.00     0.026 C 
HETATM    2  C2  UNL     1      17.188   2.555  50.106  1.00  0.00     0.034 C 
HETATM    3  C3  UNL     1      18.096   1.509  49.582  1.00  0.00     0.160 C 
HETATM    4  C4  UNL     1      19.483   2.035  49.279  1.00  0.00     0.093 C 
HETATM    5  C5  UNL     1      19.954   2.948  50.366  1.00  0.00     0.010 C 
HETATM    6  C6  UNL     1      19.074   3.865  50.810  1.00  0.00     0.053 C 
HETATM    7  N2  UNL     1      21.312   2.749  50.838  1.00  0.00    -0.389 N 
HETATM    8  C7  UNL     1      21.309   1.592  51.710  1.00  0.00     0.160 C 
HETATM    9  C8  UNL     1      22.589   1.209  52.287  1.00  0.00    -0.013 A 
HETATM   10  C9  UNL     1      23.847   1.741  52.154  1.00  0.00     0.019 A 
HETATM   11 BR1  UNL     1      23.972   3.258  51.010  1.00  0.00    -0.050 Br
HETATM   12  C10 UNL     1      24.997   1.289  52.757  1.00  0.00     0.020 A 
HETATM   13  C11 UNL     1      24.874   0.189  53.579  1.00  0.00     0.002 A 
HETATM   14  C12 UNL     1      23.627  -0.388  53.748  1.00  0.00     0.012 A 
HETATM   15  C13 UNL     1      22.464   0.089  53.123  1.00  0.00     0.005 A 
HETATM   16  C14 UNL     1      21.324  -0.742  53.511  1.00  0.00     0.374 C 
HETATM   17  N4  UNL     1      20.110  -0.519  52.794  1.00  0.00    -0.243 NA
HETATM   18  C15 UNL     1      18.969  -0.886  53.303  1.00  0.00     0.231 C 
HETATM   19  N5  UNL     1      18.647  -0.309  52.046  1.00  0.00    -0.231 NA
HETATM   20  C16 UNL     1      17.750   0.565  51.826  1.00  0.00     0.253 C 
HETATM   21  O1  UNL     1      18.209   0.440  50.499  1.00  0.00    -0.335 OA
HETATM   22  H8  UNL     1      21.533   3.604  50.245  1.00  0.00     0.159 HD
ENDROOT
BRANCH   1  23
HETATM   23  N1  UNL     1      16.803   4.717  51.192  1.00  0.00    -0.399 N 
HETATM   24  H1  UNL     1      17.145   4.980  52.136  1.00  0.00     0.156 HD
HETATM   25  H2  UNL     1      16.035   5.045  50.585  1.00  0.00     0.156 HD
ENDBRANCH   1  23
BRANCH  16  26
HETATM   26  N3  UNL     1      20.980  -0.572  54.932  1.00  0.00     0.107 N 
HETATM   27  H15 UNL     1      19.999  -0.883  55.118  1.00  0.00     0.316 HD
HETATM   28  H16 UNL     1      21.138   0.419  55.239  1.00  0.00     0.316 HD
ENDBRANCH  16  26
TORSDOF 2
ENDMDL
MODEL 8
REMARK VINA RESULT:      -6.9      6.752      9.233
REMARK  2 active torsions:
REMARK  status: ('A' for Active; 'I' for Inactive)
REMARK    1  A    between atoms: N1_1  and  C1_2 
REMARK    2  A    between atoms: C14_17  and  N3_18 
ROOT
HETATM    1  C1  UNL     1      18.685  -0.565  52.477  1.00  0.00     0.026 C 
HETATM    2  C2  UNL     1      18.703   0.021  51.292  1.00  0.00     0.034 C 
HETATM    3  C3  UNL     1      17.482   0.304  50.504  1.00  0.00     0.160 C 
HETATM    4  C4  UNL     1      16.313  -0.575  50.898  1.00  0.00     0.093 C 
HETATM    5  C5  UNL     1      16.222  -0.702  52.385  1.00  0.00     0.010 C 
HETATM    6  C6  UNL     1      17.371  -0.942  53.044  1.00  0.00     0.053 C 
HETATM    7  N2  UNL     1      14.902  -0.547  52.970  1.00  0.00    -0.389 N 
HETATM    8  C7  UNL     1      14.598   0.869  52.998  1.00  0.00     0.160 C 
HETATM    9  C8  UNL     1      13.301   1.244  53.542  1.00  0.00    -0.013 A 
HETATM   10  C9  UNL     1      12.268   0.492  54.042  1.00  0.00     0.019 A 
HETATM   11 BR1  UNL     1      12.552  -1.390  54.034  1.00  0.00    -0.050 Br
HETATM   12  C10 UNL     1      11.074   0.964  54.536  1.00  0.00     0.020 A 
HETATM   13  C11 UNL     1      10.899   2.331  54.529  1.00  0.00     0.002 A 
HETATM   14  C12 UNL     1      11.910   3.137  54.035  1.00  0.00     0.012 A 
HETATM   15  C13 UNL     1      13.122   2.636  53.534  1.00  0.00     0.005 A 
HETATM   16  C14 UNL     1      13.966   3.746  53.094  1.00  0.00     0.374 C 
HETATM   17  N4  UNL     1      15.141   3.393  52.364  1.00  0.00    -0.243 NA
HETATM   18  C15 UNL     1      16.139   4.225  52.283  1.00  0.00     0.231 C 
HETATM   19  N5  UNL     1      16.546   3.083  51.543  1.00  0.00    -0.231 NA
HETATM   20  C16 UNL     1      17.656   2.471  51.651  1.00  0.00     0.253 C 
HETATM   21  O1  UNL     1      17.098   1.656  50.646  1.00  0.00    -0.335 OA
HETATM   22  H8  UNL     1      14.923  -1.609  53.041  1.00  0.00     0.159 HD
ENDROOT
BRANCH   1  23
HETATM   23  N1  UNL     1      19.814  -0.878  53.283  1.00  0.00    -0.399 N 
HETATM   24  H1  UNL     1      19.654  -0.524  54.245  1.00  0.00     0.156 HD
HETATM   25  H2  UNL     1      20.586  -1.383  52.818  1.00  0.00     0.156 HD
ENDBRANCH   1  23
BRANCH  16  26
HETATM   26  N3  UNL     1      14.435   4.561  54.226  1.00  0.00     0.107 N 
HETATM   27  H15 UNL     1      13.638   4.831  54.848  1.00  0.00     0.316 HD
HETATM   28  H16 UNL     1      14.966   5.401  53.888  1.00  0.00     0.316 HD
ENDBRANCH  16  26
TORSDOF 2
ENDMDL
MODEL 9
REMARK VINA RESULT:      -6.9      3.918      5.836
REMARK  2 active torsions:
REMARK  status: ('A' for Active; 'I' for Inactive)
REMARK    1  A    between atoms: N1_1  and  C1_2 
REMARK    2  A    between atoms: C14_17  and  N3_18 
ROOT
HETATM    1  C1  UNL     1      25.533   0.833  52.190  1.00  0.00     0.026 C 
HETATM    2  C2  UNL     1      24.353   0.766  52.781  1.00  0.00     0.034 C 
HETATM    3  C3  UNL     1      23.425   1.917  52.879  1.00  0.00     0.160 C 
HETATM    4  C4  UNL     1      24.127   3.250  52.735  1.00  0.00     0.093 C 
HETATM    5  C5  UNL     1      25.134   3.203  51.630  1.00  0.00     0.010 C 
HETATM    6  C6  UNL     1      25.936   2.123  51.587  1.00  0.00     0.053 C 
HETATM    7  N2  UNL     1      25.141   4.327  50.711  1.00  0.00    -0.389 N 
HETATM    8  C7  UNL     1      24.027   4.158  49.802  1.00  0.00     0.160 C 
HETATM    9  C8  UNL     1      23.845   5.194  48.796  1.00  0.00    -0.013 A 
HETATM   10  C9  UNL     1      24.541   6.348  48.536  1.00  0.00     0.019 A 
HETATM   11 BR1  UNL     1      26.020   6.683  49.688  1.00  0.00    -0.050 Br
HETATM   12  C10 UNL     1      24.274   7.262  47.545  1.00  0.00     0.020 A 
HETATM   13  C11 UNL     1      23.198   6.991  46.727  1.00  0.00     0.002 A 
HETATM   14  C12 UNL     1      22.460   5.840  46.945  1.00  0.00     0.012 A 
HETATM   15  C13 UNL     1      22.749   4.919  47.964  1.00  0.00     0.005 A 
HETATM   16  C14 UNL     1      21.783   3.822  47.920  1.00  0.00     0.374 C 
HETATM   17  N4  UNL     1      21.810   2.915  49.022  1.00  0.00    -0.243 NA
HETATM   18  C15 UNL     1      21.307   1.720  48.902  1.00  0.00     0.231 C 
HETATM   19  N5  UNL     1      21.789   1.788  50.236  1.00  0.00    -0.231 NA
HETATM   20  C16 UNL     1      22.522   0.927  50.818  1.00  0.00     0.253 C 
HETATM   21  O1  UNL     1      22.415   1.829  51.895  1.00  0.00    -0.335 OA
HETATM   22  H8  UNL     1      25.997   4.638  51.261  1.00  0.00     0.159 HD
ENDROOT
BRANCH   1  23
HETATM   23  N1  UNL     1      26.478  -0.223  52.069  1.00  0.00    -0.399 N 
HETATM   24  H1  UNL     1      26.331  -0.901  52.841  1.00  0.00     0.156 HD
HETATM   25  H2  UNL     1      27.136  -0.164  51.275  1.00  0.00     0.156 HD
ENDBRANCH   1  23
BRANCH  16  26
HETATM   26  N3  UNL     1      21.953   2.988  46.719  1.00  0.00     0.107 N 
HETATM   27  H15 UNL     1      22.865   3.192  46.249  1.00  0.00     0.316 HD
HETATM   28  H16 UNL     1      21.143   3.107  46.063  1.00  0.00     0.316 HD
ENDBRANCH  16  26
TORSDOF 2
ENDMDL
