MODEL 1
REMARK VINA RESULT:      -7.9      0.000      0.000
REMARK  6 active torsions:
REMARK  status: ('A' for Active; 'I' for Inactive)
REMARK    1  A    between atoms: C7_7  and  N1_8 
REMARK    2  A    between atoms: N1_8  and  C8_9 
REMARK    3  A    between atoms: C8_9  and  C9_10 
REMARK    4  A    between atoms: C11_12  and  C12_13 
REMARK    5  A    between atoms: C12_13  and  O1_14 
REMARK    6  A    between atoms: C14_16  and  N2_19 
ROOT
HETATM    1  C1  UNL     1      30.617   5.459  47.828  1.00  0.00     0.018 C 
HETATM    2  C2  UNL     1      29.437   5.518  48.084  1.00  0.00    -0.078 C 
HETATM    3  C3  UNL     1      28.049   5.574  48.398  1.00  0.00     0.019 A 
HETATM    4  C4  UNL     1      27.352   6.740  48.205  1.00  0.00     0.021 A 
HETATM    5  C5  UNL     1      26.004   6.736  48.529  1.00  0.00     0.004 A 
HETATM    6  C6  UNL     1      25.343   5.621  49.029  1.00  0.00     0.029 A 
HETATM    7  C7  UNL     1      26.123   4.501  49.188  1.00  0.00     0.029 A 
HETATM    8  C18 UNL     1      27.467   4.417  48.892  1.00  0.00     0.049 A 
ENDROOT
BRANCH   7   9
HETATM    9  N1  UNL     1      25.500   3.331  49.694  1.00  0.00    -0.386 N 
HETATM   10  H5  UNL     1      25.388   2.444  49.140  1.00  0.00     0.160 HD
BRANCH   9  11
HETATM   11  C8  UNL     1      24.962   3.290  51.049  1.00  0.00     0.157 C 
BRANCH  11  12
HETATM   12  C9  UNL     1      25.194   1.997  51.731  1.00  0.00    -0.020 A 
HETATM   13  C10 UNL     1      26.458   1.408  51.626  1.00  0.00     0.016 A 
HETATM   14  C11 UNL     1      25.996   0.355  52.417  1.00  0.00     0.002 A 
HETATM   15  C14 UNL     1      24.640   0.320  52.924  1.00  0.00     0.255 A 
HETATM   16  C15 UNL     1      23.322   0.990  52.999  1.00  0.00     0.315 A 
HETATM   17  N3  UNL     1      24.421  -0.900  53.732  1.00  0.00    -0.355 N 
HETATM   18  C17 UNL     1      23.153  -0.179  53.756  1.00  0.00     0.339 A 
HETATM   19  C16 UNL     1      23.962   1.769  52.307  1.00  0.00     0.236 A 
HETATM   20  N2  UNL     1      23.973   0.531  53.039  1.00  0.00     0.019 N 
HETATM   21  H16 UNL     1      25.042  -1.731  54.008  1.00  0.00     0.158 HD
BRANCH  14  22
HETATM   22  C12 UNL     1      26.921  -0.777  52.710  1.00  0.00     0.205 C 
BRANCH  22  23
HETATM   23  O1  UNL     1      27.255  -0.773  54.036  1.00  0.00    -0.392 OA
HETATM   24  C13 UNL     1      28.192   0.164  54.394  1.00  0.00     0.201 C 
ENDBRANCH  22  23
ENDBRANCH  14  22
ENDBRANCH  11  12
ENDBRANCH   9  11
ENDBRANCH   7   9
TORSDOF 6
ENDMDL
MODEL 2
REMARK VINA RESULT:      -7.7      1.443      2.635
REMARK  6 active torsions:
REMARK  status: ('A' for Active; 'I' for Inactive)
REMARK    1  A    between atoms: C7_7  and  N1_8 
REMARK    2  A    between atoms: N1_8  and  C8_9 
REMARK    3  A    between atoms: C8_9  and  C9_10 
REMARK    4  A    between atoms: C11_12  and  C12_13 
REMARK    5  A    between atoms: C12_13  and  O1_14 
REMARK    6  A    between atoms: C14_16  and  N2_19 
ROOT
HETATM    1  C1  UNL     1      29.815   6.050  47.891  1.00  0.00     0.018 C 
HETATM    2  C2  UNL     1      28.660   5.856  48.185  1.00  0.00    -0.078 C 
HETATM    3  C3  UNL     1      27.303   5.616  48.547  1.00  0.00     0.019 A 
HETATM    4  C4  UNL     1      26.347   6.562  48.274  1.00  0.00     0.021 A 
HETATM    5  C5  UNL     1      25.044   6.274  48.650  1.00  0.00     0.004 A 
HETATM    6  C6  UNL     1      24.673   5.091  49.277  1.00  0.00     0.029 A 
HETATM    7  C7  UNL     1      25.699   4.206  49.508  1.00  0.00     0.029 A 
HETATM    8  C18 UNL     1      27.020   4.410  49.169  1.00  0.00     0.049 A 
ENDROOT
BRANCH   7   9
HETATM    9  N1  UNL     1      25.378   2.979  50.144  1.00  0.00    -0.386 N 
HETATM   10  H5  UNL     1      25.755   2.047  49.837  1.00  0.00     0.160 HD
BRANCH   9  11
HETATM   11  C8  UNL     1      24.482   2.939  51.294  1.00  0.00     0.157 C 
BRANCH  11  12
HETATM   12  C9  UNL     1      24.602   1.693  52.085  1.00  0.00    -0.020 A 
HETATM   13  C10 UNL     1      23.469   1.222  52.757  1.00  0.00     0.016 A 
HETATM   14  C11 UNL     1      24.232   0.151  53.223  1.00  0.00     0.002 A 
HETATM   15  C14 UNL     1      25.631   0.003  52.877  1.00  0.00     0.255 A 
HETATM   16  C15 UNL     1      26.796   0.550  52.146  1.00  0.00     0.315 A 
HETATM   17  N3  UNL     1      26.192  -1.216  53.500  1.00  0.00    -0.355 N 
HETATM   18  C17 UNL     1      27.292  -0.612  52.755  1.00  0.00     0.339 A 
HETATM   19  C16 UNL     1      25.925   1.367  51.880  1.00  0.00     0.236 A 
HETATM   20  N2  UNL     1      26.256   0.153  52.579  1.00  0.00     0.019 N 
HETATM   21  H16 UNL     1      25.786  -1.983  54.132  1.00  0.00     0.158 HD
BRANCH  14  22
HETATM   22  C12 UNL     1      23.590  -0.841  54.132  1.00  0.00     0.205 C 
BRANCH  22  23
HETATM   23  O1  UNL     1      22.407  -1.266  53.594  1.00  0.00    -0.392 OA
HETATM   24  C13 UNL     1      21.354  -1.308  54.472  1.00  0.00     0.201 C 
ENDBRANCH  22  23
ENDBRANCH  14  22
ENDBRANCH  11  12
ENDBRANCH   9  11
ENDBRANCH   7   9
TORSDOF 6
ENDMDL
MODEL 3
REMARK VINA RESULT:      -7.6      4.327      9.003
REMARK  6 active torsions:
REMARK  status: ('A' for Active; 'I' for Inactive)
REMARK    1  A    between atoms: C7_7  and  N1_8 
REMARK    2  A    between atoms: N1_8  and  C8_9 
REMARK    3  A    between atoms: C8_9  and  C9_10 
REMARK    4  A    between atoms: C11_12  and  C12_13 
REMARK    5  A    between atoms: C12_13  and  O1_14 
REMARK    6  A    between atoms: C14_16  and  N2_19 
ROOT
HETATM    1  C1  UNL     1      16.307  -5.174  53.947  1.00  0.00     0.018 C 
HETATM    2  C2  UNL     1      16.659  -4.072  53.600  1.00  0.00    -0.078 C 
HETATM    3  C3  UNL     1      17.092  -2.777  53.195  1.00  0.00     0.019 A 
HETATM    4  C4  UNL     1      16.358  -2.068  52.277  1.00  0.00     0.021 A 
HETATM    5  C5  UNL     1      16.828  -0.814  51.920  1.00  0.00     0.004 A 
HETATM    6  C6  UNL     1      17.988  -0.255  52.442  1.00  0.00     0.029 A 
HETATM    7  C7  UNL     1      18.654  -1.039  53.353  1.00  0.00     0.029 A 
HETATM    8  C18 UNL     1      18.259  -2.294  53.765  1.00  0.00     0.049 A 
ENDROOT
BRANCH   7   9
HETATM    9  N1  UNL     1      19.845  -0.518  53.922  1.00  0.00    -0.386 N 
HETATM   10  H5  UNL     1      19.967   0.489  54.200  1.00  0.00     0.160 HD
BRANCH   9  11
HETATM   11  C8  UNL     1      21.002  -1.373  54.162  1.00  0.00     0.157 C 
BRANCH  11  12
HETATM   12  C9  UNL     1      22.287  -0.733  53.798  1.00  0.00    -0.020 A 
HETATM   13  C10 UNL     1      23.417  -1.031  54.566  1.00  0.00     0.016 A 
HETATM   14  C11 UNL     1      24.158  -0.181  53.744  1.00  0.00     0.002 A 
HETATM   15  C14 UNL     1      23.552   0.528  52.636  1.00  0.00     0.255 A 
HETATM   16  C15 UNL     1      22.322   0.806  51.861  1.00  0.00     0.315 A 
HETATM   17  N3  UNL     1      24.561   1.351  51.934  1.00  0.00    -0.355 N 
HETATM   18  C17 UNL     1      23.306   1.575  51.223  1.00  0.00     0.339 A 
HETATM   19  C16 UNL     1      21.914   0.025  52.709  1.00  0.00     0.236 A 
HETATM   20  N2  UNL     1      23.046   0.744  52.188  1.00  0.00     0.019 N 
HETATM   21  H16 UNL     1      25.612   1.520  52.075  1.00  0.00     0.158 HD
BRANCH  14  22
HETATM   22  C12 UNL     1      25.603   0.023  54.046  1.00  0.00     0.205 C 
BRANCH  22  23
HETATM   23  O1  UNL     1      26.270  -1.168  53.959  1.00  0.00    -0.392 OA
HETATM   24  C13 UNL     1      26.831  -1.429  52.735  1.00  0.00     0.201 C 
ENDBRANCH  22  23
ENDBRANCH  14  22
ENDBRANCH  11  12
ENDBRANCH   9  11
ENDBRANCH   7   9
TORSDOF 6
ENDMDL
MODEL 4
REMARK VINA RESULT:      -7.5      2.863      7.358
REMARK  6 active torsions:
REMARK  status: ('A' for Active; 'I' for Inactive)
REMARK    1  A    between atoms: C7_7  and  N1_8 
REMARK    2  A    between atoms: N1_8  and  C8_9 
REMARK    3  A    between atoms: C8_9  and  C9_10 
REMARK    4  A    between atoms: C11_12  and  C12_13 
REMARK    5  A    between atoms: C12_13  and  O1_14 
REMARK    6  A    between atoms: C14_16  and  N2_19 
ROOT
HETATM    1  C1  UNL     1      27.791  -2.393  52.746  1.00  0.00     0.018 C 
HETATM    2  C2  UNL     1      27.050  -1.440  52.703  1.00  0.00    -0.078 C 
HETATM    3  C3  UNL     1      26.185  -0.310  52.637  1.00  0.00     0.019 A 
HETATM    4  C4  UNL     1      24.926  -0.382  53.177  1.00  0.00     0.021 A 
HETATM    5  C5  UNL     1      24.128   0.748  53.082  1.00  0.00     0.004 A 
HETATM    6  C6  UNL     1      24.543   1.927  52.475  1.00  0.00     0.029 A 
HETATM    7  C7  UNL     1      25.818   1.903  51.964  1.00  0.00     0.029 A 
HETATM    8  C18 UNL     1      26.678   0.826  52.014  1.00  0.00     0.049 A 
ENDROOT
BRANCH   7   9
HETATM    9  N1  UNL     1      26.296   3.081  51.334  1.00  0.00    -0.386 N 
HETATM   10  H5  UNL     1      26.613   3.936  51.859  1.00  0.00     0.160 HD
BRANCH   9  11
HETATM   11  C8  UNL     1      26.379   3.178  49.881  1.00  0.00     0.157 C 
BRANCH  11  12
HETATM   12  C9  UNL     1      26.626   4.556  49.400  1.00  0.00    -0.020 A 
HETATM   13  C10 UNL     1      27.740   4.786  48.586  1.00  0.00     0.016 A 
HETATM   14  C11 UNL     1      27.377   6.132  48.526  1.00  0.00     0.002 A 
HETATM   15  C14 UNL     1      26.205   6.637  49.212  1.00  0.00     0.255 A 
HETATM   16  C15 UNL     1      25.042   6.334  50.076  1.00  0.00     0.315 A 
HETATM   17  N3  UNL     1      26.055   8.090  48.976  1.00  0.00    -0.355 N 
HETATM   18  C17 UNL     1      24.935   7.711  49.832  1.00  0.00     0.339 A 
HETATM   19  C16 UNL     1      25.569   5.235  49.967  1.00  0.00     0.236 A 
HETATM   20  N2  UNL     1      25.621   6.629  49.612  1.00  0.00     0.019 N 
HETATM   21  H16 UNL     1      26.617   8.816  48.420  1.00  0.00     0.158 HD
BRANCH  14  22
HETATM   22  C12 UNL     1      28.247   7.072  47.764  1.00  0.00     0.205 C 
BRANCH  22  23
HETATM   23  O1  UNL     1      29.019   7.796  48.630  1.00  0.00    -0.392 OA
HETATM   24  C13 UNL     1      29.595   8.919  48.091  1.00  0.00     0.201 C 
ENDBRANCH  22  23
ENDBRANCH  14  22
ENDBRANCH  11  12
ENDBRANCH   9  11
ENDBRANCH   7   9
TORSDOF 6
ENDMDL
MODEL 5
REMARK VINA RESULT:      -7.5      3.235      7.592
REMARK  6 active torsions:
REMARK  status: ('A' for Active; 'I' for Inactive)
REMARK    1  A    between atoms: C7_7  and  N1_8 
REMARK    2  A    between atoms: N1_8  and  C8_9 
REMARK    3  A    between atoms: C8_9  and  C9_10 
REMARK    4  A    between atoms: C11_12  and  C12_13 
REMARK    5  A    between atoms: C12_13  and  O1_14 
REMARK    6  A    between atoms: C14_16  and  N2_19 
ROOT
HETATM    1  C1  UNL     1      17.397  -3.182  53.800  1.00  0.00     0.018 C 
HETATM    2  C2  UNL     1      18.024  -2.202  53.473  1.00  0.00    -0.078 C 
HETATM    3  C3  UNL     1      18.779  -1.056  53.092  1.00  0.00     0.019 A 
HETATM    4  C4  UNL     1      18.231  -0.131  52.239  1.00  0.00     0.021 A 
HETATM    5  C5  UNL     1      19.013   0.963  51.902  1.00  0.00     0.004 A 
HETATM    6  C6  UNL     1      20.302   1.158  52.381  1.00  0.00     0.029 A 
HETATM    7  C7  UNL     1      20.764   0.179  53.228  1.00  0.00     0.029 A 
HETATM    8  C18 UNL     1      20.057  -0.939  53.616  1.00  0.00     0.049 A 
ENDROOT
BRANCH   7   9
HETATM    9  N1  UNL     1      22.075   0.327  53.751  1.00  0.00    -0.386 N 
HETATM   10  H5  UNL     1      22.394   1.169  54.293  1.00  0.00     0.160 HD
BRANCH   9  11
HETATM   11  C8  UNL     1      23.083  -0.709  53.560  1.00  0.00     0.157 C 
BRANCH  11  12
HETATM   12  C9  UNL     1      24.458  -0.173  53.442  1.00  0.00    -0.020 A 
HETATM   13  C10 UNL     1      25.449  -0.695  54.279  1.00  0.00     0.016 A 
HETATM   14  C11 UNL     1      26.364   0.171  53.680  1.00  0.00     0.002 A 
HETATM   15  C14 UNL     1      25.972   1.087  52.629  1.00  0.00     0.255 A 
HETATM   16  C15 UNL     1      24.882   1.602  51.770  1.00  0.00     0.315 A 
HETATM   17  N3  UNL     1      27.136   1.880  52.174  1.00  0.00    -0.355 N 
HETATM   18  C17 UNL     1      26.007   2.336  51.368  1.00  0.00     0.339 A 
HETATM   19  C16 UNL     1      24.299   0.763  52.442  1.00  0.00     0.236 A 
HETATM   20  N2  UNL     1      25.551   1.416  52.164  1.00  0.00     0.019 N 
HETATM   21  H16 UNL     1      28.171   1.911  52.455  1.00  0.00     0.158 HD
BRANCH  14  22
HETATM   22  C12 UNL     1      27.772   0.171  54.170  1.00  0.00     0.205 C 
BRANCH  22  23
HETATM   23  O1  UNL     1      28.594  -0.376  53.223  1.00  0.00    -0.392 OA
HETATM   24  C13 UNL     1      29.834  -0.747  53.678  1.00  0.00     0.201 C 
ENDBRANCH  22  23
ENDBRANCH  14  22
ENDBRANCH  11  12
ENDBRANCH   9  11
ENDBRANCH   7   9
TORSDOF 6
ENDMDL
MODEL 6
REMARK VINA RESULT:      -7.4      2.863      7.530
REMARK  6 active torsions:
REMARK  status: ('A' for Active; 'I' for Inactive)
REMARK    1  A    between atoms: C7_7  and  N1_8 
REMARK    2  A    between atoms: N1_8  and  C8_9 
REMARK    3  A    between atoms: C8_9  and  C9_10 
REMARK    4  A    between atoms: C11_12  and  C12_13 
REMARK    5  A    between atoms: C12_13  and  O1_14 
REMARK    6  A    between atoms: C14_16  and  N2_19 
ROOT
HETATM    1  C1  UNL     1      21.614   0.530  53.062  1.00  0.00     0.018 C 
HETATM    2  C2  UNL     1      22.810   0.566  52.896  1.00  0.00    -0.078 C 
HETATM    3  C3  UNL     1      24.220   0.627  52.701  1.00  0.00     0.019 A 
HETATM    4  C4  UNL     1      25.015  -0.401  53.141  1.00  0.00     0.021 A 
HETATM    5  C5  UNL     1      26.380  -0.286  52.924  1.00  0.00     0.004 A 
HETATM    6  C6  UNL     1      26.964   0.805  52.292  1.00  0.00     0.029 A 
HETATM    7  C7  UNL     1      26.087   1.783  51.887  1.00  0.00     0.029 A 
HETATM    8  C18 UNL     1      24.720   1.751  52.061  1.00  0.00     0.049 A 
ENDROOT
BRANCH   7   9
HETATM    9  N1  UNL     1      26.628   2.920  51.233  1.00  0.00    -0.386 N 
HETATM   10  H5  UNL     1      27.186   3.664  51.724  1.00  0.00     0.160 HD
BRANCH   9  11
HETATM   11  C8  UNL     1      26.435   3.130  49.803  1.00  0.00     0.157 C 
BRANCH  11  12
HETATM   12  C9  UNL     1      26.643   4.534  49.384  1.00  0.00    -0.020 A 
HETATM   13  C10 UNL     1      27.730   4.826  48.554  1.00  0.00     0.016 A 
HETATM   14  C11 UNL     1      27.340   6.165  48.570  1.00  0.00     0.002 A 
HETATM   15  C14 UNL     1      26.178   6.613  49.310  1.00  0.00     0.255 A 
HETATM   16  C15 UNL     1      25.045   6.245  50.189  1.00  0.00     0.315 A 
HETATM   17  N3  UNL     1      25.994   8.072  49.151  1.00  0.00    -0.355 N 
HETATM   18  C17 UNL     1      24.905   7.629  50.016  1.00  0.00     0.339 A 
HETATM   19  C16 UNL     1      25.589   5.163  50.012  1.00  0.00     0.236 A 
HETATM   20  N2  UNL     1      25.605   6.573  49.725  1.00  0.00     0.019 N 
HETATM   21  H16 UNL     1      26.528   8.836  48.617  1.00  0.00     0.158 HD
BRANCH  14  22
HETATM   22  C12 UNL     1      28.171   7.159  47.833  1.00  0.00     0.205 C 
BRANCH  22  23
HETATM   23  O1  UNL     1      28.955   7.854  48.713  1.00  0.00    -0.392 OA
HETATM   24  C13 UNL     1      30.197   8.193  48.238  1.00  0.00     0.201 C 
ENDBRANCH  22  23
ENDBRANCH  14  22
ENDBRANCH  11  12
ENDBRANCH   9  11
ENDBRANCH   7   9
TORSDOF 6
ENDMDL
MODEL 7
REMARK VINA RESULT:      -7.4      2.950      7.563
REMARK  6 active torsions:
REMARK  status: ('A' for Active; 'I' for Inactive)
REMARK    1  A    between atoms: C7_7  and  N1_8 
REMARK    2  A    between atoms: N1_8  and  C8_9 
REMARK    3  A    between atoms: C8_9  and  C9_10 
REMARK    4  A    between atoms: C11_12  and  C12_13 
REMARK    5  A    between atoms: C12_13  and  O1_14 
REMARK    6  A    between atoms: C14_16  and  N2_19 
ROOT
HETATM    1  C1  UNL     1      29.668  -1.174  53.722  1.00  0.00     0.018 C 
HETATM    2  C2  UNL     1      28.653  -0.629  53.356  1.00  0.00    -0.078 C 
HETATM    3  C3  UNL     1      27.468   0.023  52.912  1.00  0.00     0.019 A 
HETATM    4  C4  UNL     1      26.246  -0.565  53.121  1.00  0.00     0.021 A 
HETATM    5  C5  UNL     1      25.127   0.115  52.666  1.00  0.00     0.004 A 
HETATM    6  C6  UNL     1      25.190   1.343  52.021  1.00  0.00     0.029 A 
HETATM    7  C7  UNL     1      26.455   1.852  51.857  1.00  0.00     0.029 A 
HETATM    8  C18 UNL     1      27.620   1.246  52.277  1.00  0.00     0.049 A 
ENDROOT
BRANCH   7   9
HETATM    9  N1  UNL     1      26.580   3.107  51.205  1.00  0.00    -0.386 N 
HETATM   10  H5  UNL     1      26.645   4.024  51.714  1.00  0.00     0.160 HD
BRANCH   9  11
HETATM   11  C8  UNL     1      26.627   3.198  49.750  1.00  0.00     0.157 C 
BRANCH  11  12
HETATM   12  C9  UNL     1      26.229   4.528  49.235  1.00  0.00    -0.020 A 
HETATM   13  C10 UNL     1      24.880   4.891  49.305  1.00  0.00     0.016 A 
HETATM   14  C11 UNL     1      25.213   6.112  48.717  1.00  0.00     0.002 A 
HETATM   15  C14 UNL     1      26.576   6.433  48.345  1.00  0.00     0.255 A 
HETATM   16  C15 UNL     1      27.989   5.994  48.296  1.00  0.00     0.315 A 
HETATM   17  N3  UNL     1      26.644   7.786  47.749  1.00  0.00    -0.355 N 
HETATM   18  C17 UNL     1      28.013   7.279  47.735  1.00  0.00     0.339 A 
HETATM   19  C16 UNL     1      27.442   5.028  48.811  1.00  0.00     0.236 A 
HETATM   20  N2  UNL     1      27.275   6.349  48.264  1.00  0.00     0.019 N 
HETATM   21  H16 UNL     1      25.915   8.547  47.546  1.00  0.00     0.158 HD
BRANCH  14  22
HETATM   22  C12 UNL     1      24.123   7.088  48.433  1.00  0.00     0.205 C 
BRANCH  22  23
HETATM   23  O1  UNL     1      24.253   8.179  49.249  1.00  0.00    -0.392 OA
HETATM   24  C13 UNL     1      23.437   8.177  50.352  1.00  0.00     0.201 C 
ENDBRANCH  22  23
ENDBRANCH  14  22
ENDBRANCH  11  12
ENDBRANCH   9  11
ENDBRANCH   7   9
TORSDOF 6
ENDMDL
MODEL 8
REMARK VINA RESULT:      -7.4      3.382      6.758
REMARK  6 active torsions:
REMARK  status: ('A' for Active; 'I' for Inactive)
REMARK    1  A    between atoms: C7_7  and  N1_8 
REMARK    2  A    between atoms: N1_8  and  C8_9 
REMARK    3  A    between atoms: C8_9  and  C9_10 
REMARK    4  A    between atoms: C11_12  and  C12_13 
REMARK    5  A    between atoms: C12_13  and  O1_14 
REMARK    6  A    between atoms: C14_16  and  N2_19 
ROOT
HETATM    1  C1  UNL     1      19.223   2.190  49.111  1.00  0.00     0.018 C 
HETATM    2  C2  UNL     1      19.348   1.535  50.119  1.00  0.00    -0.078 C 
HETATM    3  C3  UNL     1      19.509   0.776  51.313  1.00  0.00     0.019 A 
HETATM    4  C4  UNL     1      18.489  -0.033  51.750  1.00  0.00     0.021 A 
HETATM    5  C5  UNL     1      18.701  -0.747  52.919  1.00  0.00     0.004 A 
HETATM    6  C6  UNL     1      19.879  -0.679  53.652  1.00  0.00     0.029 A 
HETATM    7  C7  UNL     1      20.840   0.157  53.137  1.00  0.00     0.029 A 
HETATM    8  C18 UNL     1      20.715   0.902  51.984  1.00  0.00     0.049 A 
ENDROOT
BRANCH   7   9
HETATM    9  N1  UNL     1      22.066   0.264  53.844  1.00  0.00    -0.386 N 
HETATM   10  H5  UNL     1      22.322   1.087  54.447  1.00  0.00     0.160 HD
BRANCH   9  11
HETATM   11  C8  UNL     1      23.071  -0.791  53.774  1.00  0.00     0.157 C 
BRANCH  11  12
HETATM   12  C9  UNL     1      24.456  -0.275  53.700  1.00  0.00    -0.020 A 
HETATM   13  C10 UNL     1      25.389  -0.741  54.633  1.00  0.00     0.016 A 
HETATM   14  C11 UNL     1      26.349   0.071  54.028  1.00  0.00     0.002 A 
HETATM   15  C14 UNL     1      26.032   0.909  52.889  1.00  0.00     0.255 A 
HETATM   16  C15 UNL     1      25.002   1.366  51.929  1.00  0.00     0.315 A 
HETATM   17  N3  UNL     1      27.230   1.657  52.448  1.00  0.00    -0.355 N 
HETATM   18  C17 UNL     1      26.158   2.059  51.543  1.00  0.00     0.339 A 
HETATM   19  C16 UNL     1      24.369   0.584  52.625  1.00  0.00     0.236 A 
HETATM   20  N2  UNL     1      25.643   1.205  52.376  1.00  0.00     0.019 N 
HETATM   21  H16 UNL     1      28.247   1.701  52.789  1.00  0.00     0.158 HD
BRANCH  14  22
HETATM   22  C12 UNL     1      27.725   0.098  54.601  1.00  0.00     0.205 C 
BRANCH  22  23
HETATM   23  O1  UNL     1      28.466  -0.925  54.078  1.00  0.00    -0.392 OA
HETATM   24  C13 UNL     1      29.736  -0.578  53.688  1.00  0.00     0.201 C 
ENDBRANCH  22  23
ENDBRANCH  14  22
ENDBRANCH  11  12
ENDBRANCH   9  11
ENDBRANCH   7   9
TORSDOF 6
ENDMDL
MODEL 9
REMARK VINA RESULT:      -7.3      4.038      5.861
REMARK  6 active torsions:
REMARK  status: ('A' for Active; 'I' for Inactive)
REMARK    1  A    between atoms: C7_7  and  N1_8 
REMARK    2  A    between atoms: N1_8  and  C8_9 
REMARK    3  A    between atoms: C8_9  and  C9_10 
REMARK    4  A    between atoms: C11_12  and  C12_13 
REMARK    5  A    between atoms: C12_13  and  O1_14 
REMARK    6  A    between atoms: C14_16  and  N2_19 
ROOT
HETATM    1  C1  UNL     1      29.039  -2.811  53.270  1.00  0.00     0.018 C 
HETATM    2  C2  UNL     1      28.743  -1.639  53.246  1.00  0.00    -0.078 C 
HETATM    3  C3  UNL     1      28.376  -0.264  53.216  1.00  0.00     0.019 A 
HETATM    4  C4  UNL     1      29.206   0.676  53.775  1.00  0.00     0.021 A 
HETATM    5  C5  UNL     1      28.797   1.999  53.718  1.00  0.00     0.004 A 
HETATM    6  C6  UNL     1      27.606   2.406  53.130  1.00  0.00     0.029 A 
HETATM    7  C7  UNL     1      26.842   1.394  52.598  1.00  0.00     0.029 A 
HETATM    8  C18 UNL     1      27.171   0.056  52.610  1.00  0.00     0.049 A 
ENDROOT
BRANCH   7   9
HETATM    9  N1  UNL     1      25.615   1.751  51.982  1.00  0.00    -0.386 N 
HETATM   10  H5  UNL     1      25.354   1.478  51.001  1.00  0.00     0.160 HD
BRANCH   9  11
HETATM   11  C8  UNL     1      24.616   2.540  52.694  1.00  0.00     0.157 C 
BRANCH  11  12
HETATM   12  C9  UNL     1      23.281   1.902  52.725  1.00  0.00    -0.020 A 
HETATM   13  C10 UNL     1      22.187   2.626  52.238  1.00  0.00     0.016 A 
HETATM   14  C11 UNL     1      21.372   1.536  52.543  1.00  0.00     0.002 A 
HETATM   15  C14 UNL     1      21.906   0.325  53.133  1.00  0.00     0.255 A 
HETATM   16  C15 UNL     1      23.100  -0.392  53.636  1.00  0.00     0.315 A 
HETATM   17  N3  UNL     1      20.828  -0.666  53.346  1.00  0.00    -0.355 N 
HETATM   18  C17 UNL     1      22.051  -1.303  53.824  1.00  0.00     0.339 A 
HETATM   19  C16 UNL     1      23.578   0.676  53.280  1.00  0.00     0.236 A 
HETATM   20  N2  UNL     1      22.387  -0.122  53.399  1.00  0.00     0.019 N 
HETATM   21  H16 UNL     1      19.772  -0.668  53.157  1.00  0.00     0.158 HD
BRANCH  14  22
HETATM   22  C12 UNL     1      19.908   1.645  52.284  1.00  0.00     0.205 C 
BRANCH  22  23
HETATM   23  O1  UNL     1      19.541   0.760  51.308  1.00  0.00    -0.392 OA
HETATM   24  C13 UNL     1      19.833   1.159  50.027  1.00  0.00     0.201 C 
ENDBRANCH  22  23
ENDBRANCH  14  22
ENDBRANCH  11  12
ENDBRANCH   9  11
ENDBRANCH   7   9
TORSDOF 6
ENDMDL
