MODEL 1
REMARK VINA RESULT:     -10.0      0.000      0.000
REMARK  4 active torsions:
REMARK  status: ('A' for Active; 'I' for Inactive)
REMARK    1  A    between atoms: O1_1  and  C1_2 
REMARK    2  A    between atoms: C1_2  and  C2_3 
REMARK    3  A    between atoms: C2_3  and  N1_4 
REMARK    4  A    between atoms: C2_3  and  C20_25 
ROOT
HETATM    1  N1  UNL     1      26.070   1.691  52.288  1.00  0.00    -0.360 N 
HETATM    2  C3  UNL     1      24.863   1.075  52.430  1.00  0.00     0.221 C 
HETATM    3  N2  UNL     1      23.867   0.409  52.776  1.00  0.00     0.121 N 
HETATM    4  C4  UNL     1      23.430  -0.464  53.774  1.00  0.00     0.379 A 
HETATM    5  N3  UNL     1      22.831   0.682  53.699  1.00  0.00    -0.026 NA
HETATM    6  C5  UNL     1      23.012   1.779  52.833  1.00  0.00     0.372 A 
HETATM    7  C6  UNL     1      21.976   1.705  51.890  1.00  0.00     0.018 C 
HETATM    8  C7  UNL     1      20.845   1.271  50.958  1.00  0.00     0.034 C 
HETATM    9  C8  UNL     1      21.327   1.629  49.652  1.00  0.00     0.007 C 
HETATM   10  C9  UNL     1      22.699   2.165  49.544  1.00  0.00    -0.023 C 
HETATM   11  C10 UNL     1      23.757   2.142  50.274  1.00  0.00     0.035 A 
HETATM   12  C11 UNL     1      24.692   1.921  51.214  1.00  0.00     0.071 A 
HETATM   13  C12 UNL     1      24.520   2.746  50.209  1.00  0.00     0.046 A 
HETATM   14  C13 UNL     1      24.282   3.516  51.586  1.00  0.00     0.153 A 
HETATM   15  O2  UNL     1      23.987   2.858  52.764  1.00  0.00    -0.326 OA
HETATM   16  C14 UNL     1      22.962   4.338  51.544  1.00  0.00    -0.020 A 
HETATM   17  C15 UNL     1      22.869   5.655  51.450  1.00  0.00     0.010 A 
HETATM   18  C16 UNL     1      21.602   5.987  51.064  1.00  0.00     0.001 A 
HETATM   19  C17 UNL     1      20.577   5.127  50.809  1.00  0.00     0.001 A 
HETATM   20  C18 UNL     1      20.834   3.743  50.958  1.00  0.00     0.012 A 
HETATM   21  C19 UNL     1      22.141   3.190  51.373  1.00  0.00    -0.018 A 
HETATM   22  H5  UNL     1      26.346   2.327  51.499  1.00  0.00     0.161 HD
ENDROOT
BRANCH   1  23
HETATM   23  C2  UNL     1      26.731   1.134  53.503  1.00  0.00     0.139 C 
BRANCH  23  24
HETATM   24  C1  UNL     1      27.878   2.094  53.721  1.00  0.00     0.194 C 
BRANCH  24  25
HETATM   25  O1  UNL     1      27.988   2.829  52.580  1.00  0.00    -0.399 OA
HETATM   26  H1  UNL     1      27.997   3.792  52.804  1.00  0.00     0.209 HD
ENDBRANCH  24  25
ENDBRANCH  23  24
BRANCH  23  27
HETATM   27  C20 UNL     1      27.367  -0.184  53.261  1.00  0.00    -0.034 A 
HETATM   28  C21 UNL     1      26.849  -1.326  52.719  1.00  0.00     0.009 A 
HETATM   29  C22 UNL     1      27.631  -2.456  52.589  1.00  0.00     0.001 A 
HETATM   30  C23 UNL     1      28.960  -2.415  53.018  1.00  0.00     0.000 A 
HETATM   31  C24 UNL     1      29.524  -1.279  53.572  1.00  0.00     0.001 A 
HETATM   32  C25 UNL     1      28.696  -0.155  53.687  1.00  0.00     0.009 A 
ENDBRANCH  23  27
ENDBRANCH   1  23
TORSDOF 4
ENDMDL
MODEL 2
REMARK VINA RESULT:      -9.9      2.977      5.709
REMARK  4 active torsions:
REMARK  status: ('A' for Active; 'I' for Inactive)
REMARK    1  A    between atoms: O1_1  and  C1_2 
REMARK    2  A    between atoms: C1_2  and  C2_3 
REMARK    3  A    between atoms: C2_3  and  N1_4 
REMARK    4  A    between atoms: C2_3  and  C20_25 
ROOT
HETATM    1  N1  UNL     1      24.744   4.388  50.536  1.00  0.00    -0.360 N 
HETATM    2  C3  UNL     1      23.638   3.883  49.922  1.00  0.00     0.221 C 
HETATM    3  N2  UNL     1      22.761   3.466  49.139  1.00  0.00     0.121 N 
HETATM    4  C4  UNL     1      22.508   3.287  47.777  1.00  0.00     0.379 A 
HETATM    5  N3  UNL     1      22.590   2.216  48.501  1.00  0.00    -0.026 NA
HETATM    6  C5  UNL     1      22.830   2.031  49.878  1.00  0.00     0.372 A 
HETATM    7  C6  UNL     1      21.580   1.761  50.456  1.00  0.00     0.018 C 
HETATM    8  C7  UNL     1      20.094   1.640  50.790  1.00  0.00     0.034 C 
HETATM    9  C8  UNL     1      19.979   2.290  52.068  1.00  0.00     0.007 C 
HETATM   10  C9  UNL     1      21.184   2.942  52.622  1.00  0.00    -0.023 C 
HETATM   11  C10 UNL     1      22.298   3.374  52.147  1.00  0.00     0.035 A 
HETATM   12  C11 UNL     1      23.330   3.755  51.375  1.00  0.00     0.071 A 
HETATM   13  C12 UNL     1      23.113   3.553  52.653  1.00  0.00     0.046 A 
HETATM   14  C13 UNL     1      23.983   2.355  52.056  1.00  0.00     0.153 A 
HETATM   15  O2  UNL     1      24.026   2.068  50.706  1.00  0.00    -0.326 OA
HETATM   16  C14 UNL     1      23.400   0.978  52.481  1.00  0.00    -0.020 A 
HETATM   17  C15 UNL     1      23.923   0.154  53.376  1.00  0.00     0.010 A 
HETATM   18  C16 UNL     1      22.974  -0.749  53.760  1.00  0.00     0.001 A 
HETATM   19  C17 UNL     1      21.689  -0.819  53.315  1.00  0.00     0.001 A 
HETATM   20  C18 UNL     1      21.280   0.133  52.350  1.00  0.00     0.012 A 
HETATM   21  C19 UNL     1      22.166   1.186  51.808  1.00  0.00    -0.018 A 
HETATM   22  H5  UNL     1      24.867   4.516  51.572  1.00  0.00     0.161 HD
ENDROOT
BRANCH   1  23
HETATM   23  C2  UNL     1      25.548   4.674  49.313  1.00  0.00     0.139 C 
BRANCH  23  24
HETATM   24  C1  UNL     1      26.702   3.705  49.447  1.00  0.00     0.194 C 
BRANCH  24  25
HETATM   25  O1  UNL     1      26.923   3.551  50.781  1.00  0.00    -0.399 OA
HETATM   26  H1  UNL     1      26.945   4.437  51.220  1.00  0.00     0.209 HD
ENDBRANCH  24  25
ENDBRANCH  23  24
BRANCH  23  27
HETATM   27  C20 UNL     1      26.167   6.021  49.331  1.00  0.00    -0.034 A 
HETATM   28  C21 UNL     1      25.835   7.133  50.052  1.00  0.00     0.009 A 
HETATM   29  C22 UNL     1      26.557   8.301  49.908  1.00  0.00     0.001 A 
HETATM   30  C23 UNL     1      27.633   8.329  49.016  1.00  0.00     0.000 A 
HETATM   31  C24 UNL     1      28.002   7.226  48.268  1.00  0.00     0.001 A 
HETATM   32  C25 UNL     1      27.244   6.062  48.443  1.00  0.00     0.009 A 
ENDBRANCH  23  27
ENDBRANCH   1  23
TORSDOF 4
ENDMDL
MODEL 3
REMARK VINA RESULT:      -9.1      1.891      2.971
REMARK  4 active torsions:
REMARK  status: ('A' for Active; 'I' for Inactive)
REMARK    1  A    between atoms: O1_1  and  C1_2 
REMARK    2  A    between atoms: C1_2  and  C2_3 
REMARK    3  A    between atoms: C2_3  and  N1_4 
REMARK    4  A    between atoms: C2_3  and  C20_25 
ROOT
HETATM    1  N1  UNL     1      24.701   1.690  51.522  1.00  0.00    -0.360 N 
HETATM    2  C3  UNL     1      23.854   2.615  52.054  1.00  0.00     0.221 C 
HETATM    3  N2  UNL     1      23.300   3.573  52.630  1.00  0.00     0.121 N 
HETATM    4  C4  UNL     1      23.592   4.709  53.386  1.00  0.00     0.379 A 
HETATM    5  N3  UNL     1      23.065   4.905  52.220  1.00  0.00    -0.026 NA
HETATM    6  C5  UNL     1      22.654   4.007  51.214  1.00  0.00     0.372 A 
HETATM    7  C6  UNL     1      21.256   3.928  51.312  1.00  0.00     0.018 C 
HETATM    8  C7  UNL     1      19.796   3.954  51.761  1.00  0.00     0.034 C 
HETATM    9  C8  UNL     1      19.351   2.603  51.547  1.00  0.00     0.007 C 
HETATM   10  C9  UNL     1      20.350   1.610  51.100  1.00  0.00    -0.023 C 
HETATM   11  C10 UNL     1      21.632   1.521  51.119  1.00  0.00     0.035 A 
HETATM   12  C11 UNL     1      22.952   1.691  51.309  1.00  0.00     0.071 A 
HETATM   13  C12 UNL     1      22.180   0.932  50.566  1.00  0.00     0.046 A 
HETATM   14  C13 UNL     1      22.847   2.070  49.667  1.00  0.00     0.153 A 
HETATM   15  O2  UNL     1      23.360   3.235  50.202  1.00  0.00    -0.326 OA
HETATM   16  C14 UNL     1      21.781   2.773  48.779  1.00  0.00    -0.020 A 
HETATM   17  C15 UNL     1      21.635   2.623  47.472  1.00  0.00     0.010 A 
HETATM   18  C16 UNL     1      20.402   3.077  47.104  1.00  0.00     0.001 A 
HETATM   19  C17 UNL     1      19.452   3.606  47.924  1.00  0.00     0.001 A 
HETATM   20  C18 UNL     1      19.760   3.706  49.302  1.00  0.00     0.012 A 
HETATM   21  C19 UNL     1      21.046   3.271  49.889  1.00  0.00    -0.018 A 
HETATM   22  H5  UNL     1      24.416   0.840  50.974  1.00  0.00     0.161 HD
ENDROOT
BRANCH   1  23
HETATM   23  C2  UNL     1      25.982   2.280  52.007  1.00  0.00     0.139 C 
BRANCH  23  24
HETATM   24  C1  UNL     1      26.619   2.775  50.728  1.00  0.00     0.194 C 
BRANCH  24  25
HETATM   25  O1  UNL     1      26.315   4.097  50.632  1.00  0.00    -0.399 OA
HETATM   26  H1  UNL     1      26.806   4.603  51.327  1.00  0.00     0.209 HD
ENDBRANCH  24  25
ENDBRANCH  23  24
BRANCH  23  27
HETATM   27  C20 UNL     1      26.920   1.262  52.539  1.00  0.00    -0.034 A 
HETATM   28  C21 UNL     1      26.859  -0.102  52.492  1.00  0.00     0.009 A 
HETATM   29  C22 UNL     1      27.855  -0.867  53.064  1.00  0.00     0.001 A 
HETATM   30  C23 UNL     1      28.927  -0.227  53.692  1.00  0.00     0.000 A 
HETATM   31  C24 UNL     1      29.028   1.151  53.762  1.00  0.00     0.001 A 
HETATM   32  C25 UNL     1      27.996   1.890  53.170  1.00  0.00     0.009 A 
ENDBRANCH  23  27
ENDBRANCH   1  23
TORSDOF 4
ENDMDL
MODEL 4
REMARK VINA RESULT:      -9.0      3.655      7.612
REMARK  4 active torsions:
REMARK  status: ('A' for Active; 'I' for Inactive)
REMARK    1  A    between atoms: O1_1  and  C1_2 
REMARK    2  A    between atoms: C1_2  and  C2_3 
REMARK    3  A    between atoms: C2_3  and  N1_4 
REMARK    4  A    between atoms: C2_3  and  C20_25 
ROOT
HETATM    1  N1  UNL     1      19.040  -0.140  51.382  1.00  0.00    -0.360 N 
HETATM    2  C3  UNL     1      19.191   1.211  51.287  1.00  0.00     0.221 C 
HETATM    3  N2  UNL     1      19.086   2.454  51.303  1.00  0.00     0.121 N 
HETATM    4  C4  UNL     1      18.195   3.470  51.651  1.00  0.00     0.379 A 
HETATM    5  N3  UNL     1      19.294   3.400  52.332  1.00  0.00    -0.026 NA
HETATM    6  C5  UNL     1      20.392   2.519  52.253  1.00  0.00     0.372 A 
HETATM    7  C6  UNL     1      21.404   3.220  51.582  1.00  0.00     0.018 C 
HETATM    8  C7  UNL     1      22.227   4.179  50.722  1.00  0.00     0.034 C 
HETATM    9  C8  UNL     1      22.930   3.308  49.820  1.00  0.00     0.007 C 
HETATM   10  C9  UNL     1      22.622   1.864  49.874  1.00  0.00    -0.023 C 
HETATM   11  C10 UNL     1      21.652   1.145  50.315  1.00  0.00     0.035 A 
HETATM   12  C11 UNL     1      20.502   0.672  50.825  1.00  0.00     0.071 A 
HETATM   13  C12 UNL     1      21.684   0.191  50.519  1.00  0.00     0.046 A 
HETATM   14  C13 UNL     1      21.548   0.323  52.104  1.00  0.00     0.153 A 
HETATM   15  O2  UNL     1      20.624   1.155  52.704  1.00  0.00    -0.326 OA
HETATM   16  C14 UNL     1      22.794   1.026  52.713  1.00  0.00    -0.020 A 
HETATM   17  C15 UNL     1      23.751   0.442  53.416  1.00  0.00     0.010 A 
HETATM   18  C16 UNL     1      24.841   1.263  53.457  1.00  0.00     0.001 A 
HETATM   19  C17 UNL     1      24.957   2.491  52.880  1.00  0.00     0.001 A 
HETATM   20  C18 UNL     1      23.841   2.983  52.162  1.00  0.00     0.012 A 
HETATM   21  C19 UNL     1      22.570   2.241  52.010  1.00  0.00    -0.018 A 
HETATM   22  H5  UNL     1      19.746  -0.859  51.083  1.00  0.00     0.161 HD
ENDROOT
BRANCH   1  23
HETATM   23  C2  UNL     1      17.663  -0.155  51.951  1.00  0.00     0.139 C 
BRANCH  23  24
HETATM   24  C1  UNL     1      17.752  -1.249  52.992  1.00  0.00     0.194 C 
BRANCH  24  25
HETATM   25  O1  UNL     1      18.764  -0.900  53.833  1.00  0.00    -0.399 OA
HETATM   26  H1  UNL     1      18.493  -1.069  54.769  1.00  0.00     0.209 HD
ENDBRANCH  24  25
ENDBRANCH  23  24
BRANCH  23  27
HETATM   27  C20 UNL     1      16.643  -0.625  50.982  1.00  0.00    -0.034 A 
HETATM   28  C21 UNL     1      16.607  -0.517  49.620  1.00  0.00     0.009 A 
HETATM   29  C22 UNL     1      15.544  -1.030  48.906  1.00  0.00     0.001 A 
HETATM   30  C23 UNL     1      14.504  -1.662  49.595  1.00  0.00     0.000 A 
HETATM   31  C24 UNL     1      14.502  -1.792  50.972  1.00  0.00     0.001 A 
HETATM   32  C25 UNL     1      15.599  -1.257  51.659  1.00  0.00     0.009 A 
ENDBRANCH  23  27
ENDBRANCH   1  23
TORSDOF 4
ENDMDL
MODEL 5
REMARK VINA RESULT:      -8.9      3.091      5.444
REMARK  4 active torsions:
REMARK  status: ('A' for Active; 'I' for Inactive)
REMARK    1  A    between atoms: O1_1  and  C1_2 
REMARK    2  A    between atoms: C1_2  and  C2_3 
REMARK    3  A    between atoms: C2_3  and  N1_4 
REMARK    4  A    between atoms: C2_3  and  C20_25 
ROOT
HETATM    1  N1  UNL     1      22.190   2.756  50.833  1.00  0.00    -0.360 N 
HETATM    2  C3  UNL     1      23.484   3.182  50.877  1.00  0.00     0.221 C 
HETATM    3  N2  UNL     1      24.722   3.316  50.947  1.00  0.00     0.121 N 
HETATM    4  C4  UNL     1      25.893   2.573  51.102  1.00  0.00     0.379 A 
HETATM    5  N3  UNL     1      25.736   3.184  49.971  1.00  0.00    -0.026 NA
HETATM    6  C5  UNL     1      24.697   4.002  49.484  1.00  0.00     0.372 A 
HETATM    7  C6  UNL     1      25.157   5.322  49.597  1.00  0.00     0.018 C 
HETATM    8  C7  UNL     1      25.878   6.616  49.974  1.00  0.00     0.034 C 
HETATM    9  C8  UNL     1      24.815   7.486  50.398  1.00  0.00     0.007 C 
HETATM   10  C9  UNL     1      23.449   6.926  50.461  1.00  0.00    -0.023 C 
HETATM   11  C10 UNL     1      22.938   5.749  50.529  1.00  0.00     0.035 A 
HETATM   12  C11 UNL     1      22.705   4.429  50.630  1.00  0.00     0.071 A 
HETATM   13  C12 UNL     1      22.020   5.502  50.310  1.00  0.00     0.046 A 
HETATM   14  C13 UNL     1      22.349   4.659  48.995  1.00  0.00     0.153 A 
HETATM   15  O2  UNL     1      23.373   3.734  48.942  1.00  0.00    -0.326 OA
HETATM   16  C14 UNL     1      22.921   5.575  47.876  1.00  0.00    -0.020 A 
HETATM   17  C15 UNL     1      22.283   5.957  46.782  1.00  0.00     0.010 A 
HETATM   18  C16 UNL     1      22.930   7.029  46.238  1.00  0.00     0.001 A 
HETATM   19  C17 UNL     1      24.053   7.631  46.718  1.00  0.00     0.001 A 
HETATM   20  C18 UNL     1      24.623   7.101  47.900  1.00  0.00     0.012 A 
HETATM   21  C19 UNL     1      24.069   5.941  48.631  1.00  0.00    -0.018 A 
HETATM   22  H5  UNL     1      21.344   3.371  50.731  1.00  0.00     0.161 HD
ENDROOT
BRANCH   1  23
HETATM   23  C2  UNL     1      22.447   1.297  51.004  1.00  0.00     0.139 C 
BRANCH  23  24
HETATM   24  C1  UNL     1      21.491   0.678  50.009  1.00  0.00     0.194 C 
BRANCH  24  25
HETATM   25  O1  UNL     1      21.862   1.135  48.782  1.00  0.00    -0.399 OA
HETATM   26  H1  UNL     1      21.444   2.016  48.614  1.00  0.00     0.209 HD
ENDBRANCH  24  25
ENDBRANCH  23  24
BRANCH  23  27
HETATM   27  C20 UNL     1      22.013   0.787  52.327  1.00  0.00    -0.034 A 
HETATM   28  C21 UNL     1      20.879   1.046  53.043  1.00  0.00     0.009 A 
HETATM   29  C22 UNL     1      20.678   0.456  54.274  1.00  0.00     0.001 A 
HETATM   30  C23 UNL     1      21.651  -0.412  54.778  1.00  0.00     0.000 A 
HETATM   31  C24 UNL     1      22.814  -0.702  54.086  1.00  0.00     0.001 A 
HETATM   32  C25 UNL     1      22.979  -0.081  52.842  1.00  0.00     0.009 A 
ENDBRANCH  23  27
ENDBRANCH   1  23
TORSDOF 4
ENDMDL
MODEL 6
REMARK VINA RESULT:      -8.9      3.410      5.493
REMARK  4 active torsions:
REMARK  status: ('A' for Active; 'I' for Inactive)
REMARK    1  A    between atoms: O1_1  and  C1_2 
REMARK    2  A    between atoms: C1_2  and  C2_3 
REMARK    3  A    between atoms: C2_3  and  N1_4 
REMARK    4  A    between atoms: C2_3  and  C20_25 
ROOT
HETATM    1  N1  UNL     1      24.717   5.293  48.908  1.00  0.00    -0.360 N 
HETATM    2  C3  UNL     1      24.592   4.124  49.597  1.00  0.00     0.221 C 
HETATM    3  N2  UNL     1      24.685   3.145  50.364  1.00  0.00     0.121 N 
HETATM    4  C4  UNL     1      25.446   2.660  51.429  1.00  0.00     0.379 A 
HETATM    5  N3  UNL     1      24.205   2.933  51.677  1.00  0.00    -0.026 NA
HETATM    6  C5  UNL     1      23.172   3.429  50.855  1.00  0.00     0.372 A 
HETATM    7  C6  UNL     1      22.375   2.323  50.524  1.00  0.00     0.018 C 
HETATM    8  C7  UNL     1      21.810   0.932  50.239  1.00  0.00     0.034 C 
HETATM    9  C8  UNL     1      21.379   1.014  48.870  1.00  0.00     0.007 C 
HETATM   10  C9  UNL     1      21.665   2.261  48.130  1.00  0.00    -0.023 C 
HETATM   11  C10 UNL     1      22.483   3.243  48.262  1.00  0.00     0.035 A 
HETATM   12  C11 UNL     1      23.456   4.094  48.633  1.00  0.00     0.071 A 
HETATM   13  C12 UNL     1      22.401   4.125  47.852  1.00  0.00     0.046 A 
HETATM   14  C13 UNL     1      22.106   4.939  49.192  1.00  0.00     0.153 A 
HETATM   15  O2  UNL     1      22.832   4.752  50.352  1.00  0.00    -0.326 OA
HETATM   16  C14 UNL     1      20.740   4.523  49.807  1.00  0.00    -0.020 A 
HETATM   17  C15 UNL     1      19.631   5.246  49.800  1.00  0.00     0.010 A 
HETATM   18  C16 UNL     1      18.567   4.436  50.077  1.00  0.00     0.001 A 
HETATM   19  C17 UNL     1      18.606   3.097  50.325  1.00  0.00     0.001 A 
HETATM   20  C18 UNL     1      19.873   2.466  50.302  1.00  0.00     0.012 A 
HETATM   21  C19 UNL     1      21.140   3.177  50.025  1.00  0.00    -0.018 A 
HETATM   22  H5  UNL     1      24.120   5.595  48.098  1.00  0.00     0.161 HD
ENDROOT
BRANCH   1  23
HETATM   23  C2  UNL     1      25.891   5.844  49.644  1.00  0.00     0.139 C 
BRANCH  23  24
HETATM   24  C1  UNL     1      25.345   7.135  50.210  1.00  0.00     0.194 C 
BRANCH  24  25
HETATM   25  O1  UNL     1      24.865   6.841  51.449  1.00  0.00    -0.399 OA
HETATM   26  H1  UNL     1      25.617   6.761  52.087  1.00  0.00     0.209 HD
ENDBRANCH  24  25
ENDBRANCH  23  24
BRANCH  23  27
HETATM   27  C20 UNL     1      26.997   6.251  48.743  1.00  0.00    -0.034 A 
HETATM   28  C21 UNL     1      28.212   5.666  48.521  1.00  0.00     0.009 A 
HETATM   29  C22 UNL     1      29.104   6.225  47.628  1.00  0.00     0.001 A 
HETATM   30  C23 UNL     1      28.746   7.397  46.955  1.00  0.00     0.000 A 
HETATM   31  C24 UNL     1      27.527   8.020  47.151  1.00  0.00     0.001 A 
HETATM   32  C25 UNL     1      26.652   7.421  48.065  1.00  0.00     0.009 A 
ENDBRANCH  23  27
ENDBRANCH   1  23
TORSDOF 4
ENDMDL
MODEL 7
REMARK VINA RESULT:      -8.7      3.041      7.509
REMARK  4 active torsions:
REMARK  status: ('A' for Active; 'I' for Inactive)
REMARK    1  A    between atoms: O1_1  and  C1_2 
REMARK    2  A    between atoms: C1_2  and  C2_3 
REMARK    3  A    between atoms: C2_3  and  N1_4 
REMARK    4  A    between atoms: C2_3  and  C20_25 
ROOT
HETATM    1  N1  UNL     1      22.418   6.309  50.826  1.00  0.00    -0.360 N 
HETATM    2  C3  UNL     1      22.179   5.223  50.038  1.00  0.00     0.221 C 
HETATM    3  N2  UNL     1      22.020   4.394  49.120  1.00  0.00     0.121 N 
HETATM    4  C4  UNL     1      22.090   4.276  47.731  1.00  0.00     0.379 A 
HETATM    5  N3  UNL     1      22.942   3.583  48.418  1.00  0.00    -0.026 NA
HETATM    6  C5  UNL     1      23.151   3.466  49.807  1.00  0.00     0.372 A 
HETATM    7  C6  UNL     1      22.566   2.248  50.186  1.00  0.00     0.018 C 
HETATM    8  C7  UNL     1      21.735   0.971  50.294  1.00  0.00     0.034 C 
HETATM    9  C8  UNL     1      21.074   1.103  51.564  1.00  0.00     0.007 C 
HETATM   10  C9  UNL     1      21.261   2.363  52.313  1.00  0.00    -0.023 C 
HETATM   11  C10 UNL     1      21.629   3.560  52.023  1.00  0.00     0.035 A 
HETATM   12  C11 UNL     1      22.004   4.704  51.425  1.00  0.00     0.071 A 
HETATM   13  C12 UNL     1      21.954   4.234  52.649  1.00  0.00     0.046 A 
HETATM   14  C13 UNL     1      23.467   4.261  52.142  1.00  0.00     0.153 A 
HETATM   15  O2  UNL     1      23.802   4.305  50.803  1.00  0.00    -0.326 OA
HETATM   16  C14 UNL     1      24.174   2.905  52.425  1.00  0.00    -0.020 A 
HETATM   17  C15 UNL     1      25.089   2.683  53.355  1.00  0.00     0.010 A 
HETATM   18  C16 UNL     1      25.199   1.339  53.563  1.00  0.00     0.001 A 
HETATM   19  C17 UNL     1      24.497   0.357  52.931  1.00  0.00     0.001 A 
HETATM   20  C18 UNL     1      23.554   0.755  51.954  1.00  0.00     0.012 A 
HETATM   21  C19 UNL     1      23.296   2.165  51.586  1.00  0.00    -0.018 A 
HETATM   22  H5  UNL     1      22.330   6.339  51.873  1.00  0.00     0.161 HD
ENDROOT
BRANCH   1  23
HETATM   23  C2  UNL     1      22.758   7.278  49.745  1.00  0.00     0.139 C 
BRANCH  23  24
HETATM   24  C1  UNL     1      23.983   7.970  50.301  1.00  0.00     0.194 C 
BRANCH  24  25
HETATM   25  O1  UNL     1      23.967   7.762  51.645  1.00  0.00    -0.399 OA
HETATM   26  H1  UNL     1      24.874   7.513  51.954  1.00  0.00     0.209 HD
ENDBRANCH  24  25
ENDBRANCH  23  24
BRANCH  23  27
HETATM   27  C20 UNL     1      21.743   8.348  49.591  1.00  0.00    -0.034 A 
HETATM   28  C21 UNL     1      20.484   8.450  50.112  1.00  0.00     0.009 A 
HETATM   29  C22 UNL     1      19.698   9.549  49.831  1.00  0.00     0.001 A 
HETATM   30  C23 UNL     1      20.208  10.557  49.008  1.00  0.00     0.000 A 
HETATM   31  C24 UNL     1      21.477  10.493  48.461  1.00  0.00     0.001 A 
HETATM   32  C25 UNL     1      22.241   9.361  48.770  1.00  0.00     0.009 A 
ENDBRANCH  23  27
ENDBRANCH   1  23
TORSDOF 4
ENDMDL
MODEL 8
REMARK VINA RESULT:      -8.7      4.006      5.670
REMARK  4 active torsions:
REMARK  status: ('A' for Active; 'I' for Inactive)
REMARK    1  A    between atoms: O1_1  and  C1_2 
REMARK    2  A    between atoms: C1_2  and  C2_3 
REMARK    3  A    between atoms: C2_3  and  N1_4 
REMARK    4  A    between atoms: C2_3  and  C20_25 
ROOT
HETATM    1  N1  UNL     1      22.603   3.201  49.266  1.00  0.00    -0.360 N 
HETATM    2  C3  UNL     1      22.417   3.225  50.616  1.00  0.00     0.221 C 
HETATM    3  N2  UNL     1      22.313   3.502  51.827  1.00  0.00     0.121 N 
HETATM    4  C4  UNL     1      22.450   4.566  52.721  1.00  0.00     0.379 A 
HETATM    5  N3  UNL     1      21.258   4.081  52.570  1.00  0.00    -0.026 NA
HETATM    6  C5  UNL     1      20.768   3.031  51.768  1.00  0.00     0.372 A 
HETATM    7  C6  UNL     1      20.597   1.934  52.627  1.00  0.00     0.018 C 
HETATM    8  C7  UNL     1      20.657   0.917  53.765  1.00  0.00     0.034 C 
HETATM    9  C8  UNL     1      21.051  -0.301  53.111  1.00  0.00     0.007 C 
HETATM   10  C9  UNL     1      21.375  -0.238  51.670  1.00  0.00    -0.023 C 
HETATM   11  C10 UNL     1      21.704   0.686  50.840  1.00  0.00     0.035 A 
HETATM   12  C11 UNL     1      22.056   1.831  50.231  1.00  0.00     0.071 A 
HETATM   13  C12 UNL     1      21.643   0.639  49.867  1.00  0.00     0.046 A 
HETATM   14  C13 UNL     1      20.462   1.698  49.691  1.00  0.00     0.153 A 
HETATM   15  O2  UNL     1      20.444   2.909  50.354  1.00  0.00    -0.326 OA
HETATM   16  C14 UNL     1      19.142   1.168  50.320  1.00  0.00    -0.020 A 
HETATM   17  C15 UNL     1      18.083   0.733  49.655  1.00  0.00     0.010 A 
HETATM   18  C16 UNL     1      17.290   0.012  50.499  1.00  0.00     0.001 A 
HETATM   19  C17 UNL     1      17.520  -0.238  51.818  1.00  0.00     0.001 A 
HETATM   20  C18 UNL     1      18.698   0.301  52.389  1.00  0.00     0.012 A 
HETATM   21  C19 UNL     1      19.678   1.114  51.635  1.00  0.00    -0.018 A 
HETATM   22  H5  UNL     1      22.501   2.357  48.648  1.00  0.00     0.161 HD
ENDROOT
BRANCH   1  23
HETATM   23  C2  UNL     1      22.989   4.629  49.084  1.00  0.00     0.139 C 
BRANCH  23  24
HETATM   24  C1  UNL     1      22.474   4.932  47.695  1.00  0.00     0.194 C 
BRANCH  24  25
HETATM   25  O1  UNL     1      22.281   3.732  47.085  1.00  0.00    -0.399 OA
HETATM   26  H1  UNL     1      21.366   3.692  46.710  1.00  0.00     0.209 HD
ENDBRANCH  24  25
ENDBRANCH  23  24
BRANCH  23  27
HETATM   27  C20 UNL     1      24.457   4.825  49.006  1.00  0.00    -0.034 A 
HETATM   28  C21 UNL     1      25.181   5.932  48.664  1.00  0.00     0.009 A 
HETATM   29  C22 UNL     1      26.560   5.890  48.655  1.00  0.00     0.001 A 
HETATM   30  C23 UNL     1      27.206   4.700  49.001  1.00  0.00     0.000 A 
HETATM   31  C24 UNL     1      26.511   3.557  49.354  1.00  0.00     0.001 A 
HETATM   32  C25 UNL     1      25.113   3.641  49.350  1.00  0.00     0.009 A 
ENDBRANCH  23  27
ENDBRANCH   1  23
TORSDOF 4
ENDMDL
MODEL 9
REMARK VINA RESULT:      -8.4      2.086      3.282
REMARK  4 active torsions:
REMARK  status: ('A' for Active; 'I' for Inactive)
REMARK    1  A    between atoms: O1_1  and  C1_2 
REMARK    2  A    between atoms: C1_2  and  C2_3 
REMARK    3  A    between atoms: C2_3  and  N1_4 
REMARK    4  A    between atoms: C2_3  and  C20_25 
ROOT
HETATM    1  N1  UNL     1      23.574   3.076  51.608  1.00  0.00    -0.360 N 
HETATM    2  C3  UNL     1      22.235   2.825  51.578  1.00  0.00     0.221 C 
HETATM    3  N2  UNL     1      21.053   2.485  51.786  1.00  0.00     0.121 N 
HETATM    4  C4  UNL     1      20.253   1.838  52.729  1.00  0.00     0.379 A 
HETATM    5  N3  UNL     1      20.017   3.096  52.528  1.00  0.00    -0.026 NA
HETATM    6  C5  UNL     1      20.620   4.037  51.668  1.00  0.00     0.372 A 
HETATM    7  C6  UNL     1      19.748   4.180  50.578  1.00  0.00     0.018 C 
HETATM    8  C7  UNL     1      18.684   4.007  49.495  1.00  0.00     0.034 C 
HETATM    9  C8  UNL     1      19.426   4.124  48.269  1.00  0.00     0.007 C 
HETATM   10  C9  UNL     1      20.895   4.255  48.361  1.00  0.00    -0.023 C 
HETATM   11  C10 UNL     1      21.789   3.996  49.246  1.00  0.00     0.035 A 
HETATM   12  C11 UNL     1      22.482   3.597  50.327  1.00  0.00     0.071 A 
HETATM   13  C12 UNL     1      22.693   4.363  49.282  1.00  0.00     0.046 A 
HETATM   14  C13 UNL     1      22.489   5.265  50.583  1.00  0.00     0.153 A 
HETATM   15  O2  UNL     1      21.858   4.800  51.719  1.00  0.00    -0.326 OA
HETATM   16  C14 UNL     1      21.473   6.411  50.311  1.00  0.00    -0.020 A 
HETATM   17  C15 UNL     1      21.768   7.694  50.164  1.00  0.00     0.010 A 
HETATM   18  C16 UNL     1      20.714   8.331  49.577  1.00  0.00     0.001 A 
HETATM   19  C17 UNL     1      19.535   7.768  49.191  1.00  0.00     0.001 A 
HETATM   20  C18 UNL     1      19.368   6.381  49.420  1.00  0.00     0.012 A 
HETATM   21  C19 UNL     1      20.395   5.523  50.049  1.00  0.00    -0.018 A 
HETATM   22  H5  UNL     1      24.126   3.554  50.852  1.00  0.00     0.161 HD
ENDROOT
BRANCH   1  23
HETATM   23  C2  UNL     1      23.873   2.449  52.927  1.00  0.00     0.139 C 
BRANCH  23  24
HETATM   24  C1  UNL     1      24.741   3.491  53.596  1.00  0.00     0.194 C 
BRANCH  24  25
HETATM   25  O1  UNL     1      24.038   4.656  53.564  1.00  0.00    -0.399 OA
HETATM   26  H1  UNL     1      23.720   4.829  52.643  1.00  0.00     0.209 HD
ENDBRANCH  24  25
ENDBRANCH  23  24
BRANCH  23  27
HETATM   27  C20 UNL     1      24.731   1.245  52.812  1.00  0.00    -0.034 A 
HETATM   28  C21 UNL     1      24.595   0.009  53.379  1.00  0.00     0.009 A 
HETATM   29  C22 UNL     1      25.528  -0.979  53.135  1.00  0.00     0.001 A 
HETATM   30  C23 UNL     1      26.613  -0.697  52.300  1.00  0.00     0.000 A 
HETATM   31  C24 UNL     1      26.787   0.540  51.706  1.00  0.00     0.001 A 
HETATM   32  C25 UNL     1      25.819   1.514  51.980  1.00  0.00     0.009 A 
ENDBRANCH  23  27
ENDBRANCH   1  23
TORSDOF 4
ENDMDL
