MODEL 1
REMARK VINA RESULT:      -9.0      0.000      0.000
REMARK  5 active torsions:
REMARK  status: ('A' for Active; 'I' for Inactive)
REMARK    1  A    between atoms: C5_5  and  N1_6 
REMARK    2  A    between atoms: N1_6  and  C6_7 
REMARK    3  A    between atoms: C11_15  and  C12_16 
REMARK    4  A    between atoms: C12_16  and  C13_17 
REMARK    5  A    between atoms: C13_17  and  N5_18 
ROOT
HETATM    1  C6  UNL     1      25.884   3.202  51.349  1.00  0.00     0.138 C 
HETATM    2  N2  UNL     1      26.905   3.217  50.521  1.00  0.00    -0.224 NA
HETATM    3  C7  UNL     1      26.817   4.028  49.325  1.00  0.00     0.230 C 
HETATM    4  N3  UNL     1      25.872   4.828  48.868  1.00  0.00    -0.266 NA
HETATM    5  C8  UNL     1      24.733   4.975  49.642  1.00  0.00     0.204 C 
HETATM    6  C9  UNL     1      23.363   5.062  49.143  1.00  0.00     0.101 C 
HETATM    7  C10 UNL     1      22.130   5.255  48.707  1.00  0.00     0.120 C 
HETATM    8  N4  UNL     1      21.610   4.364  49.816  1.00  0.00    -0.376 N 
HETATM    9  C11 UNL     1      22.266   3.054  50.066  1.00  0.00     0.139 C 
HETATM   10  C18 UNL     1      23.423   3.322  51.026  1.00  0.00     0.028 C 
HETATM   11  C19 UNL     1      24.704   3.835  50.714  1.00  0.00     0.018 C 
HETATM   12  C20 UNL     1      22.789   2.680  48.680  1.00  0.00     0.296 C 
HETATM   13  O2  UNL     1      22.477   1.811  47.833  1.00  0.00    -0.262 OA
HETATM   14  O3  UNL     1      23.538   3.684  49.054  1.00  0.00    -0.277 OA
HETATM   15  H10 UNL     1      20.783   4.486  50.512  1.00  0.00     0.160 HD
ENDROOT
BRANCH   1  16
HETATM   16  N1  UNL     1      25.592   2.584  52.579  1.00  0.00    -0.340 N 
HETATM   17  H6  UNL     1      24.802   2.830  53.187  1.00  0.00     0.167 HD
BRANCH  16  18
HETATM   18  C5  UNL     1      26.569   1.567  52.818  1.00  0.00     0.035 A 
HETATM   19  C4  UNL     1      27.764   2.028  53.385  1.00  0.00     0.030 A 
HETATM   20  C3  UNL     1      28.724   1.063  53.629  1.00  0.00     0.011 A 
HETATM   21  C2  UNL     1      28.535  -0.259  53.342  1.00  0.00    -0.040 A 
HETATM   22  C1  UNL     1      29.663  -1.191  53.663  1.00  0.00     0.050 C 
HETATM   23  C22 UNL     1      27.345  -0.705  52.779  1.00  0.00     0.042 A 
HETATM   24  C21 UNL     1      26.375   0.238  52.527  1.00  0.00     0.053 A 
HETATM   25 CL1  UNL     1      27.134  -2.405  52.422  1.00  0.00    -0.084 Cl
ENDBRANCH  16  18
ENDBRANCH   1  16
BRANCH   9  26
HETATM   26  C12 UNL     1      21.329   2.051  50.588  1.00  0.00     0.065 C 
BRANCH  26  27
HETATM   27  C13 UNL     1      21.992   0.831  51.182  1.00  0.00     0.120 C 
BRANCH  27  28
HETATM   28  N5  UNL     1      21.676   0.723  52.550  1.00  0.00    -0.408 N 
HETATM   29  C14 UNL     1      20.459   0.126  52.922  1.00  0.00     0.143 C 
HETATM   30  C15 UNL     1      20.703  -1.036  53.879  1.00  0.00     0.187 C 
HETATM   31  O1  UNL     1      21.950  -1.633  53.604  1.00  0.00    -0.388 OA
HETATM   32  C16 UNL     1      22.984  -0.754  53.912  1.00  0.00     0.187 C 
HETATM   33  C17 UNL     1      22.696   0.674  53.510  1.00  0.00     0.143 C 
ENDBRANCH  27  28
ENDBRANCH  26  27
ENDBRANCH   9  26
TORSDOF 5
ENDMDL
MODEL 2
REMARK VINA RESULT:      -8.9      1.751      2.305
REMARK  5 active torsions:
REMARK  status: ('A' for Active; 'I' for Inactive)
REMARK    1  A    between atoms: C5_5  and  N1_6 
REMARK    2  A    between atoms: N1_6  and  C6_7 
REMARK    3  A    between atoms: C11_15  and  C12_16 
REMARK    4  A    between atoms: C12_16  and  C13_17 
REMARK    5  A    between atoms: C13_17  and  N5_18 
ROOT
HETATM    1  C6  UNL     1      25.917   2.882  52.013  1.00  0.00     0.138 C 
HETATM    2  N2  UNL     1      26.611   2.862  50.896  1.00  0.00    -0.224 NA
HETATM    3  C7  UNL     1      26.013   3.413  49.698  1.00  0.00     0.230 C 
HETATM    4  N3  UNL     1      24.847   3.990  49.478  1.00  0.00    -0.266 NA
HETATM    5  C8  UNL     1      23.998   4.142  50.561  1.00  0.00     0.204 C 
HETATM    6  C9  UNL     1      22.547   3.966  50.545  1.00  0.00     0.101 C 
HETATM    7  C10 UNL     1      21.226   3.921  50.527  1.00  0.00     0.120 C 
HETATM    8  N4  UNL     1      21.243   3.201  51.859  1.00  0.00    -0.376 N 
HETATM    9  C11 UNL     1      22.166   2.052  52.056  1.00  0.00     0.139 C 
HETATM   10  C18 UNL     1      23.497   2.637  52.523  1.00  0.00     0.028 C 
HETATM   11  C19 UNL     1      24.505   3.233  51.730  1.00  0.00     0.018 C 
HETATM   12  C20 UNL     1      22.290   1.487  50.641  1.00  0.00     0.296 C 
HETATM   13  O2  UNL     1      21.890   0.441  50.080  1.00  0.00    -0.262 OA
HETATM   14  O3  UNL     1      22.928   2.627  50.597  1.00  0.00    -0.277 OA
HETATM   15  H10 UNL     1      20.665   3.352  52.769  1.00  0.00     0.160 HD
ENDROOT
BRANCH   1  16
HETATM   16  N1  UNL     1      26.135   2.479  53.343  1.00  0.00    -0.340 N 
HETATM   17  H6  UNL     1      25.731   2.936  54.169  1.00  0.00     0.167 HD
BRANCH  16  18
HETATM   18  C5  UNL     1      26.998   1.338  53.335  1.00  0.00     0.035 A 
HETATM   19  C4  UNL     1      28.286   1.576  53.831  1.00  0.00     0.030 A 
HETATM   20  C3  UNL     1      29.138   0.487  53.836  1.00  0.00     0.011 A 
HETATM   21  C2  UNL     1      28.764  -0.749  53.390  1.00  0.00    -0.040 A 
HETATM   22  C1  UNL     1      29.793  -1.835  53.457  1.00  0.00     0.050 C 
HETATM   23  C22 UNL     1      27.483  -0.974  52.899  1.00  0.00     0.042 A 
HETATM   24  C21 UNL     1      26.618   0.096  52.883  1.00  0.00     0.053 A 
HETATM   25 CL1  UNL     1      27.035  -2.567  52.332  1.00  0.00    -0.084 Cl
ENDBRANCH  16  18
ENDBRANCH   1  16
BRANCH   9  26
HETATM   26  C12 UNL     1      21.632   1.061  52.997  1.00  0.00     0.065 C 
BRANCH  26  27
HETATM   27  C13 UNL     1      20.129   1.091  53.147  1.00  0.00     0.120 C 
BRANCH  27  28
HETATM   28  N5  UNL     1      19.564  -0.086  52.623  1.00  0.00    -0.408 N 
HETATM   29  C14 UNL     1      19.366  -1.185  53.477  1.00  0.00     0.143 C 
HETATM   30  C15 UNL     1      17.907  -1.627  53.453  1.00  0.00     0.187 C 
HETATM   31  O1  UNL     1      17.072  -0.518  53.207  1.00  0.00    -0.388 OA
HETATM   32  C16 UNL     1      17.273  -0.040  51.915  1.00  0.00     0.187 C 
HETATM   33  C17 UNL     1      18.727  -0.031  51.499  1.00  0.00     0.143 C 
ENDBRANCH  27  28
ENDBRANCH  26  27
ENDBRANCH   9  26
TORSDOF 5
ENDMDL
MODEL 3
REMARK VINA RESULT:      -8.8      1.790      2.263
REMARK  5 active torsions:
REMARK  status: ('A' for Active; 'I' for Inactive)
REMARK    1  A    between atoms: C5_5  and  N1_6 
REMARK    2  A    between atoms: N1_6  and  C6_7 
REMARK    3  A    between atoms: C11_15  and  C12_16 
REMARK    4  A    between atoms: C12_16  and  C13_17 
REMARK    5  A    between atoms: C13_17  and  N5_18 
ROOT
HETATM    1  C6  UNL     1      25.345   3.150  51.071  1.00  0.00     0.138 C 
HETATM    2  N2  UNL     1      26.181   3.174  50.058  1.00  0.00    -0.224 NA
HETATM    3  C7  UNL     1      26.359   4.416  49.334  1.00  0.00     0.230 C 
HETATM    4  N3  UNL     1      25.838   5.617  49.501  1.00  0.00    -0.266 NA
HETATM    5  C8  UNL     1      24.964   5.791  50.561  1.00  0.00     0.204 C 
HETATM    6  C9  UNL     1      23.741   6.590  50.542  1.00  0.00     0.101 C 
HETATM    7  C10 UNL     1      22.693   7.395  50.580  1.00  0.00     0.120 C 
HETATM    8  N4  UNL     1      21.932   6.349  51.368  1.00  0.00    -0.376 N 
HETATM    9  C11 UNL     1      21.947   4.936  50.909  1.00  0.00     0.139 C 
HETATM   10  C18 UNL     1      23.183   4.289  51.528  1.00  0.00     0.028 C 
HETATM   11  C19 UNL     1      24.524   4.383  51.084  1.00  0.00     0.018 C 
HETATM   12  C20 UNL     1      22.115   5.085  49.397  1.00  0.00     0.296 C 
HETATM   13  O2  UNL     1      21.368   4.887  48.411  1.00  0.00    -0.262 OA
HETATM   14  O3  UNL     1      23.267   5.452  49.893  1.00  0.00    -0.277 OA
HETATM   15  H10 UNL     1      21.317   6.426  52.263  1.00  0.00     0.160 HD
ENDROOT
BRANCH   1  16
HETATM   16  N1  UNL     1      24.920   2.187  52.005  1.00  0.00    -0.340 N 
HETATM   17  H6  UNL     1      23.944   2.029  52.283  1.00  0.00     0.167 HD
BRANCH  16  18
HETATM   18  C5  UNL     1      26.068   1.479  52.480  1.00  0.00     0.035 A 
HETATM   19  C4  UNL     1      26.096   0.120  52.143  1.00  0.00     0.030 A 
HETATM   20  C3  UNL     1      27.199  -0.587  52.589  1.00  0.00     0.011 A 
HETATM   21  C2  UNL     1      28.205  -0.010  53.312  1.00  0.00    -0.040 A 
HETATM   22  C1  UNL     1      29.338  -0.899  53.725  1.00  0.00     0.050 C 
HETATM   23  C22 UNL     1      28.166   1.339  53.641  1.00  0.00     0.042 A 
HETATM   24  C21 UNL     1      27.078   2.062  53.208  1.00  0.00     0.053 A 
HETATM   25 CL1  UNL     1      29.469   2.048  54.569  1.00  0.00    -0.084 Cl
ENDBRANCH  16  18
ENDBRANCH   1  16
BRANCH   9  26
HETATM   26  C12 UNL     1      20.712   4.223  51.256  1.00  0.00     0.065 C 
BRANCH  26  27
HETATM   27  C13 UNL     1      20.788   3.435  52.543  1.00  0.00     0.120 C 
BRANCH  27  28
HETATM   28  N5  UNL     1      20.439   2.091  52.312  1.00  0.00    -0.408 N 
HETATM   29  C14 UNL     1      20.429   1.607  50.992  1.00  0.00     0.143 C 
HETATM   30  C15 UNL     1      21.332   0.385  50.862  1.00  0.00     0.187 C 
HETATM   31  O1  UNL     1      22.399   0.476  51.778  1.00  0.00    -0.388 OA
HETATM   32  C16 UNL     1      21.925   0.375  53.083  1.00  0.00     0.187 C 
HETATM   33  C17 UNL     1      20.634   1.127  53.311  1.00  0.00     0.143 C 
ENDBRANCH  27  28
ENDBRANCH  26  27
ENDBRANCH   9  26
TORSDOF 5
ENDMDL
MODEL 4
REMARK VINA RESULT:      -8.7      2.118      4.934
REMARK  5 active torsions:
REMARK  status: ('A' for Active; 'I' for Inactive)
REMARK    1  A    between atoms: C5_5  and  N1_6 
REMARK    2  A    between atoms: N1_6  and  C6_7 
REMARK    3  A    between atoms: C11_15  and  C12_16 
REMARK    4  A    between atoms: C12_16  and  C13_17 
REMARK    5  A    between atoms: C13_17  and  N5_18 
ROOT
HETATM    1  C6  UNL     1      23.430   0.616  52.604  1.00  0.00     0.138 C 
HETATM    2  N2  UNL     1      23.332   0.399  53.897  1.00  0.00    -0.224 NA
HETATM    3  C7  UNL     1      22.094  -0.142  54.418  1.00  0.00     0.230 C 
HETATM    4  N3  UNL     1      20.973  -0.509  53.826  1.00  0.00    -0.266 NA
HETATM    5  C8  UNL     1      20.914  -0.395  52.447  1.00  0.00     0.204 C 
HETATM    6  C9  UNL     1      19.756   0.048  51.672  1.00  0.00     0.101 C 
HETATM    7  C10 UNL     1      18.690   0.338  50.947  1.00  0.00     0.120 C 
HETATM    8  N4  UNL     1      19.557   1.166  50.021  1.00  0.00    -0.376 N 
HETATM    9  C11 UNL     1      20.525   2.135  50.601  1.00  0.00     0.139 C 
HETATM   10  C18 UNL     1      21.811   1.358  50.870  1.00  0.00     0.028 C 
HETATM   11  C19 UNL     1      22.096   0.510  51.967  1.00  0.00     0.018 C 
HETATM   12  C20 UNL     1      19.846   2.529  51.913  1.00  0.00     0.296 C 
HETATM   13  O2  UNL     1      19.296   3.573  52.332  1.00  0.00    -0.262 OA
HETATM   14  O3  UNL     1      20.222   1.291  52.096  1.00  0.00    -0.277 OA
HETATM   15  H10 UNL     1      19.614   1.214  48.936  1.00  0.00     0.160 HD
ENDROOT
BRANCH   1  16
HETATM   16  N1  UNL     1      24.427   1.097  51.735  1.00  0.00    -0.340 N 
HETATM   17  H6  UNL     1      24.249   1.604  50.861  1.00  0.00     0.167 HD
BRANCH  16  18
HETATM   18  C5  UNL     1      25.705   0.763  52.284  1.00  0.00     0.035 A 
HETATM   19  C4  UNL     1      25.979  -0.610  52.332  1.00  0.00     0.030 A 
HETATM   20  C3  UNL     1      27.211  -0.958  52.855  1.00  0.00     0.011 A 
HETATM   21  C2  UNL     1      28.114  -0.035  53.302  1.00  0.00    -0.040 A 
HETATM   22  C1  UNL     1      29.409  -0.559  53.843  1.00  0.00     0.050 C 
HETATM   23  C22 UNL     1      27.831   1.325  53.251  1.00  0.00     0.042 A 
HETATM   24  C21 UNL     1      26.610   1.695  52.734  1.00  0.00     0.053 A 
HETATM   25 CL1  UNL     1      29.006   2.482  53.832  1.00  0.00    -0.084 Cl
ENDBRANCH  16  18
ENDBRANCH   1  16
BRANCH   9  26
HETATM   26  C12 UNL     1      20.746   3.294  49.728  1.00  0.00     0.065 C 
BRANCH  26  27
HETATM   27  C13 UNL     1      22.137   3.378  49.145  1.00  0.00     0.120 C 
BRANCH  27  28
HETATM   28  N5  UNL     1      22.791   4.533  49.613  1.00  0.00    -0.408 N 
HETATM   29  C14 UNL     1      22.321   5.156  50.783  1.00  0.00     0.143 C 
HETATM   30  C15 UNL     1      23.440   5.280  51.811  1.00  0.00     0.187 C 
HETATM   31  O1  UNL     1      24.349   4.213  51.664  1.00  0.00    -0.388 OA
HETATM   32  C16 UNL     1      25.027   4.320  50.453  1.00  0.00     0.187 C 
HETATM   33  C17 UNL     1      24.141   4.755  49.307  1.00  0.00     0.143 C 
ENDBRANCH  27  28
ENDBRANCH  26  27
ENDBRANCH   9  26
TORSDOF 5
ENDMDL
MODEL 5
REMARK VINA RESULT:      -8.6      2.438      5.691
REMARK  5 active torsions:
REMARK  status: ('A' for Active; 'I' for Inactive)
REMARK    1  A    between atoms: C5_5  and  N1_6 
REMARK    2  A    between atoms: N1_6  and  C6_7 
REMARK    3  A    between atoms: C11_15  and  C12_16 
REMARK    4  A    between atoms: C12_16  and  C13_17 
REMARK    5  A    between atoms: C13_17  and  N5_18 
ROOT
HETATM    1  C6  UNL     1      24.832   2.357  52.393  1.00  0.00     0.138 C 
HETATM    2  N2  UNL     1      23.937   1.730  53.125  1.00  0.00    -0.224 NA
HETATM    3  C7  UNL     1      22.673   1.369  52.517  1.00  0.00     0.230 C 
HETATM    4  N3  UNL     1      22.204   1.529  51.294  1.00  0.00    -0.266 NA
HETATM    5  C8  UNL     1      23.037   2.132  50.367  1.00  0.00     0.204 C 
HETATM    6  C9  UNL     1      22.628   3.095  49.346  1.00  0.00     0.101 C 
HETATM    7  C10 UNL     1      22.262   3.879  48.347  1.00  0.00     0.120 C 
HETATM    8  N4  UNL     1      23.490   4.734  48.583  1.00  0.00    -0.376 N 
HETATM    9  C11 UNL     1      23.827   5.161  49.966  1.00  0.00     0.139 C 
HETATM   10  C18 UNL     1      24.671   4.043  50.574  1.00  0.00     0.028 C 
HETATM   11  C19 UNL     1      24.219   2.821  51.126  1.00  0.00     0.018 C 
HETATM   12  C20 UNL     1      22.453   5.224  50.633  1.00  0.00     0.296 C 
HETATM   13  O2  UNL     1      21.723   6.156  51.045  1.00  0.00    -0.262 OA
HETATM   14  O3  UNL     1      22.669   3.949  50.446  1.00  0.00    -0.277 OA
HETATM   15  H10 UNL     1      24.226   5.145  47.895  1.00  0.00     0.160 HD
ENDROOT
BRANCH   1  16
HETATM   16  N1  UNL     1      26.136   2.846  52.594  1.00  0.00    -0.340 N 
HETATM   17  H6  UNL     1      26.404   3.836  52.553  1.00  0.00     0.167 HD
BRANCH  16  18
HETATM   18  C5  UNL     1      26.998   1.738  52.867  1.00  0.00     0.035 A 
HETATM   19  C4  UNL     1      28.215   2.080  53.469  1.00  0.00     0.030 A 
HETATM   20  C3  UNL     1      29.066   1.025  53.746  1.00  0.00     0.011 A 
HETATM   21  C2  UNL     1      28.753  -0.273  53.458  1.00  0.00    -0.040 A 
HETATM   22  C1  UNL     1      29.772  -1.312  53.816  1.00  0.00     0.050 C 
HETATM   23  C22 UNL     1      27.542  -0.601  52.859  1.00  0.00     0.042 A 
HETATM   24  C21 UNL     1      26.681   0.433  52.574  1.00  0.00     0.053 A 
HETATM   25 CL1  UNL     1      27.173  -2.273  52.500  1.00  0.00    -0.084 Cl
ENDBRANCH  16  18
ENDBRANCH   1  16
BRANCH   9  26
HETATM   26  C12 UNL     1      24.513   6.458  49.999  1.00  0.00     0.065 C 
BRANCH  26  27
HETATM   27  C13 UNL     1      25.983   6.393  49.660  1.00  0.00     0.120 C 
BRANCH  27  28
HETATM   28  N5  UNL     1      26.350   7.500  48.872  1.00  0.00    -0.408 N 
HETATM   29  C14 UNL     1      25.351   8.393  48.444  1.00  0.00     0.143 C 
HETATM   30  C15 UNL     1      25.683   9.816  48.877  1.00  0.00     0.187 C 
HETATM   31  O1  UNL     1      26.413   9.795  50.083  1.00  0.00    -0.388 OA
HETATM   32  C16 UNL     1      27.669   9.232  49.877  1.00  0.00     0.187 C 
HETATM   33  C17 UNL     1      27.644   8.032  48.958  1.00  0.00     0.143 C 
ENDBRANCH  27  28
ENDBRANCH  26  27
ENDBRANCH   9  26
TORSDOF 5
ENDMDL
MODEL 6
REMARK VINA RESULT:      -8.2      2.783      5.675
REMARK  5 active torsions:
REMARK  status: ('A' for Active; 'I' for Inactive)
REMARK    1  A    between atoms: C5_5  and  N1_6 
REMARK    2  A    between atoms: N1_6  and  C6_7 
REMARK    3  A    between atoms: C11_15  and  C12_16 
REMARK    4  A    between atoms: C12_16  and  C13_17 
REMARK    5  A    between atoms: C13_17  and  N5_18 
ROOT
HETATM    1  C6  UNL     1      22.090   6.085  51.120  1.00  0.00     0.138 C 
HETATM    2  N2  UNL     1      21.383   6.522  50.101  1.00  0.00    -0.224 NA
HETATM    3  C7  UNL     1      20.137   5.855  49.785  1.00  0.00     0.230 C 
HETATM    4  N3  UNL     1      19.507   4.846  50.355  1.00  0.00    -0.266 NA
HETATM    5  C8  UNL     1      20.086   4.287  51.482  1.00  0.00     0.204 C 
HETATM    6  C9  UNL     1      20.132   2.863  51.806  1.00  0.00     0.101 C 
HETATM    7  C10 UNL     1      20.087   1.594  52.173  1.00  0.00     0.120 C 
HETATM    8  N4  UNL     1      21.519   1.694  52.657  1.00  0.00    -0.376 N 
HETATM    9  C11 UNL     1      22.542   2.328  51.783  1.00  0.00     0.139 C 
HETATM   10  C18 UNL     1      22.495   3.826  52.074  1.00  0.00     0.028 C 
HETATM   11  C19 UNL     1      21.570   4.775  51.578  1.00  0.00     0.018 C 
HETATM   12  C20 UNL     1      22.004   2.032  50.383  1.00  0.00     0.296 C 
HETATM   13  O2  UNL     1      22.372   1.286  49.446  1.00  0.00    -0.262 OA
HETATM   14  O3  UNL     1      21.169   2.907  50.877  1.00  0.00    -0.277 OA
HETATM   15  H10 UNL     1      21.995   1.359  53.576  1.00  0.00     0.160 HD
ENDROOT
BRANCH   1  16
HETATM   16  N1  UNL     1      23.298   6.453  51.741  1.00  0.00    -0.340 N 
HETATM   17  H6  UNL     1      23.427   6.568  52.753  1.00  0.00     0.167 HD
BRANCH  16  18
HETATM   18  C5  UNL     1      24.293   6.627  50.727  1.00  0.00     0.035 A 
HETATM   19  C4  UNL     1      24.352   7.916  50.183  1.00  0.00     0.030 A 
HETATM   20  C3  UNL     1      25.309   8.110  49.203  1.00  0.00     0.011 A 
HETATM   21  C2  UNL     1      26.151   7.119  48.783  1.00  0.00    -0.040 A 
HETATM   22  C1  UNL     1      27.138   7.476  47.714  1.00  0.00     0.050 C 
HETATM   23  C22 UNL     1      26.082   5.844  49.330  1.00  0.00     0.042 A 
HETATM   24  C21 UNL     1      25.137   5.627  50.306  1.00  0.00     0.053 A 
HETATM   25 CL1  UNL     1      27.172   4.595  48.769  1.00  0.00    -0.084 Cl
ENDBRANCH  16  18
ENDBRANCH   1  16
BRANCH   9  26
HETATM   26  C12 UNL     1      23.880   1.762  51.988  1.00  0.00     0.065 C 
BRANCH  26  27
HETATM   27  C13 UNL     1      23.911   0.548  52.887  1.00  0.00     0.120 C 
BRANCH  27  28
HETATM   28  N5  UNL     1      25.216   0.023  52.950  1.00  0.00    -0.408 N 
HETATM   29  C14 UNL     1      26.231   0.627  52.188  1.00  0.00     0.143 C 
HETATM   30  C15 UNL     1      27.396   1.043  53.080  1.00  0.00     0.187 C 
HETATM   31  O1  UNL     1      26.923   1.368  54.367  1.00  0.00    -0.388 OA
HETATM   32  C16 UNL     1      26.435   0.231  55.004  1.00  0.00     0.187 C 
HETATM   33  C17 UNL     1      25.644  -0.675  54.088  1.00  0.00     0.143 C 
ENDBRANCH  27  28
ENDBRANCH  26  27
ENDBRANCH   9  26
TORSDOF 5
ENDMDL
MODEL 7
REMARK VINA RESULT:      -8.1      4.237      8.054
REMARK  5 active torsions:
REMARK  status: ('A' for Active; 'I' for Inactive)
REMARK    1  A    between atoms: C5_5  and  N1_6 
REMARK    2  A    between atoms: N1_6  and  C6_7 
REMARK    3  A    between atoms: C11_15  and  C12_16 
REMARK    4  A    between atoms: C12_16  and  C13_17 
REMARK    5  A    between atoms: C13_17  and  N5_18 
ROOT
HETATM    1  C6  UNL     1      24.958   5.654  50.414  1.00  0.00     0.138 C 
HETATM    2  N2  UNL     1      24.252   6.368  51.263  1.00  0.00    -0.224 NA
HETATM    3  C7  UNL     1      23.808   7.686  50.862  1.00  0.00     0.230 C 
HETATM    4  N3  UNL     1      23.954   8.363  49.739  1.00  0.00    -0.266 NA
HETATM    5  C8  UNL     1      24.635   7.742  48.705  1.00  0.00     0.204 C 
HETATM    6  C9  UNL     1      25.583   8.382  47.796  1.00  0.00     0.101 C 
HETATM    7  C10 UNL     1      26.355   8.965  46.895  1.00  0.00     0.120 C 
HETATM    8  N4  UNL     1      27.296   7.779  46.950  1.00  0.00    -0.376 N 
HETATM    9  C11 UNL     1      27.722   7.247  48.272  1.00  0.00     0.139 C 
HETATM   10  C18 UNL     1      26.660   6.236  48.698  1.00  0.00     0.028 C 
HETATM   11  C19 UNL     1      25.397   6.501  49.279  1.00  0.00     0.018 C 
HETATM   12  C20 UNL     1      27.669   8.492  49.158  1.00  0.00     0.296 C 
HETATM   13  O2  UNL     1      28.536   9.206  49.712  1.00  0.00    -0.262 OA
HETATM   14  O3  UNL     1      26.417   8.220  48.899  1.00  0.00    -0.277 OA
HETATM   15  H10 UNL     1      27.773   7.198  46.164  1.00  0.00     0.160 HD
ENDROOT
BRANCH   1  16
HETATM   16  N1  UNL     1      25.540   4.373  50.412  1.00  0.00    -0.340 N 
HETATM   17  H6  UNL     1      26.549   4.187  50.387  1.00  0.00     0.167 HD
BRANCH  16  18
HETATM   18  C5  UNL     1      24.492   3.400  50.457  1.00  0.00     0.035 A 
HETATM   19  C4  UNL     1      23.723   3.317  49.290  1.00  0.00     0.030 A 
HETATM   20  C3  UNL     1      22.705   2.380  49.307  1.00  0.00     0.011 A 
HETATM   21  C2  UNL     1      22.454   1.579  50.386  1.00  0.00    -0.040 A 
HETATM   22  C1  UNL     1      21.319   0.610  50.261  1.00  0.00     0.050 C 
HETATM   23  C22 UNL     1      23.224   1.671  51.539  1.00  0.00     0.042 A 
HETATM   24  C21 UNL     1      24.242   2.597  51.544  1.00  0.00     0.053 A 
HETATM   25 CL1  UNL     1      22.877   0.634  52.904  1.00  0.00    -0.084 Cl
ENDBRANCH  16  18
ENDBRANCH   1  16
BRANCH   9  26
HETATM   26  C12 UNL     1      29.066   6.659  48.231  1.00  0.00     0.065 C 
BRANCH  26  27
HETATM   27  C13 UNL     1      29.946   7.194  47.126  1.00  0.00     0.120 C 
BRANCH  27  28
HETATM   28  N5  UNL     1      31.302   7.008  47.450  1.00  0.00    -0.408 N 
HETATM   29  C14 UNL     1      31.715   7.193  48.782  1.00  0.00     0.143 C 
HETATM   30  C15 UNL     1      32.420   5.945  49.302  1.00  0.00     0.187 C 
HETATM   31  O1  UNL     1      31.893   4.798  48.675  1.00  0.00    -0.388 OA
HETATM   32  C16 UNL     1      32.217   4.796  47.321  1.00  0.00     0.187 C 
HETATM   33  C17 UNL     1      32.106   6.159  46.677  1.00  0.00     0.143 C 
ENDBRANCH  27  28
ENDBRANCH  26  27
ENDBRANCH   9  26
TORSDOF 5
ENDMDL
MODEL 8
REMARK VINA RESULT:      -8.1      4.996      8.524
REMARK  5 active torsions:
REMARK  status: ('A' for Active; 'I' for Inactive)
REMARK    1  A    between atoms: C5_5  and  N1_6 
REMARK    2  A    between atoms: N1_6  and  C6_7 
REMARK    3  A    between atoms: C11_15  and  C12_16 
REMARK    4  A    between atoms: C12_16  and  C13_17 
REMARK    5  A    between atoms: C13_17  and  N5_18 
ROOT
HETATM    1  C6  UNL     1      26.782   5.734  49.058  1.00  0.00     0.138 C 
HETATM    2  N2  UNL     1      25.976   6.462  49.798  1.00  0.00    -0.224 NA
HETATM    3  C7  UNL     1      25.775   7.852  49.446  1.00  0.00     0.230 C 
HETATM    4  N3  UNL     1      26.247   8.590  48.459  1.00  0.00    -0.266 NA
HETATM    5  C8  UNL     1      27.082   7.970  47.544  1.00  0.00     0.204 C 
HETATM    6  C9  UNL     1      28.276   8.557  46.939  1.00  0.00     0.101 C 
HETATM    7  C10 UNL     1      29.292   9.106  46.297  1.00  0.00     0.120 C 
HETATM    8  N4  UNL     1      30.067   7.812  46.437  1.00  0.00    -0.376 N 
HETATM    9  C11 UNL     1      30.117   7.132  47.758  1.00  0.00     0.139 C 
HETATM   10  C18 UNL     1      28.887   6.231  47.832  1.00  0.00     0.028 C 
HETATM   11  C19 UNL     1      27.557   6.604  48.142  1.00  0.00     0.018 C 
HETATM   12  C20 UNL     1      29.989   8.302  48.734  1.00  0.00     0.296 C 
HETATM   13  O2  UNL     1      30.771   8.859  49.538  1.00  0.00    -0.262 OA
HETATM   14  O3  UNL     1      28.810   8.208  48.177  1.00  0.00    -0.277 OA
HETATM   15  H10 UNL     1      30.652   7.239  45.721  1.00  0.00     0.160 HD
ENDROOT
BRANCH   1  16
HETATM   16  N1  UNL     1      27.213   4.395  49.053  1.00  0.00    -0.340 N 
HETATM   17  H6  UNL     1      28.047   4.048  48.564  1.00  0.00     0.167 HD
BRANCH  16  18
HETATM   18  C5  UNL     1      26.303   3.623  49.842  1.00  0.00     0.035 A 
HETATM   19  C4  UNL     1      24.987   3.606  49.365  1.00  0.00     0.030 A 
HETATM   20  C3  UNL     1      24.088   2.864  50.110  1.00  0.00     0.011 A 
HETATM   21  C2  UNL     1      24.446   2.184  51.240  1.00  0.00    -0.040 A 
HETATM   22  C1  UNL     1      23.366   1.422  51.943  1.00  0.00     0.050 C 
HETATM   23  C22 UNL     1      25.755   2.209  51.704  1.00  0.00     0.042 A 
HETATM   24  C21 UNL     1      26.667   2.942  50.980  1.00  0.00     0.053 A 
HETATM   25 CL1  UNL     1      26.182   1.331  53.156  1.00  0.00    -0.084 Cl
ENDBRANCH  16  18
ENDBRANCH   1  16
BRANCH   9  26
HETATM   26  C12 UNL     1      31.366   6.387  47.956  1.00  0.00     0.065 C 
BRANCH  26  27
HETATM   27  C13 UNL     1      31.243   4.897  47.741  1.00  0.00     0.120 C 
BRANCH  27  28
HETATM   28  N5  UNL     1      32.365   4.412  47.043  1.00  0.00    -0.408 N 
HETATM   29  C14 UNL     1      33.650   4.728  47.516  1.00  0.00     0.143 C 
HETATM   30  C15 UNL     1      34.461   3.459  47.756  1.00  0.00     0.187 C 
HETATM   31  O1  UNL     1      33.602   2.402  48.122  1.00  0.00    -0.388 OA
HETATM   32  C16 UNL     1      32.785   2.052  47.051  1.00  0.00     0.187 C 
HETATM   33  C17 UNL     1      32.270   3.243  46.276  1.00  0.00     0.143 C 
ENDBRANCH  27  28
ENDBRANCH  26  27
ENDBRANCH   9  26
TORSDOF 5
ENDMDL
MODEL 9
REMARK VINA RESULT:      -7.9      2.404      5.445
REMARK  5 active torsions:
REMARK  status: ('A' for Active; 'I' for Inactive)
REMARK    1  A    between atoms: C5_5  and  N1_6 
REMARK    2  A    between atoms: N1_6  and  C6_7 
REMARK    3  A    between atoms: C11_15  and  C12_16 
REMARK    4  A    between atoms: C12_16  and  C13_17 
REMARK    5  A    between atoms: C13_17  and  N5_18 
ROOT
HETATM    1  C6  UNL     1      24.009   0.614  52.604  1.00  0.00     0.138 C 
HETATM    2  N2  UNL     1      23.826   0.165  53.825  1.00  0.00    -0.224 NA
HETATM    3  C7  UNL     1      22.553  -0.439  54.160  1.00  0.00     0.230 C 
HETATM    4  N3  UNL     1      21.469  -0.668  53.442  1.00  0.00    -0.266 NA
HETATM    5  C8  UNL     1      21.500  -0.301  52.107  1.00  0.00     0.204 C 
HETATM    6  C9  UNL     1      20.399   0.299  51.358  1.00  0.00     0.101 C 
HETATM    7  C10 UNL     1      19.383   0.738  50.634  1.00  0.00     0.120 C 
HETATM    8  N4  UNL     1      20.314   1.705  49.933  1.00  0.00    -0.376 N 
HETATM    9  C11 UNL     1      21.250   2.532  50.740  1.00  0.00     0.139 C 
HETATM   10  C18 UNL     1      22.511   1.694  50.940  1.00  0.00     0.028 C 
HETATM   11  C19 UNL     1      22.718   0.653  51.876  1.00  0.00     0.018 C 
HETATM   12  C20 UNL     1      20.492   2.691  52.058  1.00  0.00     0.296 C 
HETATM   13  O2  UNL     1      19.924   3.651  52.628  1.00  0.00    -0.262 OA
HETATM   14  O3  UNL     1      20.845   1.433  52.032  1.00  0.00    -0.277 OA
HETATM   15  H10 UNL     1      20.442   1.950  48.880  1.00  0.00     0.160 HD
ENDROOT
BRANCH   1  16
HETATM   16  N1  UNL     1      25.064   1.226  51.902  1.00  0.00    -0.340 N 
HETATM   17  H6  UNL     1      24.946   1.898  51.134  1.00  0.00     0.167 HD
BRANCH  16  18
HETATM   18  C5  UNL     1      26.301   0.758  52.445  1.00  0.00     0.035 A 
HETATM   19  C4  UNL     1      26.551  -0.605  52.238  1.00  0.00     0.030 A 
HETATM   20  C3  UNL     1      27.743  -1.081  52.751  1.00  0.00     0.011 A 
HETATM   21  C2  UNL     1      28.633  -0.287  53.419  1.00  0.00    -0.040 A 
HETATM   22  C1  UNL     1      29.884  -0.941  53.918  1.00  0.00     0.050 C 
HETATM   23  C22 UNL     1      28.374   1.064  53.619  1.00  0.00     0.042 A 
HETATM   24  C21 UNL     1      27.192   1.560  53.118  1.00  0.00     0.053 A 
HETATM   25 CL1  UNL     1      29.531   2.054  54.480  1.00  0.00    -0.084 Cl
ENDBRANCH  16  18
ENDBRANCH   1  16
BRANCH   9  26
HETATM   26  C12 UNL     1      21.536   3.827  50.111  1.00  0.00     0.065 C 
BRANCH  26  27
HETATM   27  C13 UNL     1      22.189   3.729  48.753  1.00  0.00     0.120 C 
BRANCH  27  28
HETATM   28  N5  UNL     1      21.583   4.628  47.856  1.00  0.00    -0.408 N 
HETATM   29  C14 UNL     1      22.399   5.383  46.994  1.00  0.00     0.143 C 
HETATM   30  C15 UNL     1      21.989   5.167  45.542  1.00  0.00     0.187 C 
HETATM   31  O1  UNL     1      21.468   3.868  45.377  1.00  0.00    -0.388 OA
HETATM   32  C16 UNL     1      20.263   3.740  46.062  1.00  0.00     0.187 C 
HETATM   33  C17 UNL     1      20.270   4.413  47.416  1.00  0.00     0.143 C 
ENDBRANCH  27  28
ENDBRANCH  26  27
ENDBRANCH   9  26
TORSDOF 5
ENDMDL
