MODEL 1
REMARK VINA RESULT:      -8.0      0.000      0.000
REMARK  7 active torsions:
REMARK  status: ('A' for Active; 'I' for Inactive)
REMARK    1  A    between atoms: C3_3  and  C4_4 
REMARK    2  A    between atoms: C4_4  and  C5_6 
REMARK    3  A    between atoms: C5_6  and  N1_9 
REMARK    4  A    between atoms: N1_9  and  C7_10 
REMARK    5  A    between atoms: C11_17  and  C12_18 
REMARK    6  A    between atoms: C12_18  and  N5_19 
REMARK    7  A    between atoms: C15_22  and  N6_23 
ROOT
HETATM    1  C7  UNL     1      22.578   1.350  52.028  1.00  0.00     0.159 A 
HETATM    2  N2  UNL     1      21.355   1.894  51.848  1.00  0.00    -0.220 NA
HETATM    3  C8  UNL     1      20.355   1.583  52.714  1.00  0.00     0.258 A 
HETATM    4  N3  UNL     1      20.579   0.745  53.741  1.00  0.00    -0.161 NA
HETATM    5  N4  UNL     1      21.771   0.204  53.931  1.00  0.00    -0.240 N 
HETATM    6  C9  UNL     1      22.194  -0.663  54.893  1.00  0.00     0.119 A 
HETATM    7  C10 UNL     1      23.522  -0.896  54.598  1.00  0.00     0.030 A 
HETATM    8  C11 UNL     1      23.904  -0.173  53.463  1.00  0.00     0.004 A 
HETATM    9  C18 UNL     1      22.757   0.495  53.096  1.00  0.00     0.112 A 
ENDROOT
BRANCH   1  10
HETATM   10  N1  UNL     1      23.645   1.669  51.105  1.00  0.00    -0.339 N 
HETATM   11  H8  UNL     1      24.228   1.076  50.476  1.00  0.00     0.167 HD
BRANCH  10  12
HETATM   12  C5  UNL     1      23.699   3.079  51.294  1.00  0.00     0.060 C 
HETATM   13  C6  UNL     1      23.799   3.798  52.375  1.00  0.00     0.215 C 
HETATM   14  F1  UNL     1      23.830   5.144  52.293  1.00  0.00    -0.217 F 
BRANCH  12  15
HETATM   15  C4  UNL     1      23.622   3.748  50.000  1.00  0.00     0.156 C 
HETATM   16 CL1  UNL     1      22.292   4.912  49.906  1.00  0.00    -0.114 Cl
BRANCH  15  17
HETATM   17  C3  UNL     1      24.909   4.345  49.535  1.00  0.00    -0.005 C 
HETATM   18  C2  UNL     1      26.113   3.771  49.449  1.00  0.00    -0.033 C 
HETATM   19  C1  UNL     1      27.266   4.554  48.954  1.00  0.00     0.036 C 
ENDBRANCH  15  17
ENDBRANCH  12  15
ENDBRANCH  10  12
ENDBRANCH   1  10
BRANCH   8  20
HETATM   20  C12 UNL     1      25.261  -0.240  52.922  1.00  0.00     0.313 C 
BRANCH  20  21
HETATM   21  N5  UNL     1      26.259   0.402  53.800  1.00  0.00     0.092 N 
HETATM   22  C13 UNL     1      26.517   1.754  53.422  1.00  0.00     0.275 C 
HETATM   23  C14 UNL     1      27.908   2.157  53.180  1.00  0.00     0.065 C 
HETATM   24  C15 UNL     1      28.989   1.374  53.819  1.00  0.00     0.221 C 
HETATM   25  C16 UNL     1      28.539   0.126  54.506  1.00  0.00     0.065 C 
HETATM   26  C17 UNL     1      27.423  -0.457  53.704  1.00  0.00     0.275 C 
BRANCH  24  27
HETATM   27  N6  UNL     1      29.716   2.183  54.808  1.00  0.00     0.083 N 
HETATM   28  H19 UNL     1      30.303   2.859  54.236  1.00  0.00     0.313 HD
HETATM   29  H20 UNL     1      29.000   2.793  55.265  1.00  0.00     0.313 HD
ENDBRANCH  24  27
ENDBRANCH  20  21
ENDBRANCH   8  20
TORSDOF 7
ENDMDL
MODEL 2
REMARK VINA RESULT:      -7.7      1.837      2.274
REMARK  7 active torsions:
REMARK  status: ('A' for Active; 'I' for Inactive)
REMARK    1  A    between atoms: C3_3  and  C4_4 
REMARK    2  A    between atoms: C4_4  and  C5_6 
REMARK    3  A    between atoms: C5_6  and  N1_9 
REMARK    4  A    between atoms: N1_9  and  C7_10 
REMARK    5  A    between atoms: C11_17  and  C12_18 
REMARK    6  A    between atoms: C12_18  and  N5_19 
REMARK    7  A    between atoms: C15_22  and  N6_23 
ROOT
HETATM    1  C7  UNL     1      22.793   2.746  52.312  1.00  0.00     0.159 A 
HETATM    2  N2  UNL     1      21.614   3.367  52.094  1.00  0.00    -0.220 NA
HETATM    3  C8  UNL     1      20.462   2.765  52.489  1.00  0.00     0.258 A 
HETATM    4  N3  UNL     1      20.494   1.564  53.092  1.00  0.00    -0.161 NA
HETATM    5  N4  UNL     1      21.641   0.942  53.312  1.00  0.00    -0.240 N 
HETATM    6  C9  UNL     1      21.882  -0.267  53.893  1.00  0.00     0.119 A 
HETATM    7  C10 UNL     1      23.254  -0.411  53.848  1.00  0.00     0.030 A 
HETATM    8  C11 UNL     1      23.843   0.705  53.244  1.00  0.00     0.004 A 
HETATM    9  C18 UNL     1      22.773   1.514  52.933  1.00  0.00     0.112 A 
ENDROOT
BRANCH   1  10
HETATM   10  N1  UNL     1      24.024   3.378  51.886  1.00  0.00    -0.339 N 
HETATM   11  H8  UNL     1      24.826   3.778  52.418  1.00  0.00     0.167 HD
BRANCH  10  12
HETATM   12  C5  UNL     1      23.840   3.311  50.475  1.00  0.00     0.060 C 
HETATM   13  C6  UNL     1      23.329   2.382  49.719  1.00  0.00     0.215 C 
HETATM   14  F1  UNL     1      23.266   2.556  48.383  1.00  0.00    -0.217 F 
BRANCH  12  15
HETATM   15  C4  UNL     1      24.339   4.534  49.860  1.00  0.00     0.156 C 
HETATM   16 CL1  UNL     1      24.138   5.956  50.895  1.00  0.00    -0.114 Cl
BRANCH  15  17
HETATM   17  C3  UNL     1      25.730   4.436  49.325  1.00  0.00    -0.005 C 
HETATM   18  C2  UNL     1      26.595   5.419  49.062  1.00  0.00    -0.033 C 
HETATM   19  C1  UNL     1      27.937   5.094  48.533  1.00  0.00     0.036 C 
ENDBRANCH  15  17
ENDBRANCH  12  15
ENDBRANCH  10  12
ENDBRANCH   1  10
BRANCH   8  20
HETATM   20  C12 UNL     1      25.289   0.814  53.060  1.00  0.00     0.313 C 
BRANCH  20  21
HETATM   21  N5  UNL     1      26.006  -0.428  53.411  1.00  0.00     0.092 N 
HETATM   22  C13 UNL     1      27.193  -0.171  54.158  1.00  0.00     0.275 C 
HETATM   23  C14 UNL     1      28.460  -0.733  53.672  1.00  0.00     0.065 C 
HETATM   24  C15 UNL     1      28.410  -1.924  52.797  1.00  0.00     0.221 C 
HETATM   25  C16 UNL     1      27.041  -2.320  52.350  1.00  0.00     0.065 C 
HETATM   26  C17 UNL     1      26.254  -1.070  52.135  1.00  0.00     0.275 C 
BRANCH  24  27
HETATM   27  N6  UNL     1      29.013  -3.092  53.456  1.00  0.00     0.083 N 
HETATM   28  H19 UNL     1      28.929  -3.883  52.751  1.00  0.00     0.313 HD
HETATM   29  H20 UNL     1      30.040  -2.900  53.501  1.00  0.00     0.313 HD
ENDBRANCH  24  27
ENDBRANCH  20  21
ENDBRANCH   8  20
TORSDOF 7
ENDMDL
MODEL 3
REMARK VINA RESULT:      -7.6      1.895      2.444
REMARK  7 active torsions:
REMARK  status: ('A' for Active; 'I' for Inactive)
REMARK    1  A    between atoms: C3_3  and  C4_4 
REMARK    2  A    between atoms: C4_4  and  C5_6 
REMARK    3  A    between atoms: C5_6  and  N1_9 
REMARK    4  A    between atoms: N1_9  and  C7_10 
REMARK    5  A    between atoms: C11_17  and  C12_18 
REMARK    6  A    between atoms: C12_18  and  N5_19 
REMARK    7  A    between atoms: C15_22  and  N6_23 
ROOT
HETATM    1  C7  UNL     1      23.446   1.720  51.011  1.00  0.00     0.159 A 
HETATM    2  N2  UNL     1      22.525   1.931  50.046  1.00  0.00    -0.220 NA
HETATM    3  C8  UNL     1      21.307   1.336  50.147  1.00  0.00     0.258 A 
HETATM    4  N3  UNL     1      21.021   0.547  51.198  1.00  0.00    -0.161 NA
HETATM    5  N4  UNL     1      21.912   0.330  52.150  1.00  0.00    -0.240 N 
HETATM    6  C9  UNL     1      21.821  -0.433  53.276  1.00  0.00     0.119 A 
HETATM    7  C10 UNL     1      23.048  -0.298  53.893  1.00  0.00     0.030 A 
HETATM    8  C11 UNL     1      23.880   0.543  53.147  1.00  0.00     0.004 A 
HETATM    9  C18 UNL     1      23.104   0.901  52.067  1.00  0.00     0.112 A 
ENDROOT
BRANCH   1  10
HETATM   10  N1  UNL     1      24.748   2.344  50.904  1.00  0.00    -0.339 N 
HETATM   11  H8  UNL     1      25.689   1.963  50.668  1.00  0.00     0.167 HD
BRANCH  10  12
HETATM   12  C5  UNL     1      24.389   3.683  51.229  1.00  0.00     0.060 C 
HETATM   13  C6  UNL     1      23.672   4.168  52.203  1.00  0.00     0.215 C 
HETATM   14  F1  UNL     1      23.471   5.498  52.298  1.00  0.00    -0.217 F 
BRANCH  12  15
HETATM   15  C4  UNL     1      24.968   4.594  50.250  1.00  0.00     0.156 C 
HETATM   16 CL1  UNL     1      26.488   3.996  49.569  1.00  0.00    -0.114 Cl
BRANCH  15  17
HETATM   17  C3  UNL     1      24.023   5.037  49.182  1.00  0.00    -0.005 C 
HETATM   18  C2  UNL     1      24.106   6.105  48.384  1.00  0.00    -0.033 C 
HETATM   19  C1  UNL     1      23.048   6.357  47.382  1.00  0.00     0.036 C 
ENDBRANCH  15  17
ENDBRANCH  12  15
ENDBRANCH  10  12
ENDBRANCH   1  10
BRANCH   8  20
HETATM   20  C12 UNL     1      25.245   0.856  53.568  1.00  0.00     0.313 C 
BRANCH  20  21
HETATM   21  N5  UNL     1      26.063  -0.351  53.801  1.00  0.00     0.092 N 
HETATM   22  C13 UNL     1      27.279  -0.052  54.483  1.00  0.00     0.275 C 
HETATM   23  C14 UNL     1      28.543  -0.500  53.884  1.00  0.00     0.065 C 
HETATM   24  C15 UNL     1      28.511  -1.645  52.948  1.00  0.00     0.221 C 
HETATM   25  C16 UNL     1      27.142  -2.110  52.570  1.00  0.00     0.065 C 
HETATM   26  C17 UNL     1      26.264  -0.907  52.477  1.00  0.00     0.275 C 
BRANCH  24  27
HETATM   27  N6  UNL     1      29.231  -2.802  53.501  1.00  0.00     0.083 N 
HETATM   28  H19 UNL     1      30.164  -2.416  53.831  1.00  0.00     0.313 HD
HETATM   29  H20 UNL     1      28.734  -3.057  54.384  1.00  0.00     0.313 HD
ENDBRANCH  24  27
ENDBRANCH  20  21
ENDBRANCH   8  20
TORSDOF 7
ENDMDL
MODEL 4
REMARK VINA RESULT:      -7.3      2.378      4.818
REMARK  7 active torsions:
REMARK  status: ('A' for Active; 'I' for Inactive)
REMARK    1  A    between atoms: C3_3  and  C4_4 
REMARK    2  A    between atoms: C4_4  and  C5_6 
REMARK    3  A    between atoms: C5_6  and  N1_9 
REMARK    4  A    between atoms: N1_9  and  C7_10 
REMARK    5  A    between atoms: C11_17  and  C12_18 
REMARK    6  A    between atoms: C12_18  and  N5_19 
REMARK    7  A    between atoms: C15_22  and  N6_23 
ROOT
HETATM    1  C7  UNL     1      23.801   4.573  51.624  1.00  0.00     0.159 A 
HETATM    2  N2  UNL     1      23.257   5.800  51.480  1.00  0.00    -0.220 NA
HETATM    3  C8  UNL     1      23.774   6.653  50.557  1.00  0.00     0.258 A 
HETATM    4  N3  UNL     1      24.816   6.280  49.793  1.00  0.00    -0.161 NA
HETATM    5  N4  UNL     1      25.361   5.081  49.923  1.00  0.00    -0.240 N 
HETATM    6  C9  UNL     1      26.412   4.523  49.260  1.00  0.00     0.119 A 
HETATM    7  C10 UNL     1      26.545   3.263  49.809  1.00  0.00     0.030 A 
HETATM    8  C11 UNL     1      25.579   3.058  50.799  1.00  0.00     0.004 A 
HETATM    9  C18 UNL     1      24.870   4.238  50.818  1.00  0.00     0.112 A 
ENDROOT
BRANCH   1  10
HETATM   10  N1  UNL     1      23.261   3.663  52.611  1.00  0.00    -0.339 N 
HETATM   11  H8  UNL     1      23.658   3.269  53.491  1.00  0.00     0.167 HD
BRANCH  10  12
HETATM   12  C5  UNL     1      21.981   3.431  52.034  1.00  0.00     0.060 C 
HETATM   13  C6  UNL     1      21.044   4.256  51.660  1.00  0.00     0.215 C 
HETATM   14  F1  UNL     1      19.897   3.783  51.131  1.00  0.00    -0.217 F 
BRANCH  12  15
HETATM   15  C4  UNL     1      21.772   1.998  51.871  1.00  0.00     0.156 C 
HETATM   16 CL1  UNL     1      22.255   1.410  50.273  1.00  0.00    -0.114 Cl
BRANCH  15  17
HETATM   17  C3  UNL     1      22.350   1.160  52.963  1.00  0.00    -0.005 C 
HETATM   18  C2  UNL     1      22.728  -0.121  52.923  1.00  0.00    -0.033 C 
HETATM   19  C1  UNL     1      23.283  -0.761  54.134  1.00  0.00     0.036 C 
ENDBRANCH  15  17
ENDBRANCH  12  15
ENDBRANCH  10  12
ENDBRANCH   1  10
BRANCH   8  20
HETATM   20  C12 UNL     1      25.494   1.807  51.551  1.00  0.00     0.313 C 
BRANCH  20  21
HETATM   21  N5  UNL     1      26.817   1.213  51.826  1.00  0.00     0.092 N 
HETATM   22  C13 UNL     1      26.744  -0.200  52.011  1.00  0.00     0.275 C 
HETATM   23  C14 UNL     1      27.317  -0.773  53.236  1.00  0.00     0.065 C 
HETATM   24  C15 UNL     1      28.370  -0.013  53.943  1.00  0.00     0.221 C 
HETATM   25  C16 UNL     1      28.608   1.366  53.420  1.00  0.00     0.065 C 
HETATM   26  C17 UNL     1      27.291   1.925  52.997  1.00  0.00     0.275 C 
BRANCH  24  27
HETATM   27  N6  UNL     1      29.656  -0.726  53.905  1.00  0.00     0.083 N 
HETATM   28  H19 UNL     1      29.526  -1.565  54.544  1.00  0.00     0.313 HD
HETATM   29  H20 UNL     1      29.726  -1.143  52.949  1.00  0.00     0.313 HD
ENDBRANCH  24  27
ENDBRANCH  20  21
ENDBRANCH   8  20
TORSDOF 7
ENDMDL
MODEL 5
REMARK VINA RESULT:      -7.3      1.890      2.143
REMARK  7 active torsions:
REMARK  status: ('A' for Active; 'I' for Inactive)
REMARK    1  A    between atoms: C3_3  and  C4_4 
REMARK    2  A    between atoms: C4_4  and  C5_6 
REMARK    3  A    between atoms: C5_6  and  N1_9 
REMARK    4  A    between atoms: N1_9  and  C7_10 
REMARK    5  A    between atoms: C11_17  and  C12_18 
REMARK    6  A    between atoms: C12_18  and  N5_19 
REMARK    7  A    between atoms: C15_22  and  N6_23 
ROOT
HETATM    1  C7  UNL     1      21.352   1.708  52.316  1.00  0.00     0.159 A 
HETATM    2  N2  UNL     1      20.064   1.880  51.946  1.00  0.00    -0.220 NA
HETATM    3  C8  UNL     1      19.141   0.946  52.294  1.00  0.00     0.258 A 
HETATM    4  N3  UNL     1      19.504  -0.140  53.000  1.00  0.00    -0.161 NA
HETATM    5  N4  UNL     1      20.761  -0.324  53.368  1.00  0.00    -0.240 N 
HETATM    6  C9  UNL     1      21.326  -1.347  54.070  1.00  0.00     0.119 A 
HETATM    7  C10 UNL     1      22.664  -1.020  54.153  1.00  0.00     0.030 A 
HETATM    8  C11 UNL     1      22.911   0.195  53.506  1.00  0.00     0.004 A 
HETATM    9  C18 UNL     1      21.674   0.576  53.037  1.00  0.00     0.112 A 
ENDROOT
BRANCH   1  10
HETATM   10  N1  UNL     1      22.341   2.695  51.941  1.00  0.00    -0.339 N 
HETATM   11  H8  UNL     1      22.902   3.372  52.502  1.00  0.00     0.167 HD
BRANCH  10  12
HETATM   12  C5  UNL     1      22.344   2.494  50.532  1.00  0.00     0.060 C 
HETATM   13  C6  UNL     1      22.233   1.410  49.818  1.00  0.00     0.215 C 
HETATM   14  F1  UNL     1      22.268   1.479  48.472  1.00  0.00    -0.217 F 
BRANCH  12  15
HETATM   15  C4  UNL     1      22.504   3.776  49.856  1.00  0.00     0.156 C 
HETATM   16 CL1  UNL     1      21.573   5.074  50.617  1.00  0.00    -0.114 Cl
BRANCH  15  17
HETATM   17  C3  UNL     1      23.922   4.180  49.624  1.00  0.00    -0.005 C 
HETATM   18  C2  UNL     1      25.029   3.437  49.713  1.00  0.00    -0.033 C 
HETATM   19  C1  UNL     1      26.347   4.045  49.436  1.00  0.00     0.036 C 
ENDBRANCH  15  17
ENDBRANCH  12  15
ENDBRANCH  10  12
ENDBRANCH   1  10
BRANCH   8  20
HETATM   20  C12 UNL     1      24.250   0.777  53.435  1.00  0.00     0.313 C 
BRANCH  20  21
HETATM   21  N5  UNL     1      25.320  -0.227  53.591  1.00  0.00     0.092 N 
HETATM   22  C13 UNL     1      26.171   0.060  54.700  1.00  0.00     0.275 C 
HETATM   23  C14 UNL     1      27.619   0.138  54.467  1.00  0.00     0.065 C 
HETATM   24  C15 UNL     1      28.183  -0.574  53.299  1.00  0.00     0.221 C 
HETATM   25  C16 UNL     1      27.169  -1.153  52.366  1.00  0.00     0.065 C 
HETATM   26  C17 UNL     1      26.010  -0.215  52.315  1.00  0.00     0.275 C 
BRANCH  24  27
HETATM   27  N6  UNL     1      29.068  -1.669  53.722  1.00  0.00     0.083 N 
HETATM   28  H19 UNL     1      30.053  -1.314  53.543  1.00  0.00     0.313 HD
HETATM   29  H20 UNL     1      28.998  -1.710  54.764  1.00  0.00     0.313 HD
ENDBRANCH  24  27
ENDBRANCH  20  21
ENDBRANCH   8  20
TORSDOF 7
ENDMDL
MODEL 6
REMARK VINA RESULT:      -7.1      2.227      4.932
REMARK  7 active torsions:
REMARK  status: ('A' for Active; 'I' for Inactive)
REMARK    1  A    between atoms: C3_3  and  C4_4 
REMARK    2  A    between atoms: C4_4  and  C5_6 
REMARK    3  A    between atoms: C5_6  and  N1_9 
REMARK    4  A    between atoms: N1_9  and  C7_10 
REMARK    5  A    between atoms: C11_17  and  C12_18 
REMARK    6  A    between atoms: C12_18  and  N5_19 
REMARK    7  A    between atoms: C15_22  and  N6_23 
ROOT
HETATM    1  C7  UNL     1      22.510   1.777  50.261  1.00  0.00     0.159 A 
HETATM    2  N2  UNL     1      21.638   1.631  49.240  1.00  0.00    -0.220 NA
HETATM    3  C8  UNL     1      21.783   2.397  48.127  1.00  0.00     0.258 A 
HETATM    4  N3  UNL     1      22.785   3.290  48.041  1.00  0.00    -0.161 NA
HETATM    5  N4  UNL     1      23.646   3.446  49.033  1.00  0.00    -0.240 N 
HETATM    6  C9  UNL     1      24.710   4.291  49.143  1.00  0.00     0.119 A 
HETATM    7  C10 UNL     1      25.241   4.028  50.389  1.00  0.00     0.030 A 
HETATM    8  C11 UNL     1      24.504   3.028  51.033  1.00  0.00     0.004 A 
HETATM    9  C18 UNL     1      23.519   2.708  50.125  1.00  0.00     0.112 A 
ENDROOT
BRANCH   1  10
HETATM   10  N1  UNL     1      22.356   0.970  51.452  1.00  0.00    -0.339 N 
HETATM   11  H8  UNL     1      22.891   0.154  51.819  1.00  0.00     0.167 HD
BRANCH  10  12
HETATM   12  C5  UNL     1      21.220   1.613  52.020  1.00  0.00     0.060 C 
HETATM   13  C6  UNL     1      20.868   2.867  52.051  1.00  0.00     0.215 C 
HETATM   14  F1  UNL     1      19.724   3.235  52.663  1.00  0.00    -0.217 F 
BRANCH  12  15
HETATM   15  C4  UNL     1      20.362   0.619  52.652  1.00  0.00     0.156 C 
HETATM   16 CL1  UNL     1      19.146  -0.041  51.548  1.00  0.00    -0.114 Cl
BRANCH  15  17
HETATM   17  C3  UNL     1      21.096  -0.464  53.373  1.00  0.00    -0.005 C 
HETATM   18  C2  UNL     1      21.617  -0.443  54.603  1.00  0.00    -0.033 C 
HETATM   19  C1  UNL     1      22.309  -1.641  55.126  1.00  0.00     0.036 C 
ENDBRANCH  15  17
ENDBRANCH  12  15
ENDBRANCH  10  12
ENDBRANCH   1  10
BRANCH   8  20
HETATM   20  C12 UNL     1      24.844   2.556  52.374  1.00  0.00     0.313 C 
BRANCH  20  21
HETATM   21  N5  UNL     1      25.859   1.484  52.364  1.00  0.00     0.092 N 
HETATM   22  C13 UNL     1      25.380   0.285  52.973  1.00  0.00     0.275 C 
HETATM   23  C14 UNL     1      26.173  -0.313  54.054  1.00  0.00     0.065 C 
HETATM   24  C15 UNL     1      27.619  -0.006  54.118  1.00  0.00     0.221 C 
HETATM   25  C16 UNL     1      28.082   1.044  53.162  1.00  0.00     0.065 C 
HETATM   26  C17 UNL     1      26.998   2.064  53.047  1.00  0.00     0.275 C 
BRANCH  24  27
HETATM   27  N6  UNL     1      28.428  -1.210  53.875  1.00  0.00     0.083 N 
HETATM   28  H19 UNL     1      28.754  -1.523  54.836  1.00  0.00     0.313 HD
HETATM   29  H20 UNL     1      27.756  -1.954  53.580  1.00  0.00     0.313 HD
ENDBRANCH  24  27
ENDBRANCH  20  21
ENDBRANCH   8  20
TORSDOF 7
ENDMDL
MODEL 7
REMARK VINA RESULT:      -7.1      2.640      5.182
REMARK  7 active torsions:
REMARK  status: ('A' for Active; 'I' for Inactive)
REMARK    1  A    between atoms: C3_3  and  C4_4 
REMARK    2  A    between atoms: C4_4  and  C5_6 
REMARK    3  A    between atoms: C5_6  and  N1_9 
REMARK    4  A    between atoms: N1_9  and  C7_10 
REMARK    5  A    between atoms: C11_17  and  C12_18 
REMARK    6  A    between atoms: C12_18  and  N5_19 
REMARK    7  A    between atoms: C15_22  and  N6_23 
ROOT
HETATM    1  C7  UNL     1      23.244  -0.284  53.036  1.00  0.00     0.159 A 
HETATM    2  N2  UNL     1      23.771  -0.756  54.187  1.00  0.00    -0.220 NA
HETATM    3  C8  UNL     1      22.939  -1.180  55.174  1.00  0.00     0.258 A 
HETATM    4  N3  UNL     1      21.605  -1.134  55.008  1.00  0.00    -0.161 NA
HETATM    5  N4  UNL     1      21.074  -0.674  53.887  1.00  0.00    -0.240 N 
HETATM    6  C9  UNL     1      19.766  -0.539  53.531  1.00  0.00     0.119 A 
HETATM    7  C10 UNL     1      19.801  -0.001  52.260  1.00  0.00     0.030 A 
HETATM    8  C11 UNL     1      21.124   0.188  51.846  1.00  0.00     0.004 A 
HETATM    9  C18 UNL     1      21.870  -0.255  52.915  1.00  0.00     0.112 A 
ENDROOT
BRANCH   1  10
HETATM   10  N1  UNL     1      24.124   0.178  51.985  1.00  0.00    -0.339 N 
HETATM   11  H8  UNL     1      24.351  -0.206  51.042  1.00  0.00     0.167 HD
BRANCH  10  12
HETATM   12  C5  UNL     1      24.631   1.353  52.608  1.00  0.00     0.060 C 
HETATM   13  C6  UNL     1      24.028   2.313  53.251  1.00  0.00     0.215 C 
HETATM   14  F1  UNL     1      24.740   3.339  53.759  1.00  0.00    -0.217 F 
BRANCH  12  15
HETATM   15  C4  UNL     1      26.079   1.405  52.449  1.00  0.00     0.156 C 
HETATM   16 CL1  UNL     1      26.853  -0.169  52.685  1.00  0.00    -0.114 Cl
BRANCH  15  17
HETATM   17  C3  UNL     1      26.540   2.061  51.189  1.00  0.00    -0.005 C 
HETATM   18  C2  UNL     1      26.199   3.254  50.696  1.00  0.00    -0.033 C 
HETATM   19  C1  UNL     1      26.783   3.715  49.418  1.00  0.00     0.036 C 
ENDBRANCH  15  17
ENDBRANCH  12  15
ENDBRANCH  10  12
ENDBRANCH   1  10
BRANCH   8  20
HETATM   20  C12 UNL     1      21.454   0.751  50.538  1.00  0.00     0.313 C 
BRANCH  20  21
HETATM   21  N5  UNL     1      21.578   2.222  50.562  1.00  0.00     0.092 N 
HETATM   22  C13 UNL     1      20.353   2.871  50.226  1.00  0.00     0.275 C 
HETATM   23  C14 UNL     1      20.364   3.864  49.144  1.00  0.00     0.065 C 
HETATM   24  C15 UNL     1      21.641   4.534  48.817  1.00  0.00     0.221 C 
HETATM   25  C16 UNL     1      22.839   3.981  49.519  1.00  0.00     0.065 C 
HETATM   26  C17 UNL     1      22.656   2.505  49.635  1.00  0.00     0.275 C 
BRANCH  24  27
HETATM   27  N6  UNL     1      21.578   5.972  49.121  1.00  0.00     0.083 N 
HETATM   28  H19 UNL     1      20.543   6.208  49.130  1.00  0.00     0.313 HD
HETATM   29  H20 UNL     1      21.870   6.069  50.120  1.00  0.00     0.313 HD
ENDBRANCH  24  27
ENDBRANCH  20  21
ENDBRANCH   8  20
TORSDOF 7
ENDMDL
MODEL 8
REMARK VINA RESULT:      -7.0      1.916      2.635
REMARK  7 active torsions:
REMARK  status: ('A' for Active; 'I' for Inactive)
REMARK    1  A    between atoms: C3_3  and  C4_4 
REMARK    2  A    between atoms: C4_4  and  C5_6 
REMARK    3  A    between atoms: C5_6  and  N1_9 
REMARK    4  A    between atoms: N1_9  and  C7_10 
REMARK    5  A    between atoms: C11_17  and  C12_18 
REMARK    6  A    between atoms: C12_18  and  N5_19 
REMARK    7  A    between atoms: C15_22  and  N6_23 
ROOT
HETATM    1  C7  UNL     1      23.933   2.616  50.253  1.00  0.00     0.159 A 
HETATM    2  N2  UNL     1      23.300   2.835  49.080  1.00  0.00    -0.220 NA
HETATM    3  C8  UNL     1      22.078   2.279  48.870  1.00  0.00     0.258 A 
HETATM    4  N3  UNL     1      21.504   1.519  49.820  1.00  0.00    -0.161 NA
HETATM    5  N4  UNL     1      22.112   1.294  50.973  1.00  0.00    -0.240 N 
HETATM    6  C9  UNL     1      21.707   0.557  52.045  1.00  0.00     0.119 A 
HETATM    7  C10 UNL     1      22.738   0.667  52.957  1.00  0.00     0.030 A 
HETATM    8  C11 UNL     1      23.762   1.469  52.441  1.00  0.00     0.004 A 
HETATM    9  C18 UNL     1      23.303   1.828  51.194  1.00  0.00     0.112 A 
ENDROOT
BRANCH   1  10
HETATM   10  N1  UNL     1      25.238   3.199  50.479  1.00  0.00    -0.339 N 
HETATM   11  H8  UNL     1      26.170   2.774  50.675  1.00  0.00     0.167 HD
BRANCH  10  12
HETATM   12  C5  UNL     1      24.898   4.577  50.366  1.00  0.00     0.060 C 
HETATM   13  C6  UNL     1      24.371   5.405  51.222  1.00  0.00     0.215 C 
HETATM   14  F1  UNL     1      24.139   6.686  50.870  1.00  0.00    -0.217 F 
BRANCH  12  15
HETATM   15  C4  UNL     1      25.234   5.054  49.030  1.00  0.00     0.156 C 
HETATM   16 CL1  UNL     1      24.027   6.169  48.375  1.00  0.00    -0.114 Cl
BRANCH  15  17
HETATM   17  C3  UNL     1      26.617   5.600  48.898  1.00  0.00    -0.005 C 
HETATM   18  C2  UNL     1      27.728   4.974  48.499  1.00  0.00    -0.033 C 
HETATM   19  C1  UNL     1      29.007   5.715  48.439  1.00  0.00     0.036 C 
ENDBRANCH  15  17
ENDBRANCH  12  15
ENDBRANCH  10  12
ENDBRANCH   1  10
BRANCH   8  20
HETATM   20  C12 UNL     1      24.981   1.749  53.198  1.00  0.00     0.313 C 
BRANCH  20  21
HETATM   21  N5  UNL     1      25.751   0.531  53.515  1.00  0.00     0.092 N 
HETATM   22  C13 UNL     1      26.799   0.785  54.450  1.00  0.00     0.275 C 
HETATM   23  C14 UNL     1      28.164   0.378  54.096  1.00  0.00     0.065 C 
HETATM   24  C15 UNL     1      28.340  -0.703  53.101  1.00  0.00     0.221 C 
HETATM   25  C16 UNL     1      27.085  -1.143  52.421  1.00  0.00     0.065 C 
HETATM   26  C17 UNL     1      26.227   0.063  52.228  1.00  0.00     0.275 C 
BRANCH  24  27
HETATM   27  N6  UNL     1      28.949  -1.894  53.714  1.00  0.00     0.083 N 
HETATM   28  H19 UNL     1      29.256  -2.500  52.897  1.00  0.00     0.313 HD
HETATM   29  H20 UNL     1      29.846  -1.571  54.142  1.00  0.00     0.313 HD
ENDBRANCH  24  27
ENDBRANCH  20  21
ENDBRANCH   8  20
TORSDOF 7
ENDMDL
MODEL 9
REMARK VINA RESULT:      -6.7      2.135      5.891
REMARK  7 active torsions:
REMARK  status: ('A' for Active; 'I' for Inactive)
REMARK    1  A    between atoms: C3_3  and  C4_4 
REMARK    2  A    between atoms: C4_4  and  C5_6 
REMARK    3  A    between atoms: C5_6  and  N1_9 
REMARK    4  A    between atoms: N1_9  and  C7_10 
REMARK    5  A    between atoms: C11_17  and  C12_18 
REMARK    6  A    between atoms: C12_18  and  N5_19 
REMARK    7  A    between atoms: C15_22  and  N6_23 
ROOT
HETATM    1  C7  UNL     1      23.610   1.378  51.832  1.00  0.00     0.159 A 
HETATM    2  N2  UNL     1      24.949   1.273  51.698  1.00  0.00    -0.220 NA
HETATM    3  C8  UNL     1      25.632   0.408  52.494  1.00  0.00     0.258 A 
HETATM    4  N3  UNL     1      24.981  -0.338  53.404  1.00  0.00    -0.161 NA
HETATM    5  N4  UNL     1      23.669  -0.246  53.548  1.00  0.00    -0.240 N 
HETATM    6  C9  UNL     1      22.836  -0.899  54.407  1.00  0.00     0.119 A 
HETATM    7  C10 UNL     1      21.579  -0.404  54.121  1.00  0.00     0.030 A 
HETATM    8  C11 UNL     1      21.649   0.543  53.094  1.00  0.00     0.004 A 
HETATM    9  C18 UNL     1      22.988   0.593  52.782  1.00  0.00     0.112 A 
ENDROOT
BRANCH   1  10
HETATM   10  N1  UNL     1      22.878   2.304  50.994  1.00  0.00    -0.339 N 
HETATM   11  H8  UNL     1      22.207   2.157  50.209  1.00  0.00     0.167 HD
BRANCH  10  12
HETATM   12  C5  UNL     1      23.343   3.531  51.547  1.00  0.00     0.060 C 
HETATM   13  C6  UNL     1      23.488   3.916  52.782  1.00  0.00     0.215 C 
HETATM   14  F1  UNL     1      23.954   5.152  53.056  1.00  0.00    -0.217 F 
BRANCH  12  15
HETATM   15  C4  UNL     1      23.693   4.449  50.470  1.00  0.00     0.156 C 
HETATM   16 CL1  UNL     1      23.042   6.076  50.715  1.00  0.00    -0.114 Cl
BRANCH  15  17
HETATM   17  C3  UNL     1      25.148   4.483  50.135  1.00  0.00    -0.005 C 
HETATM   18  C2  UNL     1      25.740   4.957  49.035  1.00  0.00    -0.033 C 
HETATM   19  C1  UNL     1      27.212   4.892  48.908  1.00  0.00     0.036 C 
ENDBRANCH  15  17
ENDBRANCH  12  15
ENDBRANCH  10  12
ENDBRANCH   1  10
BRANCH   8  20
HETATM   20  C12 UNL     1      20.460   1.233  52.595  1.00  0.00     0.313 C 
BRANCH  20  21
HETATM   21  N5  UNL     1      19.699   0.429  51.619  1.00  0.00     0.092 N 
HETATM   22  C13 UNL     1      19.565   1.094  50.363  1.00  0.00     0.275 C 
HETATM   23  C14 UNL     1      18.218   1.264  49.804  1.00  0.00     0.065 C 
HETATM   24  C15 UNL     1      17.154   0.331  50.236  1.00  0.00     0.221 C 
HETATM   25  C16 UNL     1      17.536  -0.584  51.354  1.00  0.00     0.065 C 
HETATM   26  C17 UNL     1      18.432   0.175  52.276  1.00  0.00     0.275 C 
BRANCH  24  27
HETATM   27  N6  UNL     1      16.697  -0.508  49.118  1.00  0.00     0.083 N 
HETATM   28  H19 UNL     1      16.272   0.170  48.419  1.00  0.00     0.313 HD
HETATM   29  H20 UNL     1      17.563  -0.852  48.643  1.00  0.00     0.313 HD
ENDBRANCH  24  27
ENDBRANCH  20  21
ENDBRANCH   8  20
TORSDOF 7
ENDMDL
