MODEL 1
REMARK VINA RESULT:     -10.1      0.000      0.000
REMARK  2 active torsions:
REMARK  status: ('A' for Active; 'I' for Inactive)
REMARK    1  A    between atoms: C16_18  and  N3_19 
REMARK    2  A    between atoms: C26_32  and  O2_33 
ROOT
HETATM    1  C1  UNL     1      21.383   1.092  50.617  1.00  0.00     0.032 A 
HETATM    2  C2  UNL     1      22.290   1.389  51.611  1.00  0.00     0.036 A 
HETATM    3  C3  UNL     1      22.237   2.247  50.603  1.00  0.00     0.011 A 
HETATM    4  C4  UNL     1      23.287   2.891  51.385  1.00  0.00    -0.064 C 
HETATM    5  C5  UNL     1      24.164   4.202  51.301  1.00  0.00     0.023 C 
HETATM    6  C6  UNL     1      24.371   5.369  50.676  1.00  0.00     0.112 C 
HETATM    7  N1  UNL     1      23.830   6.191  49.612  1.00  0.00    -0.280 N 
HETATM    8  C7  UNL     1      23.490   6.711  48.337  1.00  0.00     0.151 C 
HETATM    9  C8  UNL     1      22.414   6.051  47.540  1.00  0.00     0.029 C 
HETATM   10  C9  UNL     1      22.464   4.605  47.499  1.00  0.00     0.031 C 
HETATM   11  C10 UNL     1      21.902   4.155  46.133  1.00  0.00     0.278 C 
HETATM   12  N2  UNL     1      20.839   3.266  46.354  1.00  0.00     0.094 N 
HETATM   13  C11 UNL     1      19.502   3.761  46.424  1.00  0.00     0.275 A 
HETATM   14  C12 UNL     1      19.389   3.362  47.868  1.00  0.00     0.067 A 
HETATM   15  C13 UNL     1      20.786   2.868  47.710  1.00  0.00     0.239 A 
HETATM   16  C14 UNL     1      21.847   3.684  48.430  1.00  0.00     0.067 A 
HETATM   17  C15 UNL     1      22.183   3.146  49.550  1.00  0.00     0.058 A 
HETATM   18  C16 UNL     1      21.964   4.623  49.849  1.00  0.00     0.269 A 
HETATM   19  N4  UNL     1      21.720   5.862  49.879  1.00  0.00    -0.238 NA
HETATM   20  C17 UNL     1      21.838   6.737  50.901  1.00  0.00     0.252 C 
HETATM   21  N5  UNL     1      23.123   6.887  50.676  1.00  0.00    -0.166 NA
HETATM   22  C18 UNL     1      23.762   2.349  52.750  1.00  0.00     0.074 C 
HETATM   23  C19 UNL     1      24.819   1.366  52.670  1.00  0.00    -0.046 A 
HETATM   24  C20 UNL     1      26.049   1.614  52.163  1.00  0.00     0.008 A 
HETATM   25  C21 UNL     1      27.108   0.704  52.083  1.00  0.00     0.001 A 
HETATM   26  C22 UNL     1      26.884  -0.563  52.566  1.00  0.00     0.001 A 
HETATM   27  C23 UNL     1      25.649  -0.928  53.114  1.00  0.00     0.010 A 
HETATM   28  C24 UNL     1      24.639   0.053  53.151  1.00  0.00    -0.028 A 
HETATM   29  C25 UNL     1      23.429  -0.517  53.828  1.00  0.00     0.210 C 
HETATM   30  O1  UNL     1      22.306   0.212  53.578  1.00  0.00    -0.356 OA
HETATM   31  C26 UNL     1      21.874   0.135  52.238  1.00  0.00     0.267 C 
ENDROOT
BRANCH  18  32
HETATM   32  N3  UNL     1      21.935   4.641  51.333  1.00  0.00     0.111 N 
HETATM   33  H17 UNL     1      21.049   4.848  51.813  1.00  0.00     0.316 HD
HETATM   34  H18 UNL     1      20.980   4.862  51.747  1.00  0.00     0.316 HD
ENDBRANCH  18  32
BRANCH  31  35
HETATM   35  O2  UNL     1      20.557  -0.184  52.298  1.00  0.00    -0.370 OA
HETATM   36  H29 UNL     1      20.307  -0.946  51.726  1.00  0.00     0.212 HD
ENDBRANCH  31  35
TORSDOF 2
ENDMDL
MODEL 2
REMARK VINA RESULT:      -9.5      1.754      4.270
REMARK  2 active torsions:
REMARK  status: ('A' for Active; 'I' for Inactive)
REMARK    1  A    between atoms: C16_18  and  N3_19 
REMARK    2  A    between atoms: C26_32  and  O2_33 
ROOT
HETATM    1  C1  UNL     1      24.282   3.555  52.273  1.00  0.00     0.032 A 
HETATM    2  C2  UNL     1      23.909   2.248  52.043  1.00  0.00     0.036 A 
HETATM    3  C3  UNL     1      23.212   3.170  51.394  1.00  0.00     0.011 A 
HETATM    4  C4  UNL     1      22.513   1.984  50.908  1.00  0.00    -0.064 C 
HETATM    5  C5  UNL     1      21.344   1.653  49.900  1.00  0.00     0.023 C 
HETATM    6  C6  UNL     1      20.517   2.122  48.956  1.00  0.00     0.112 C 
HETATM    7  N1  UNL     1      20.208   3.336  48.227  1.00  0.00    -0.280 N 
HETATM    8  C7  UNL     1      19.728   4.623  47.875  1.00  0.00     0.151 C 
HETATM    9  C8  UNL     1      20.445   5.834  48.372  1.00  0.00     0.029 C 
HETATM   10  C9  UNL     1      20.832   5.803  49.767  1.00  0.00     0.031 C 
HETATM   11  C10 UNL     1      20.792   7.253  50.296  1.00  0.00     0.278 C 
HETATM   12  N2  UNL     1      22.050   7.572  50.832  1.00  0.00     0.094 N 
HETATM   13  C11 UNL     1      23.034   8.199  50.009  1.00  0.00     0.275 A 
HETATM   14  C12 UNL     1      23.931   6.997  50.101  1.00  0.00     0.067 A 
HETATM   15  C13 UNL     1      22.855   6.416  50.954  1.00  0.00     0.239 A 
HETATM   16  C14 UNL     1      22.066   5.284  50.318  1.00  0.00     0.067 A 
HETATM   17  C15 UNL     1      22.482   4.132  50.714  1.00  0.00     0.058 A 
HETATM   18  C16 UNL     1      22.347   4.026  49.202  1.00  0.00     0.269 A 
HETATM   19  N4  UNL     1      22.179   4.157  47.957  1.00  0.00    -0.238 NA
HETATM   20  C17 UNL     1      22.292   3.241  46.972  1.00  0.00     0.252 C 
HETATM   21  N5  UNL     1      21.078   2.793  47.196  1.00  0.00    -0.166 NA
HETATM   22  C18 UNL     1      22.933   0.551  51.300  1.00  0.00     0.074 C 
HETATM   23  C19 UNL     1      22.325   0.060  52.517  1.00  0.00    -0.046 A 
HETATM   24  C20 UNL     1      20.994  -0.114  52.685  1.00  0.00     0.008 A 
HETATM   25  C21 UNL     1      20.363  -0.603  53.832  1.00  0.00     0.001 A 
HETATM   26  C22 UNL     1      21.167  -0.944  54.893  1.00  0.00     0.001 A 
HETATM   27  C23 UNL     1      22.559  -0.805  54.829  1.00  0.00     0.010 A 
HETATM   28  C24 UNL     1      23.107  -0.302  53.633  1.00  0.00    -0.028 A 
HETATM   29  C25 UNL     1      24.603  -0.294  53.747  1.00  0.00     0.210 C 
HETATM   30  O1  UNL     1      25.186   0.508  52.813  1.00  0.00    -0.356 OA
HETATM   31  C26 UNL     1      24.936   1.880  53.016  1.00  0.00     0.267 C 
ENDROOT
BRANCH  18  32
HETATM   32  N3  UNL     1      23.065   2.759  48.912  1.00  0.00     0.111 N 
HETATM   33  H17 UNL     1      24.058   2.797  48.647  1.00  0.00     0.316 HD
HETATM   34  H18 UNL     1      24.087   2.890  48.648  1.00  0.00     0.316 HD
ENDBRANCH  18  32
BRANCH  31  35
HETATM   35  O2  UNL     1      26.151   2.482  52.975  1.00  0.00    -0.370 OA
HETATM   36  H29 UNL     1      26.813   2.003  52.425  1.00  0.00     0.212 HD
ENDBRANCH  31  35
TORSDOF 2
ENDMDL
MODEL 3
REMARK VINA RESULT:      -9.3      9.172     11.588
REMARK  2 active torsions:
REMARK  status: ('A' for Active; 'I' for Inactive)
REMARK    1  A    between atoms: C16_18  and  N3_19 
REMARK    2  A    between atoms: C26_32  and  O2_33 
ROOT
HETATM    1  C1  UNL     1      30.701   8.585  45.527  1.00  0.00     0.032 A 
HETATM    2  C2  UNL     1      30.305   8.248  46.804  1.00  0.00     0.036 A 
HETATM    3  C3  UNL     1      31.178   7.429  46.234  1.00  0.00     0.011 A 
HETATM    4  C4  UNL     1      31.016   6.729  47.505  1.00  0.00    -0.064 C 
HETATM    5  C5  UNL     1      31.617   5.454  48.216  1.00  0.00     0.023 C 
HETATM    6  C6  UNL     1      32.546   4.488  48.180  1.00  0.00     0.112 C 
HETATM    7  N1  UNL     1      33.667   4.029  47.384  1.00  0.00    -0.280 N 
HETATM    8  C7  UNL     1      34.457   3.446  46.361  1.00  0.00     0.151 C 
HETATM    9  C8  UNL     1      34.621   4.165  45.063  1.00  0.00     0.029 C 
HETATM   10  C9  UNL     1      33.413   4.733  44.506  1.00  0.00     0.031 C 
HETATM   11  C10 UNL     1      33.542   4.695  42.968  1.00  0.00     0.278 C 
HETATM   12  N2  UNL     1      33.371   5.996  42.469  1.00  0.00     0.094 N 
HETATM   13  C11 UNL     1      34.510   6.832  42.262  1.00  0.00     0.275 A 
HETATM   14  C12 UNL     1      34.047   7.789  43.324  1.00  0.00     0.067 A 
HETATM   15  C13 UNL     1      32.888   6.864  43.475  1.00  0.00     0.239 A 
HETATM   16  C14 UNL     1      32.871   6.052  44.759  1.00  0.00     0.067 A 
HETATM   17  C15 UNL     1      32.090   6.571  45.640  1.00  0.00     0.058 A 
HETATM   18  C16 UNL     1      33.382   6.243  46.375  1.00  0.00     0.269 A 
HETATM   19  N4  UNL     1      34.530   5.906  46.781  1.00  0.00    -0.238 NA
HETATM   20  C17 UNL     1      35.043   5.932  48.029  1.00  0.00     0.252 C 
HETATM   21  N5  UNL     1      34.484   4.780  48.325  1.00  0.00    -0.166 NA
HETATM   22  C18 UNL     1      30.120   7.264  48.642  1.00  0.00     0.074 C 
HETATM   23  C19 UNL     1      28.739   6.846  48.564  1.00  0.00    -0.046 A 
HETATM   24  C20 UNL     1      28.329   5.558  48.633  1.00  0.00     0.008 A 
HETATM   25  C21 UNL     1      27.006   5.107  48.582  1.00  0.00     0.001 A 
HETATM   26  C22 UNL     1      26.025   6.060  48.452  1.00  0.00     0.001 A 
HETATM   27  C23 UNL     1      26.335   7.423  48.373  1.00  0.00     0.010 A 
HETATM   28  C24 UNL     1      27.695   7.784  48.430  1.00  0.00    -0.028 A 
HETATM   29  C25 UNL     1      27.805   9.279  48.394  1.00  0.00     0.210 C 
HETATM   30  O1  UNL     1      29.061   9.696  48.071  1.00  0.00    -0.356 OA
HETATM   31  C26 UNL     1      29.421   9.411  46.738  1.00  0.00     0.267 C 
ENDROOT
BRANCH  18  32
HETATM   32  N3  UNL     1      33.209   6.975  47.655  1.00  0.00     0.111 N 
HETATM   33  H17 UNL     1      32.308   7.430  47.852  1.00  0.00     0.316 HD
HETATM   34  H18 UNL     1      32.248   7.414  47.778  1.00  0.00     0.316 HD
ENDBRANCH  18  32
BRANCH  31  35
HETATM   35  O2  UNL     1      29.881  10.579  46.226  1.00  0.00    -0.370 OA
HETATM   36  H29 UNL     1      29.272  11.341  46.366  1.00  0.00     0.212 HD
ENDBRANCH  31  35
TORSDOF 2
ENDMDL
MODEL 4
REMARK VINA RESULT:      -8.8      7.715      9.877
REMARK  2 active torsions:
REMARK  status: ('A' for Active; 'I' for Inactive)
REMARK    1  A    between atoms: C16_18  and  N3_19 
REMARK    2  A    between atoms: C26_32  and  O2_33 
ROOT
HETATM    1  C1  UNL     1      29.965   5.883  48.245  1.00  0.00     0.032 A 
HETATM    2  C2  UNL     1      31.042   6.408  47.564  1.00  0.00     0.036 A 
HETATM    3  C3  UNL     1      29.885   7.028  47.381  1.00  0.00     0.011 A 
HETATM    4  C4  UNL     1      30.715   7.851  46.507  1.00  0.00    -0.064 C 
HETATM    5  C5  UNL     1      30.539   9.133  45.603  1.00  0.00     0.023 C 
HETATM    6  C6  UNL     1      29.736  10.143  45.240  1.00  0.00     0.112 C 
HETATM    7  N1  UNL     1      28.429  10.704  45.523  1.00  0.00    -0.280 N 
HETATM    8  C7  UNL     1      27.030  10.929  45.572  1.00  0.00     0.151 C 
HETATM    9  C8  UNL     1      26.184  10.087  46.468  1.00  0.00     0.029 C 
HETATM   10  C9  UNL     1      26.467   8.668  46.444  1.00  0.00     0.031 C 
HETATM   11  C10 UNL     1      25.142   7.921  46.713  1.00  0.00     0.278 C 
HETATM   12  N2  UNL     1      25.319   7.074  47.818  1.00  0.00     0.094 N 
HETATM   13  C11 UNL     1      24.993   7.541  49.128  1.00  0.00     0.275 A 
HETATM   14  C12 UNL     1      26.432   7.460  49.555  1.00  0.00     0.067 A 
HETATM   15  C13 UNL     1      26.685   6.977  48.168  1.00  0.00     0.239 A 
HETATM   16  C14 UNL     1      27.421   7.954  47.266  1.00  0.00     0.067 A 
HETATM   17  C15 UNL     1      28.676   7.678  47.189  1.00  0.00     0.058 A 
HETATM   18  C16 UNL     1      28.596   9.178  47.433  1.00  0.00     0.269 A 
HETATM   19  N4  UNL     1      28.306  10.389  47.649  1.00  0.00    -0.238 NA
HETATM   20  C17 UNL     1      29.117  11.466  47.731  1.00  0.00     0.252 C 
HETATM   21  N5  UNL     1      29.143  11.595  46.424  1.00  0.00    -0.166 NA
HETATM   22  C18 UNL     1      32.234   7.626  46.347  1.00  0.00     0.074 C 
HETATM   23  C19 UNL     1      32.594   6.675  45.319  1.00  0.00    -0.046 A 
HETATM   24  C20 UNL     1      32.319   6.837  44.004  1.00  0.00     0.008 A 
HETATM   25  C21 UNL     1      32.664   5.958  42.973  1.00  0.00     0.001 A 
HETATM   26  C22 UNL     1      33.350   4.819  43.324  1.00  0.00     0.001 A 
HETATM   27  C23 UNL     1      33.687   4.551  44.656  1.00  0.00     0.010 A 
HETATM   28  C24 UNL     1      33.297   5.493  45.627  1.00  0.00    -0.028 A 
HETATM   29  C25 UNL     1      33.807   5.052  46.967  1.00  0.00     0.210 C 
HETATM   30  O1  UNL     1      33.173   5.684  47.994  1.00  0.00    -0.356 OA
HETATM   31  C26 UNL     1      31.821   5.310  48.132  1.00  0.00     0.267 C 
ENDROOT
BRANCH  18  32
HETATM   32  N3  UNL     1      30.001   9.515  47.776  1.00  0.00     0.111 N 
HETATM   33  H17 UNL     1      30.763   9.112  47.214  1.00  0.00     0.316 HD
HETATM   34  H18 UNL     1      30.724   9.057  47.144  1.00  0.00     0.316 HD
ENDBRANCH  18  32
BRANCH  31  35
HETATM   35  O2  UNL     1      31.666   4.979  49.439  1.00  0.00    -0.370 OA
HETATM   36  H29 UNL     1      31.250   4.097  49.578  1.00  0.00     0.212 HD
ENDBRANCH  31  35
TORSDOF 2
ENDMDL
MODEL 5
REMARK VINA RESULT:      -8.7      3.768      6.862
REMARK  2 active torsions:
REMARK  status: ('A' for Active; 'I' for Inactive)
REMARK    1  A    between atoms: C16_18  and  N3_19 
REMARK    2  A    between atoms: C26_32  and  O2_33 
ROOT
HETATM    1  C1  UNL     1      26.351   4.819  48.745  1.00  0.00     0.032 A 
HETATM    2  C2  UNL     1      26.429   6.171  48.490  1.00  0.00     0.036 A 
HETATM    3  C3  UNL     1      25.206   5.674  48.600  1.00  0.00     0.011 A 
HETATM    4  C4  UNL     1      24.854   7.063  48.321  1.00  0.00    -0.064 C 
HETATM    5  C5  UNL     1      23.540   7.930  48.207  1.00  0.00     0.023 C 
HETATM    6  C6  UNL     1      22.213   7.976  48.383  1.00  0.00     0.112 C 
HETATM    7  N1  UNL     1      21.108   7.163  48.852  1.00  0.00    -0.280 N 
HETATM    8  C7  UNL     1      20.083   6.188  48.942  1.00  0.00     0.151 C 
HETATM    9  C8  UNL     1      20.445   4.768  49.228  1.00  0.00     0.029 C 
HETATM   10  C9  UNL     1      21.572   4.249  48.484  1.00  0.00     0.031 C 
HETATM   11  C10 UNL     1      21.332   2.740  48.261  1.00  0.00     0.278 C 
HETATM   12  N2  UNL     1      22.427   2.028  48.773  1.00  0.00     0.094 N 
HETATM   13  C11 UNL     1      22.395   1.546  50.117  1.00  0.00     0.275 A 
HETATM   14  C12 UNL     1      23.526   2.455  50.509  1.00  0.00     0.067 A 
HETATM   15  C13 UNL     1      23.495   2.900  49.088  1.00  0.00     0.239 A 
HETATM   16  C14 UNL     1      22.969   4.308  48.862  1.00  0.00     0.067 A 
HETATM   17  C15 UNL     1      23.926   5.156  48.714  1.00  0.00     0.058 A 
HETATM   18  C16 UNL     1      22.955   5.794  49.697  1.00  0.00     0.269 A 
HETATM   19  N4  UNL     1      22.035   6.129  50.496  1.00  0.00    -0.238 NA
HETATM   20  C17 UNL     1      21.857   7.288  51.165  1.00  0.00     0.252 C 
HETATM   21  N5  UNL     1      21.299   7.852  50.119  1.00  0.00    -0.166 NA
HETATM   22  C18 UNL     1      25.914   8.171  48.142  1.00  0.00     0.074 C 
HETATM   23  C19 UNL     1      26.401   8.322  46.789  1.00  0.00    -0.046 A 
HETATM   24  C20 UNL     1      25.625   8.674  45.738  1.00  0.00     0.008 A 
HETATM   25  C21 UNL     1      26.052   8.852  44.418  1.00  0.00     0.001 A 
HETATM   26  C22 UNL     1      27.387   8.653  44.160  1.00  0.00     0.001 A 
HETATM   27  C23 UNL     1      28.281   8.287  45.173  1.00  0.00     0.010 A 
HETATM   28  C24 UNL     1      27.761   8.128  46.472  1.00  0.00    -0.028 A 
HETATM   29  C25 UNL     1      28.883   7.802  47.411  1.00  0.00     0.210 C 
HETATM   30  O1  UNL     1      28.437   7.272  48.584  1.00  0.00    -0.356 OA
HETATM   31  C26 UNL     1      27.879   5.986  48.442  1.00  0.00     0.267 C 
ENDROOT
BRANCH  18  32
HETATM   32  N3  UNL     1      23.752   6.926  50.234  1.00  0.00     0.111 N 
HETATM   33  H17 UNL     1      24.557   6.726  50.842  1.00  0.00     0.316 HD
HETATM   34  H18 UNL     1      24.566   6.630  50.852  1.00  0.00     0.316 HD
ENDBRANCH  18  32
BRANCH  31  35
HETATM   35  O2  UNL     1      28.491   5.217  49.378  1.00  0.00    -0.370 OA
HETATM   36  H29 UNL     1      28.581   5.656  50.255  1.00  0.00     0.212 HD
ENDBRANCH  31  35
TORSDOF 2
ENDMDL
MODEL 6
REMARK VINA RESULT:      -8.7      7.971     10.117
REMARK  2 active torsions:
REMARK  status: ('A' for Active; 'I' for Inactive)
REMARK    1  A    between atoms: C16_18  and  N3_19 
REMARK    2  A    between atoms: C26_32  and  O2_33 
ROOT
HETATM    1  C1  UNL     1      28.619   6.916  47.843  1.00  0.00     0.032 A 
HETATM    2  C2  UNL     1      29.997   6.888  47.802  1.00  0.00     0.036 A 
HETATM    3  C3  UNL     1      29.433   8.047  47.494  1.00  0.00     0.011 A 
HETATM    4  C4  UNL     1      30.831   8.427  47.314  1.00  0.00    -0.064 C 
HETATM    5  C5  UNL     1      31.645   9.730  46.950  1.00  0.00     0.023 C 
HETATM    6  C6  UNL     1      31.602  11.054  46.748  1.00  0.00     0.112 C 
HETATM    7  N1  UNL     1      30.678  12.171  46.773  1.00  0.00    -0.280 N 
HETATM    8  C7  UNL     1      29.655  13.094  46.440  1.00  0.00     0.151 C 
HETATM    9  C8  UNL     1      28.226  12.702  46.626  1.00  0.00     0.029 C 
HETATM   10  C9  UNL     1      27.877  11.374  46.169  1.00  0.00     0.031 C 
HETATM   11  C10 UNL     1      26.410  11.414  45.689  1.00  0.00     0.278 C 
HETATM   12  N2  UNL     1      25.680  10.442  46.390  1.00  0.00     0.094 N 
HETATM   13  C11 UNL     1      25.000  10.799  47.594  1.00  0.00     0.275 A 
HETATM   14  C12 UNL     1      25.889   9.901  48.407  1.00  0.00     0.067 A 
HETATM   15  C13 UNL     1      26.542   9.581  47.107  1.00  0.00     0.239 A 
HETATM   16  C14 UNL     1      27.943  10.145  46.930  1.00  0.00     0.067 A 
HETATM   17  C15 UNL     1      28.846   9.260  47.172  1.00  0.00     0.058 A 
HETATM   18  C16 UNL     1      29.283  10.514  47.917  1.00  0.00     0.269 A 
HETATM   19  N4  UNL     1      29.451  11.642  48.460  1.00  0.00    -0.238 NA
HETATM   20  C17 UNL     1      30.486  12.095  49.199  1.00  0.00     0.252 C 
HETATM   21  N5  UNL     1      31.176  12.393  48.122  1.00  0.00    -0.166 NA
HETATM   22  C18 UNL     1      32.000   7.459  47.591  1.00  0.00     0.074 C 
HETATM   23  C19 UNL     1      32.377   6.636  46.463  1.00  0.00    -0.046 A 
HETATM   24  C20 UNL     1      32.848   7.123  45.292  1.00  0.00     0.008 A 
HETATM   25  C21 UNL     1      33.243   6.368  44.183  1.00  0.00     0.001 A 
HETATM   26  C22 UNL     1      33.147   5.001  44.288  1.00  0.00     0.001 A 
HETATM   27  C23 UNL     1      32.673   4.390  45.455  1.00  0.00     0.010 A 
HETATM   28  C24 UNL     1      32.295   5.230  46.521  1.00  0.00    -0.028 A 
HETATM   29  C25 UNL     1      31.882   4.382  47.687  1.00  0.00     0.210 C 
HETATM   30  O1  UNL     1      31.161   5.085  48.605  1.00  0.00    -0.356 OA
HETATM   31  C26 UNL     1      29.887   5.470  48.142  1.00  0.00     0.267 C 
ENDROOT
BRANCH  18  32
HETATM   32  N3  UNL     1      30.356   9.994  48.802  1.00  0.00     0.111 N 
HETATM   33  H17 UNL     1      30.109   9.661  49.743  1.00  0.00     0.316 HD
HETATM   34  H18 UNL     1      30.013   9.670  49.756  1.00  0.00     0.316 HD
ENDBRANCH  18  32
BRANCH  31  35
HETATM   35  O2  UNL     1      29.015   5.072  49.102  1.00  0.00    -0.370 OA
HETATM   36  H29 UNL     1      28.240   5.671  49.206  1.00  0.00     0.212 HD
ENDBRANCH  31  35
TORSDOF 2
ENDMDL
MODEL 7
REMARK VINA RESULT:      -8.7      9.892     12.642
REMARK  2 active torsions:
REMARK  status: ('A' for Active; 'I' for Inactive)
REMARK    1  A    between atoms: C16_18  and  N3_19 
REMARK    2  A    between atoms: C26_32  and  O2_33 
ROOT
HETATM    1  C1  UNL     1      32.190  10.114  45.818  1.00  0.00     0.032 A 
HETATM    2  C2  UNL     1      31.746  10.097  47.123  1.00  0.00     0.036 A 
HETATM    3  C3  UNL     1      32.174   8.938  46.644  1.00  0.00     0.011 A 
HETATM    4  C4  UNL     1      31.792   8.496  47.982  1.00  0.00    -0.064 C 
HETATM    5  C5  UNL     1      31.840   7.161  48.825  1.00  0.00     0.023 C 
HETATM    6  C6  UNL     1      32.282   5.898  48.892  1.00  0.00     0.112 C 
HETATM    7  N1  UNL     1      33.076   4.939  48.151  1.00  0.00    -0.280 N 
HETATM    8  C7  UNL     1      33.508   3.984  47.196  1.00  0.00     0.151 C 
HETATM    9  C8  UNL     1      33.899   4.439  45.829  1.00  0.00     0.029 C 
HETATM   10  C9  UNL     1      33.012   5.403  45.214  1.00  0.00     0.031 C 
HETATM   11  C10 UNL     1      33.048   5.166  43.688  1.00  0.00     0.278 C 
HETATM   12  N2  UNL     1      33.410   6.364  43.054  1.00  0.00     0.094 N 
HETATM   13  C11 UNL     1      34.783   6.625  42.761  1.00  0.00     0.275 A 
HETATM   14  C12 UNL     1      34.805   7.785  43.715  1.00  0.00     0.067 A 
HETATM   15  C13 UNL     1      33.375   7.447  43.962  1.00  0.00     0.239 A 
HETATM   16  C14 UNL     1      33.078   6.845  45.326  1.00  0.00     0.067 A 
HETATM   17  C15 UNL     1      32.621   7.725  46.146  1.00  0.00     0.058 A 
HETATM   18  C16 UNL     1      33.691   6.960  46.912  1.00  0.00     0.269 A 
HETATM   19  N4  UNL     1      34.612   6.217  47.352  1.00  0.00    -0.238 NA
HETATM   20  C17 UNL     1      35.143   6.147  48.592  1.00  0.00     0.252 C 
HETATM   21  N5  UNL     1      34.171   5.367  49.007  1.00  0.00    -0.166 NA
HETATM   22  C18 UNL     1      31.249   9.463  49.056  1.00  0.00     0.074 C 
HETATM   23  C19 UNL     1      29.816   9.654  49.021  1.00  0.00    -0.046 A 
HETATM   24  C20 UNL     1      28.913   8.668  49.225  1.00  0.00     0.008 A 
HETATM   25  C21 UNL     1      27.522   8.807  49.222  1.00  0.00     0.001 A 
HETATM   26  C22 UNL     1      27.019  10.065  48.990  1.00  0.00     0.001 A 
HETATM   27  C23 UNL     1      27.863  11.160  48.767  1.00  0.00     0.010 A 
HETATM   28  C24 UNL     1      29.251  10.924  48.787  1.00  0.00    -0.028 A 
HETATM   29  C25 UNL     1      29.970  12.226  48.593  1.00  0.00     0.210 C 
HETATM   30  O1  UNL     1      31.270  12.048  48.229  1.00  0.00    -0.356 OA
HETATM   31  C26 UNL     1      31.421  11.510  46.934  1.00  0.00     0.267 C 
ENDROOT
BRANCH  18  32
HETATM   32  N3  UNL     1      33.893   7.818  48.107  1.00  0.00     0.111 N 
HETATM   33  H17 UNL     1      34.837   7.904  48.506  1.00  0.00     0.316 HD
HETATM   34  H18 UNL     1      34.899   7.851  48.453  1.00  0.00     0.316 HD
ENDBRANCH  18  32
BRANCH  31  35
HETATM   35  O2  UNL     1      32.302  12.325  46.302  1.00  0.00    -0.370 OA
HETATM   36  H29 UNL     1      32.314  13.245  46.653  1.00  0.00     0.212 HD
ENDBRANCH  31  35
TORSDOF 2
ENDMDL
MODEL 8
REMARK VINA RESULT:      -8.7      3.406      6.517
REMARK  2 active torsions:
REMARK  status: ('A' for Active; 'I' for Inactive)
REMARK    1  A    between atoms: C16_18  and  N3_19 
REMARK    2  A    between atoms: C26_32  and  O2_33 
ROOT
HETATM    1  C1  UNL     1      19.822   0.000  52.839  1.00  0.00     0.032 A 
HETATM    2  C2  UNL     1      18.780   0.274  51.979  1.00  0.00     0.036 A 
HETATM    3  C3  UNL     1      19.887   0.977  51.787  1.00  0.00     0.011 A 
HETATM    4  C4  UNL     1      19.068   1.564  50.731  1.00  0.00    -0.064 C 
HETATM    5  C5  UNL     1      19.240   2.634  49.583  1.00  0.00     0.023 C 
HETATM    6  C6  UNL     1      20.090   3.417  48.904  1.00  0.00     0.112 C 
HETATM    7  N1  UNL     1      21.499   3.746  48.819  1.00  0.00    -0.280 N 
HETATM    8  C7  UNL     1      22.787   4.278  49.081  1.00  0.00     0.151 C 
HETATM    9  C8  UNL     1      23.623   3.675  50.161  1.00  0.00     0.029 C 
HETATM   10  C9  UNL     1      22.933   3.390  51.400  1.00  0.00     0.031 C 
HETATM   11  C10 UNL     1      23.948   3.557  52.552  1.00  0.00     0.278 C 
HETATM   12  N2  UNL     1      23.993   2.364  53.290  1.00  0.00     0.094 N 
HETATM   13  C11 UNL     1      24.957   1.363  52.962  1.00  0.00     0.275 A 
HETATM   14  C12 UNL     1      23.877   0.403  52.552  1.00  0.00     0.067 A 
HETATM   15  C13 UNL     1      22.937   1.500  52.920  1.00  0.00     0.239 A 
HETATM   16  C14 UNL     1      22.235   2.170  51.750  1.00  0.00     0.067 A 
HETATM   17  C15 UNL     1      21.043   1.713  51.585  1.00  0.00     0.058 A 
HETATM   18  C16 UNL     1      21.675   1.731  50.200  1.00  0.00     0.269 A 
HETATM   19  N4  UNL     1      22.386   1.815  49.159  1.00  0.00    -0.238 NA
HETATM   20  C17 UNL     1      22.059   1.574  47.872  1.00  0.00     0.252 C 
HETATM   21  N5  UNL     1      21.535   2.772  47.740  1.00  0.00    -0.166 NA
HETATM   22  C18 UNL     1      17.631   1.087  50.429  1.00  0.00     0.074 C 
HETATM   23  C19 UNL     1      16.604   1.750  51.200  1.00  0.00    -0.046 A 
HETATM   24  C20 UNL     1      16.346   3.076  51.139  1.00  0.00     0.008 A 
HETATM   25  C21 UNL     1      15.352   3.759  51.849  1.00  0.00     0.001 A 
HETATM   26  C22 UNL     1      14.559   3.014  52.689  1.00  0.00     0.001 A 
HETATM   27  C23 UNL     1      14.738   1.632  52.829  1.00  0.00     0.010 A 
HETATM   28  C24 UNL     1      15.765   1.031  52.076  1.00  0.00    -0.028 A 
HETATM   29  C25 UNL     1      15.746  -0.449  52.319  1.00  0.00     0.210 C 
HETATM   30  O1  UNL     1      16.909  -1.049  51.940  1.00  0.00    -0.356 OA
HETATM   31  C26 UNL     1      18.009  -0.700  52.750  1.00  0.00     0.267 C 
ENDROOT
BRANCH  18  32
HETATM   32  N3  UNL     1      20.718   0.917  49.409  1.00  0.00     0.111 N 
HETATM   33  H17 UNL     1      20.871  -0.097  49.329  1.00  0.00     0.316 HD
HETATM   34  H18 UNL     1      20.950  -0.121  49.380  1.00  0.00     0.316 HD
ENDBRANCH  18  32
BRANCH  31  35
HETATM   35  O2  UNL     1      18.579  -1.875  53.115  1.00  0.00    -0.370 OA
HETATM   36  H29 UNL     1      19.033  -2.342  52.376  1.00  0.00     0.212 HD
ENDBRANCH  31  35
TORSDOF 2
ENDMDL
MODEL 9
REMARK VINA RESULT:      -8.3      4.714      7.900
REMARK  2 active torsions:
REMARK  status: ('A' for Active; 'I' for Inactive)
REMARK    1  A    between atoms: C16_18  and  N3_19 
REMARK    2  A    between atoms: C26_32  and  O2_33 
ROOT
HETATM    1  C1  UNL     1      26.397   7.886  50.235  1.00  0.00     0.032 A 
HETATM    2  C2  UNL     1      26.536   8.723  49.149  1.00  0.00     0.036 A 
HETATM    3  C3  UNL     1      25.651   7.745  49.015  1.00  0.00     0.011 A 
HETATM    4  C4  UNL     1      25.509   8.352  47.695  1.00  0.00    -0.064 C 
HETATM    5  C5  UNL     1      24.623   8.140  46.405  1.00  0.00     0.023 C 
HETATM    6  C6  UNL     1      23.579   7.501  45.860  1.00  0.00     0.112 C 
HETATM    7  N1  UNL     1      22.540   6.548  46.193  1.00  0.00    -0.280 N 
HETATM    8  C7  UNL     1      21.840   5.351  46.490  1.00  0.00     0.151 C 
HETATM    9  C8  UNL     1      21.987   4.732  47.841  1.00  0.00     0.029 C 
HETATM   10  C9  UNL     1      23.338   4.669  48.356  1.00  0.00     0.031 C 
HETATM   11  C10 UNL     1      23.443   3.409  49.242  1.00  0.00     0.278 C 
HETATM   12  N2  UNL     1      23.880   3.790  50.520  1.00  0.00     0.094 N 
HETATM   13  C11 UNL     1      22.922   4.081  51.539  1.00  0.00     0.275 A 
HETATM   14  C12 UNL     1      23.352   5.521  51.583  1.00  0.00     0.067 A 
HETATM   15  C13 UNL     1      24.324   5.133  50.522  1.00  0.00     0.239 A 
HETATM   16  C14 UNL     1      24.022   5.679  49.137  1.00  0.00     0.067 A 
HETATM   17  C15 UNL     1      24.726   6.724  48.873  1.00  0.00     0.058 A 
HETATM   18  C16 UNL     1      23.301   7.069  48.462  1.00  0.00     0.269 A 
HETATM   19  N4  UNL     1      22.067   7.151  48.204  1.00  0.00    -0.238 NA
HETATM   20  C17 UNL     1      21.377   8.149  47.612  1.00  0.00     0.252 C 
HETATM   21  N5  UNL     1      21.707   7.719  46.415  1.00  0.00    -0.166 NA
HETATM   22  C18 UNL     1      26.287   9.616  47.272  1.00  0.00     0.074 C 
HETATM   23  C19 UNL     1      27.587   9.356  46.696  1.00  0.00    -0.046 A 
HETATM   24  C20 UNL     1      27.786   8.658  45.554  1.00  0.00     0.008 A 
HETATM   25  C21 UNL     1      29.020   8.397  44.949  1.00  0.00     0.001 A 
HETATM   26  C22 UNL     1      30.140   8.897  45.569  1.00  0.00     0.001 A 
HETATM   27  C23 UNL     1      30.051   9.635  46.756  1.00  0.00     0.010 A 
HETATM   28  C24 UNL     1      28.766   9.846  47.294  1.00  0.00    -0.028 A 
HETATM   29  C25 UNL     1      28.885  10.705  48.518  1.00  0.00     0.210 C 
HETATM   30  O1  UNL     1      27.770  10.648  49.298  1.00  0.00    -0.356 OA
HETATM   31  C26 UNL     1      27.582   9.396  49.917  1.00  0.00     0.267 C 
ENDROOT
BRANCH  18  32
HETATM   32  N3  UNL     1      23.380   8.539  48.264  1.00  0.00     0.111 N 
HETATM   33  H17 UNL     1      22.931   9.160  48.950  1.00  0.00     0.316 HD
HETATM   34  H18 UNL     1      22.890   9.105  49.020  1.00  0.00     0.316 HD
ENDBRANCH  18  32
BRANCH  31  35
HETATM   35  O2  UNL     1      27.384   9.666  51.232  1.00  0.00    -0.370 OA
HETATM   36  H29 UNL     1      28.207   9.632  51.772  1.00  0.00     0.212 HD
ENDBRANCH  31  35
TORSDOF 2
ENDMDL
