MODEL 1
REMARK VINA RESULT:      -7.9      0.000      0.000
REMARK  7 active torsions:
REMARK  status: ('A' for Active; 'I' for Inactive)
REMARK    1  A    between atoms: C5_5  and  N1_6 
REMARK       I    between atoms: N1_6  and  C6_7 
REMARK    2  A    between atoms: C6_7  and  C7_9 
REMARK    3  A    between atoms: C7_9  and  C8_10 
REMARK    4  A    between atoms: C7_9  and  C9_12 
REMARK    5  A    between atoms: C9_12  and  C10_13 
REMARK    6  A    between atoms: C13_16  and  O2_17 
REMARK    7  A    between atoms: C15_19  and  O3_20 
ROOT
HETATM    1  C7  UNL     1      25.998   2.202  51.690  1.00  0.00     0.096 C 
ENDROOT
BRANCH   1   2
HETATM    2  C6  UNL     1      26.201   3.164  50.543  1.00  0.00     0.227 C 
HETATM    3  N1  UNL     1      25.687   4.476  50.554  1.00  0.00    -0.327 N 
HETATM    4  H6  UNL     1      25.166   4.693  51.431  1.00  0.00     0.169 HD
HETATM    5  O1  UNL     1      26.845   2.748  49.578  1.00  0.00    -0.273 OA
BRANCH   3   6
HETATM    6  C5  UNL     1      25.798   5.473  49.560  1.00  0.00     0.034 A 
HETATM    7  C4  UNL     1      24.655   5.962  48.972  1.00  0.00     0.030 A 
HETATM    8  C3  UNL     1      24.675   6.932  47.996  1.00  0.00     0.009 A 
HETATM    9  C2  UNL     1      25.863   7.469  47.554  1.00  0.00    -0.062 A 
HETATM   10  C1  UNL     1      25.907   8.517  46.501  1.00  0.00     0.048 C 
HETATM   11  C17 UNL     1      27.018   7.011  48.113  1.00  0.00     0.009 A 
HETATM   12  C16 UNL     1      26.952   6.044  49.083  1.00  0.00     0.030 A 
ENDBRANCH   3   6
ENDBRANCH   1   2
BRANCH   1  13
HETATM   13  C8  UNL     1      24.977   2.880  52.579  1.00  0.00     0.129 C 
HETATM   14 CL1  UNL     1      23.748   1.799  53.209  1.00  0.00    -0.130 Cl
ENDBRANCH   1  13
BRANCH   1  15
HETATM   15  C9  UNL     1      27.287   1.932  52.388  1.00  0.00     0.056 C 
BRANCH  15  16
HETATM   16  C10 UNL     1      27.618   0.533  52.635  1.00  0.00    -0.024 A 
HETATM   17  C11 UNL     1      26.805  -0.557  52.306  1.00  0.00     0.012 A 
HETATM   18  C12 UNL     1      27.133  -1.872  52.554  1.00  0.00     0.037 A 
HETATM   19  C13 UNL     1      28.335  -2.169  53.166  1.00  0.00     0.068 A 
HETATM   20  C14 UNL     1      29.188  -1.139  53.518  1.00  0.00     0.073 A 
HETATM   21  C15 UNL     1      28.806   0.158  53.244  1.00  0.00     0.074 A 
BRANCH  19  22
HETATM   22  O2  UNL     1      28.597  -3.500  53.382  1.00  0.00    -0.361 OA
HETATM   23  H14 UNL     1      28.840  -4.183  52.681  1.00  0.00     0.217 HD
ENDBRANCH  19  22
BRANCH  21  24
HETATM   24  O3  UNL     1      29.747   1.126  53.644  1.00  0.00    -0.360 OA
HETATM   25  H16 UNL     1      29.426   1.971  54.102  1.00  0.00     0.217 HD
ENDBRANCH  21  24
ENDBRANCH  15  16
ENDBRANCH   1  15
TORSDOF 7
ENDMDL
MODEL 2
REMARK VINA RESULT:      -7.9      1.802      2.402
REMARK  7 active torsions:
REMARK  status: ('A' for Active; 'I' for Inactive)
REMARK    1  A    between atoms: C5_5  and  N1_6 
REMARK       I    between atoms: N1_6  and  C6_7 
REMARK    2  A    between atoms: C6_7  and  C7_9 
REMARK    3  A    between atoms: C7_9  and  C8_10 
REMARK    4  A    between atoms: C7_9  and  C9_12 
REMARK    5  A    between atoms: C9_12  and  C10_13 
REMARK    6  A    between atoms: C13_16  and  O2_17 
REMARK    7  A    between atoms: C15_19  and  O3_20 
ROOT
HETATM    1  C7  UNL     1      24.158   1.092  52.046  1.00  0.00     0.096 C 
ENDROOT
BRANCH   1   2
HETATM    2  C6  UNL     1      24.616   2.441  51.546  1.00  0.00     0.227 C 
HETATM    3  N1  UNL     1      25.103   2.640  50.238  1.00  0.00    -0.327 N 
HETATM    4  H6  UNL     1      25.105   1.761  49.676  1.00  0.00     0.169 HD
HETATM    5  O1  UNL     1      24.547   3.381  52.341  1.00  0.00    -0.273 OA
BRANCH   3   6
HETATM    6  C5  UNL     1      25.562   3.834  49.642  1.00  0.00     0.034 A 
HETATM    7  C4  UNL     1      26.892   3.948  49.310  1.00  0.00     0.030 A 
HETATM    8  C3  UNL     1      27.421   5.078  48.728  1.00  0.00     0.009 A 
HETATM    9  C2  UNL     1      26.628   6.166  48.443  1.00  0.00    -0.062 A 
HETATM   10  C1  UNL     1      27.178   7.395  47.815  1.00  0.00     0.048 C 
HETATM   11  C17 UNL     1      25.304   6.092  48.756  1.00  0.00     0.009 A 
HETATM   12  C16 UNL     1      24.819   4.947  49.335  1.00  0.00     0.030 A 
ENDBRANCH   3   6
ENDBRANCH   1   2
BRANCH   1  13
HETATM   13  C8  UNL     1      22.647   1.190  52.074  1.00  0.00     0.129 C 
HETATM   14 CL1  UNL     1      21.918   0.575  53.546  1.00  0.00    -0.130 Cl
ENDBRANCH   1  13
BRANCH   1  15
HETATM   15  C9  UNL     1      24.743   0.797  53.385  1.00  0.00     0.056 C 
BRANCH  15  16
HETATM   16  C10 UNL     1      26.139   0.374  53.411  1.00  0.00    -0.024 A 
HETATM   17  C11 UNL     1      26.599  -0.906  53.080  1.00  0.00     0.012 A 
HETATM   18  C12 UNL     1      27.922  -1.288  53.117  1.00  0.00     0.037 A 
HETATM   19  C13 UNL     1      28.883  -0.374  53.502  1.00  0.00     0.068 A 
HETATM   20  C14 UNL     1      28.499   0.910  53.843  1.00  0.00     0.073 A 
HETATM   21  C15 UNL     1      27.159   1.235  53.786  1.00  0.00     0.074 A 
BRANCH  19  22
HETATM   22  O2  UNL     1      30.181  -0.824  53.517  1.00  0.00    -0.361 OA
HETATM   23  H14 UNL     1      30.685  -1.220  52.738  1.00  0.00     0.217 HD
ENDBRANCH  19  22
BRANCH  21  24
HETATM   24  O3  UNL     1      26.879   2.566  54.153  1.00  0.00    -0.360 OA
HETATM   25  H16 UNL     1      27.636   3.238  54.196  1.00  0.00     0.217 HD
ENDBRANCH  21  24
ENDBRANCH  15  16
ENDBRANCH   1  15
TORSDOF 7
ENDMDL
MODEL 3
REMARK VINA RESULT:      -7.8      3.573      4.487
REMARK  7 active torsions:
REMARK  status: ('A' for Active; 'I' for Inactive)
REMARK    1  A    between atoms: C5_5  and  N1_6 
REMARK       I    between atoms: N1_6  and  C6_7 
REMARK    2  A    between atoms: C6_7  and  C7_9 
REMARK    3  A    between atoms: C7_9  and  C8_10 
REMARK    4  A    between atoms: C7_9  and  C9_12 
REMARK    5  A    between atoms: C9_12  and  C10_13 
REMARK    6  A    between atoms: C13_16  and  O2_17 
REMARK    7  A    between atoms: C15_19  and  O3_20 
ROOT
HETATM    1  C7  UNL     1      26.946   0.749  53.999  1.00  0.00     0.096 C 
ENDROOT
BRANCH   1   2
HETATM    2  C6  UNL     1      26.237   1.806  53.186  1.00  0.00     0.227 C 
HETATM    3  N1  UNL     1      26.243   1.809  51.776  1.00  0.00    -0.327 N 
HETATM    4  H6  UNL     1      26.784   1.011  51.379  1.00  0.00     0.169 HD
HETATM    5  O1  UNL     1      25.640   2.682  53.814  1.00  0.00    -0.273 OA
BRANCH   3   6
HETATM    6  C5  UNL     1      25.630   2.726  50.896  1.00  0.00     0.034 A 
HETATM    7  C4  UNL     1      24.268   2.672  50.715  1.00  0.00     0.030 A 
HETATM    8  C3  UNL     1      23.591   3.527  49.875  1.00  0.00     0.009 A 
HETATM    9  C2  UNL     1      24.261   4.497  49.162  1.00  0.00    -0.062 A 
HETATM   10  C1  UNL     1      23.551   5.430  48.250  1.00  0.00     0.048 C 
HETATM   11  C17 UNL     1      25.612   4.583  49.315  1.00  0.00     0.009 A 
HETATM   12  C16 UNL     1      26.245   3.711  50.163  1.00  0.00     0.030 A 
ENDBRANCH   3   6
ENDBRANCH   1   2
BRANCH   1  13
HETATM   13  C8  UNL     1      28.400   0.871  53.595  1.00  0.00     0.129 C 
HETATM   14 CL1  UNL     1      29.316  -0.616  53.767  1.00  0.00    -0.130 Cl
ENDBRANCH   1  13
BRANCH   1  15
HETATM   15  C9  UNL     1      26.379  -0.601  53.723  1.00  0.00     0.056 C 
BRANCH  15  16
HETATM   16  C10 UNL     1      24.961  -0.789  54.013  1.00  0.00    -0.024 A 
HETATM   17  C11 UNL     1      23.923  -0.640  53.086  1.00  0.00     0.012 A 
HETATM   18  C12 UNL     1      22.589  -0.815  53.381  1.00  0.00     0.037 A 
HETATM   19  C13 UNL     1      22.217  -1.161  54.666  1.00  0.00     0.068 A 
HETATM   20  C14 UNL     1      23.192  -1.325  55.632  1.00  0.00     0.073 A 
HETATM   21  C15 UNL     1      24.512  -1.136  55.278  1.00  0.00     0.074 A 
BRANCH  19  22
HETATM   22  O2  UNL     1      20.871  -1.319  54.888  1.00  0.00    -0.361 OA
HETATM   23  H14 UNL     1      20.148  -0.645  54.688  1.00  0.00     0.217 HD
ENDBRANCH  19  22
BRANCH  21  24
HETATM   24  O3  UNL     1      25.420  -1.328  56.337  1.00  0.00    -0.360 OA
HETATM   25  H16 UNL     1      25.559  -0.585  57.012  1.00  0.00     0.217 HD
ENDBRANCH  21  24
ENDBRANCH  15  16
ENDBRANCH   1  15
TORSDOF 7
ENDMDL
MODEL 4
REMARK VINA RESULT:      -7.7      3.931      6.556
REMARK  7 active torsions:
REMARK  status: ('A' for Active; 'I' for Inactive)
REMARK    1  A    between atoms: C5_5  and  N1_6 
REMARK       I    between atoms: N1_6  and  C6_7 
REMARK    2  A    between atoms: C6_7  and  C7_9 
REMARK    3  A    between atoms: C7_9  and  C8_10 
REMARK    4  A    between atoms: C7_9  and  C9_12 
REMARK    5  A    between atoms: C9_12  and  C10_13 
REMARK    6  A    between atoms: C13_16  and  O2_17 
REMARK    7  A    between atoms: C15_19  and  O3_20 
ROOT
HETATM    1  C7  UNL     1      24.751   2.644  52.177  1.00  0.00     0.096 C 
ENDROOT
BRANCH   1   2
HETATM    2  C6  UNL     1      23.534   1.754  52.101  1.00  0.00     0.227 C 
HETATM    3  N1  UNL     1      22.856   1.296  53.249  1.00  0.00    -0.327 N 
HETATM    4  H6  UNL     1      23.290   1.642  54.132  1.00  0.00     0.169 HD
HETATM    5  O1  UNL     1      23.149   1.437  50.974  1.00  0.00    -0.273 OA
BRANCH   3   6
HETATM    6  C5  UNL     1      21.717   0.466  53.325  1.00  0.00     0.034 A 
HETATM    7  C4  UNL     1      21.790  -0.707  54.039  1.00  0.00     0.030 A 
HETATM    8  C3  UNL     1      20.727  -1.573  54.162  1.00  0.00     0.009 A 
HETATM    9  C2  UNL     1      19.517  -1.299  53.566  1.00  0.00    -0.062 A 
HETATM   10  C1  UNL     1      18.356  -2.219  53.686  1.00  0.00     0.048 C 
HETATM   11  C17 UNL     1      19.404  -0.145  52.850  1.00  0.00     0.009 A 
HETATM   12  C16 UNL     1      20.488   0.689  52.754  1.00  0.00     0.030 A 
ENDBRANCH   3   6
ENDBRANCH   1   2
BRANCH   1  13
HETATM   13  C8  UNL     1      24.279   3.981  51.646  1.00  0.00     0.129 C 
HETATM   14 CL1  UNL     1      23.087   4.772  52.662  1.00  0.00    -0.130 Cl
ENDBRANCH   1  13
BRANCH   1  15
HETATM   15  C9  UNL     1      25.877   2.071  51.385  1.00  0.00     0.056 C 
BRANCH  15  16
HETATM   16  C10 UNL     1      26.736   1.110  52.068  1.00  0.00    -0.024 A 
HETATM   17  C11 UNL     1      26.517  -0.271  52.120  1.00  0.00     0.012 A 
HETATM   18  C12 UNL     1      27.337  -1.162  52.776  1.00  0.00     0.037 A 
HETATM   19  C13 UNL     1      28.458  -0.696  53.435  1.00  0.00     0.068 A 
HETATM   20  C14 UNL     1      28.736   0.658  53.423  1.00  0.00     0.073 A 
HETATM   21  C15 UNL     1      27.878   1.503  52.750  1.00  0.00     0.074 A 
BRANCH  19  22
HETATM   22  O2  UNL     1      29.230  -1.640  54.067  1.00  0.00    -0.361 OA
HETATM   23  H14 UNL     1      29.122  -2.641  54.003  1.00  0.00     0.217 HD
ENDBRANCH  19  22
BRANCH  21  24
HETATM   24  O3  UNL     1      28.254   2.859  52.802  1.00  0.00    -0.360 OA
HETATM   25  H16 UNL     1      28.437   3.357  51.939  1.00  0.00     0.217 HD
ENDBRANCH  21  24
ENDBRANCH  15  16
ENDBRANCH   1  15
TORSDOF 7
ENDMDL
MODEL 5
REMARK VINA RESULT:      -7.6      3.675      4.594
REMARK  7 active torsions:
REMARK  status: ('A' for Active; 'I' for Inactive)
REMARK    1  A    between atoms: C5_5  and  N1_6 
REMARK       I    between atoms: N1_6  and  C6_7 
REMARK    2  A    between atoms: C6_7  and  C7_9 
REMARK    3  A    between atoms: C7_9  and  C8_10 
REMARK    4  A    between atoms: C7_9  and  C9_12 
REMARK    5  A    between atoms: C9_12  and  C10_13 
REMARK    6  A    between atoms: C13_16  and  O2_17 
REMARK    7  A    between atoms: C15_19  and  O3_20 
ROOT
HETATM    1  C7  UNL     1      21.859   1.557  50.573  1.00  0.00     0.096 C 
ENDROOT
BRANCH   1   2
HETATM    2  C6  UNL     1      22.862   2.383  49.803  1.00  0.00     0.227 C 
HETATM    3  N1  UNL     1      23.846   3.166  50.437  1.00  0.00    -0.327 N 
HETATM    4  H6  UNL     1      23.796   3.104  51.477  1.00  0.00     0.169 HD
HETATM    5  O1  UNL     1      22.785   2.344  48.573  1.00  0.00    -0.273 OA
BRANCH   3   6
HETATM    6  C5  UNL     1      24.838   3.980  49.848  1.00  0.00     0.034 A 
HETATM    7  C4  UNL     1      26.111   3.482  49.698  1.00  0.00     0.030 A 
HETATM    8  C3  UNL     1      27.136   4.209  49.136  1.00  0.00     0.009 A 
HETATM    9  C2  UNL     1      26.930   5.494  48.688  1.00  0.00    -0.062 A 
HETATM   10  C1  UNL     1      28.021   6.297  48.078  1.00  0.00     0.048 C 
HETATM   11  C17 UNL     1      25.681   6.024  48.818  1.00  0.00     0.009 A 
HETATM   12  C16 UNL     1      24.690   5.264  49.384  1.00  0.00     0.030 A 
ENDBRANCH   3   6
ENDBRANCH   1   2
BRANCH   1  13
HETATM   13  C8  UNL     1      20.543   1.800  49.864  1.00  0.00     0.129 C 
HETATM   14 CL1  UNL     1      19.250   0.727  50.371  1.00  0.00    -0.130 Cl
ENDBRANCH   1  13
BRANCH   1  15
HETATM   15  C9  UNL     1      21.828   1.963  52.006  1.00  0.00     0.056 C 
BRANCH  15  16
HETATM   16  C10 UNL     1      22.106   0.921  52.989  1.00  0.00    -0.024 A 
HETATM   17  C11 UNL     1      21.149   0.305  53.802  1.00  0.00     0.012 A 
HETATM   18  C12 UNL     1      21.433  -0.674  54.729  1.00  0.00     0.037 A 
HETATM   19  C13 UNL     1      22.737  -1.097  54.893  1.00  0.00     0.068 A 
HETATM   20  C14 UNL     1      23.735  -0.530  54.122  1.00  0.00     0.073 A 
HETATM   21  C15 UNL     1      23.390   0.446  53.209  1.00  0.00     0.074 A 
BRANCH  19  22
HETATM   22  O2  UNL     1      22.947  -2.074  55.835  1.00  0.00    -0.361 OA
HETATM   23  H14 UNL     1      23.833  -2.494  56.074  1.00  0.00     0.217 HD
ENDBRANCH  19  22
BRANCH  21  24
HETATM   24  O3  UNL     1      24.481   0.955  52.478  1.00  0.00    -0.360 OA
HETATM   25  H16 UNL     1      25.419   0.849  52.848  1.00  0.00     0.217 HD
ENDBRANCH  21  24
ENDBRANCH  15  16
ENDBRANCH   1  15
TORSDOF 7
ENDMDL
MODEL 6
REMARK VINA RESULT:      -7.5      1.814      2.376
REMARK  7 active torsions:
REMARK  status: ('A' for Active; 'I' for Inactive)
REMARK    1  A    between atoms: C5_5  and  N1_6 
REMARK       I    between atoms: N1_6  and  C6_7 
REMARK    2  A    between atoms: C6_7  and  C7_9 
REMARK    3  A    between atoms: C7_9  and  C8_10 
REMARK    4  A    between atoms: C7_9  and  C9_12 
REMARK    5  A    between atoms: C9_12  and  C10_13 
REMARK    6  A    between atoms: C13_16  and  O2_17 
REMARK    7  A    between atoms: C15_19  and  O3_20 
ROOT
HETATM    1  C7  UNL     1      23.628   2.725  51.103  1.00  0.00     0.096 C 
ENDROOT
BRANCH   1   2
HETATM    2  C6  UNL     1      24.375   3.554  50.085  1.00  0.00     0.227 C 
HETATM    3  N1  UNL     1      25.541   4.278  50.406  1.00  0.00    -0.327 N 
HETATM    4  H6  UNL     1      25.814   4.171  51.406  1.00  0.00     0.169 HD
HETATM    5  O1  UNL     1      23.917   3.573  48.941  1.00  0.00    -0.273 OA
BRANCH   3   6
HETATM    6  C5  UNL     1      26.333   5.088  49.563  1.00  0.00     0.034 A 
HETATM    7  C4  UNL     1      25.917   6.368  49.281  1.00  0.00     0.030 A 
HETATM    8  C3  UNL     1      26.629   7.222  48.468  1.00  0.00     0.009 A 
HETATM    9  C2  UNL     1      27.814   6.826  47.890  1.00  0.00    -0.062 A 
HETATM   10  C1  UNL     1      28.598   7.731  47.010  1.00  0.00     0.048 C 
HETATM   11  C17 UNL     1      28.260   5.564  48.146  1.00  0.00     0.009 A 
HETATM   12  C16 UNL     1      27.519   4.748  48.961  1.00  0.00     0.030 A 
ENDBRANCH   3   6
ENDBRANCH   1   2
BRANCH   1  13
HETATM   13  C8  UNL     1      22.282   3.407  51.235  1.00  0.00     0.129 C 
HETATM   14 CL1  UNL     1      22.272   4.757  52.356  1.00  0.00    -0.130 Cl
ENDBRANCH   1  13
BRANCH   1  15
HETATM   15  C9  UNL     1      24.376   2.667  52.391  1.00  0.00     0.056 C 
BRANCH  15  16
HETATM   16  C10 UNL     1      25.168   1.466  52.635  1.00  0.00    -0.024 A 
HETATM   17  C11 UNL     1      24.659   0.243  53.087  1.00  0.00     0.012 A 
HETATM   18  C12 UNL     1      25.425  -0.878  53.318  1.00  0.00     0.037 A 
HETATM   19  C13 UNL     1      26.787  -0.828  53.099  1.00  0.00     0.068 A 
HETATM   20  C14 UNL     1      27.358   0.350  52.650  1.00  0.00     0.073 A 
HETATM   21  C15 UNL     1      26.540   1.440  52.437  1.00  0.00     0.074 A 
BRANCH  19  22
HETATM   22  O2  UNL     1      27.488  -1.982  53.349  1.00  0.00    -0.361 OA
HETATM   23  H14 UNL     1      28.138  -2.135  54.106  1.00  0.00     0.217 HD
ENDBRANCH  19  22
BRANCH  21  24
HETATM   24  O3  UNL     1      27.223   2.585  51.982  1.00  0.00    -0.360 OA
HETATM   25  H16 UNL     1      27.126   2.869  51.014  1.00  0.00     0.217 HD
ENDBRANCH  21  24
ENDBRANCH  15  16
ENDBRANCH   1  15
TORSDOF 7
ENDMDL
MODEL 7
REMARK VINA RESULT:      -7.3      5.054      7.390
REMARK  7 active torsions:
REMARK  status: ('A' for Active; 'I' for Inactive)
REMARK    1  A    between atoms: C5_5  and  N1_6 
REMARK       I    between atoms: N1_6  and  C6_7 
REMARK    2  A    between atoms: C6_7  and  C7_9 
REMARK    3  A    between atoms: C7_9  and  C8_10 
REMARK    4  A    between atoms: C7_9  and  C9_12 
REMARK    5  A    between atoms: C9_12  and  C10_13 
REMARK    6  A    between atoms: C13_16  and  O2_17 
REMARK    7  A    between atoms: C15_19  and  O3_20 
ROOT
HETATM    1  C7  UNL     1      23.697   1.164  53.076  1.00  0.00     0.096 C 
ENDROOT
BRANCH   1   2
HETATM    2  C6  UNL     1      22.466   0.294  52.991  1.00  0.00     0.227 C 
HETATM    3  N1  UNL     1      21.169   0.827  52.856  1.00  0.00    -0.327 N 
HETATM    4  H6  UNL     1      21.168   1.869  52.822  1.00  0.00     0.169 HD
HETATM    5  O1  UNL     1      22.644  -0.925  53.044  1.00  0.00    -0.273 OA
BRANCH   3   6
HETATM    6  C5  UNL     1      19.940   0.138  52.766  1.00  0.00     0.034 A 
HETATM    7  C4  UNL     1      19.062   0.464  51.759  1.00  0.00     0.030 A 
HETATM    8  C3  UNL     1      17.843  -0.157  51.601  1.00  0.00     0.009 A 
HETATM    9  C2  UNL     1      17.439  -1.153  52.461  1.00  0.00    -0.062 A 
HETATM   10  C1  UNL     1      16.128  -1.837  52.309  1.00  0.00     0.048 C 
HETATM   11  C17 UNL     1      18.282  -1.506  53.472  1.00  0.00     0.009 A 
HETATM   12  C16 UNL     1      19.486  -0.861  53.592  1.00  0.00     0.030 A 
ENDBRANCH   3   6
ENDBRANCH   1   2
BRANCH   1  13
HETATM   13  C8  UNL     1      23.348   2.397  52.270  1.00  0.00     0.129 C 
HETATM   14 CL1  UNL     1      23.415   2.159  50.533  1.00  0.00    -0.130 Cl
ENDBRANCH   1  13
BRANCH   1  15
HETATM   15  C9  UNL     1      24.891   0.446  52.547  1.00  0.00     0.056 C 
BRANCH  15  16
HETATM   16  C10 UNL     1      26.191   0.866  53.061  1.00  0.00    -0.024 A 
HETATM   17  C11 UNL     1      26.937   1.947  52.577  1.00  0.00     0.012 A 
HETATM   18  C12 UNL     1      28.166   2.324  53.072  1.00  0.00     0.037 A 
HETATM   19  C13 UNL     1      28.727   1.611  54.113  1.00  0.00     0.068 A 
HETATM   20  C14 UNL     1      28.044   0.531  54.640  1.00  0.00     0.073 A 
HETATM   21  C15 UNL     1      26.817   0.201  54.104  1.00  0.00     0.074 A 
BRANCH  19  22
HETATM   22  O2  UNL     1      29.954   2.043  54.556  1.00  0.00    -0.361 OA
HETATM   23  H14 UNL     1      30.742   2.297  53.980  1.00  0.00     0.217 HD
ENDBRANCH  19  22
BRANCH  21  24
HETATM   24  O3  UNL     1      26.209  -0.914  54.714  1.00  0.00    -0.360 OA
HETATM   25  H16 UNL     1      26.756  -1.752  54.874  1.00  0.00     0.217 HD
ENDBRANCH  21  24
ENDBRANCH  15  16
ENDBRANCH   1  15
TORSDOF 7
ENDMDL
MODEL 8
REMARK VINA RESULT:      -7.2      4.523      5.910
REMARK  7 active torsions:
REMARK  status: ('A' for Active; 'I' for Inactive)
REMARK    1  A    between atoms: C5_5  and  N1_6 
REMARK       I    between atoms: N1_6  and  C6_7 
REMARK    2  A    between atoms: C6_7  and  C7_9 
REMARK    3  A    between atoms: C7_9  and  C8_10 
REMARK    4  A    between atoms: C7_9  and  C9_12 
REMARK    5  A    between atoms: C9_12  and  C10_13 
REMARK    6  A    between atoms: C13_16  and  O2_17 
REMARK    7  A    between atoms: C15_19  and  O3_20 
ROOT
HETATM    1  C7  UNL     1      23.643   0.987  52.711  1.00  0.00     0.096 C 
ENDROOT
BRANCH   1   2
HETATM    2  C6  UNL     1      24.424   2.170  52.192  1.00  0.00     0.227 C 
HETATM    3  N1  UNL     1      24.503   2.485  50.821  1.00  0.00    -0.327 N 
HETATM    4  H6  UNL     1      23.967   1.815  50.227  1.00  0.00     0.169 HD
HETATM    5  O1  UNL     1      25.001   2.865  53.031  1.00  0.00    -0.273 OA
BRANCH   3   6
HETATM    6  C5  UNL     1      25.191   3.549  50.200  1.00  0.00     0.034 A 
HETATM    7  C4  UNL     1      26.412   3.308  49.617  1.00  0.00     0.030 A 
HETATM    8  C3  UNL     1      27.149   4.289  48.993  1.00  0.00     0.009 A 
HETATM    9  C2  UNL     1      26.687   5.584  48.921  1.00  0.00    -0.062 A 
HETATM   10  C1  UNL     1      27.465   6.659  48.253  1.00  0.00     0.048 C 
HETATM   11  C17 UNL     1      25.479   5.864  49.486  1.00  0.00     0.009 A 
HETATM   12  C16 UNL     1      24.779   4.856  50.098  1.00  0.00     0.030 A 
ENDBRANCH   3   6
ENDBRANCH   1   2
BRANCH   1  13
HETATM   13  C8  UNL     1      24.684  -0.092  52.923  1.00  0.00     0.129 C 
HETATM   14 CL1  UNL     1      24.768  -0.689  54.571  1.00  0.00    -0.130 Cl
ENDBRANCH   1  13
BRANCH   1  15
HETATM   15  C9  UNL     1      22.582   0.586  51.744  1.00  0.00     0.056 C 
BRANCH  15  16
HETATM   16  C10 UNL     1      21.328   0.099  52.309  1.00  0.00    -0.024 A 
HETATM   17  C11 UNL     1      21.213  -0.650  53.485  1.00  0.00     0.012 A 
HETATM   18  C12 UNL     1      20.020  -1.107  54.000  1.00  0.00     0.037 A 
HETATM   19  C13 UNL     1      18.841  -0.824  53.337  1.00  0.00     0.068 A 
HETATM   20  C14 UNL     1      18.882  -0.088  52.168  1.00  0.00     0.073 A 
HETATM   21  C15 UNL     1      20.106   0.343  51.701  1.00  0.00     0.074 A 
BRANCH  19  22
HETATM   22  O2  UNL     1      17.690  -1.311  53.907  1.00  0.00    -0.361 OA
HETATM   23  H14 UNL     1      16.826  -0.806  54.033  1.00  0.00     0.217 HD
ENDBRANCH  19  22
BRANCH  21  24
HETATM   24  O3  UNL     1      20.033   1.083  50.505  1.00  0.00    -0.360 OA
HETATM   25  H16 UNL     1      20.737   1.786  50.312  1.00  0.00     0.217 HD
ENDBRANCH  21  24
ENDBRANCH  15  16
ENDBRANCH   1  15
TORSDOF 7
ENDMDL
MODEL 9
REMARK VINA RESULT:      -7.2      3.651      4.561
REMARK  7 active torsions:
REMARK  status: ('A' for Active; 'I' for Inactive)
REMARK    1  A    between atoms: C5_5  and  N1_6 
REMARK       I    between atoms: N1_6  and  C6_7 
REMARK    2  A    between atoms: C6_7  and  C7_9 
REMARK    3  A    between atoms: C7_9  and  C8_10 
REMARK    4  A    between atoms: C7_9  and  C9_12 
REMARK    5  A    between atoms: C9_12  and  C10_13 
REMARK    6  A    between atoms: C13_16  and  O2_17 
REMARK    7  A    between atoms: C15_19  and  O3_20 
ROOT
HETATM    1  C7  UNL     1      25.948   1.845  52.916  1.00  0.00     0.096 C 
ENDROOT
BRANCH   1   2
HETATM    2  C6  UNL     1      25.138   2.813  52.087  1.00  0.00     0.227 C 
HETATM    3  N1  UNL     1      24.329   3.812  52.663  1.00  0.00    -0.327 N 
HETATM    4  H6  UNL     1      24.360   3.799  53.706  1.00  0.00     0.169 HD
HETATM    5  O1  UNL     1      25.215   2.693  50.862  1.00  0.00    -0.273 OA
BRANCH   3   6
HETATM    6  C5  UNL     1      23.525   4.775  52.015  1.00  0.00     0.034 A 
HETATM    7  C4  UNL     1      24.107   5.936  51.562  1.00  0.00     0.030 A 
HETATM    8  C3  UNL     1      23.396   6.927  50.922  1.00  0.00     0.009 A 
HETATM    9  C2  UNL     1      22.043   6.798  50.701  1.00  0.00    -0.062 A 
HETATM   10  C1  UNL     1      21.257   7.854  50.013  1.00  0.00     0.048 C 
HETATM   11  C17 UNL     1      21.430   5.661  51.135  1.00  0.00     0.009 A 
HETATM   12  C16 UNL     1      22.177   4.701  51.768  1.00  0.00     0.030 A 
ENDBRANCH   3   6
ENDBRANCH   1   2
BRANCH   1  13
HETATM   13  C8  UNL     1      27.389   2.175  52.588  1.00  0.00     0.129 C 
HETATM   14 CL1  UNL     1      28.558   1.138  53.386  1.00  0.00    -0.130 Cl
ENDBRANCH   1  13
BRANCH   1  15
HETATM   15  C9  UNL     1      25.587   0.436  52.588  1.00  0.00     0.056 C 
BRANCH  15  16
HETATM   16  C10 UNL     1      24.380  -0.094  53.213  1.00  0.00    -0.024 A 
HETATM   17  C11 UNL     1      23.085   0.027  52.696  1.00  0.00     0.012 A 
HETATM   18  C12 UNL     1      21.957  -0.476  53.305  1.00  0.00     0.037 A 
HETATM   19  C13 UNL     1      22.075  -1.148  54.506  1.00  0.00     0.068 A 
HETATM   20  C14 UNL     1      23.325  -1.304  55.074  1.00  0.00     0.073 A 
HETATM   21  C15 UNL     1      24.419  -0.779  54.418  1.00  0.00     0.074 A 
BRANCH  19  22
HETATM   22  O2  UNL     1      20.909  -1.622  55.057  1.00  0.00    -0.361 OA
HETATM   23  H14 UNL     1      20.827  -2.357  55.742  1.00  0.00     0.217 HD
ENDBRANCH  19  22
BRANCH  21  24
HETATM   24  O3  UNL     1      25.642  -0.995  55.084  1.00  0.00    -0.360 OA
HETATM   25  H16 UNL     1      25.705  -0.807  56.077  1.00  0.00     0.217 HD
ENDBRANCH  21  24
ENDBRANCH  15  16
ENDBRANCH   1  15
TORSDOF 7
ENDMDL
