MODEL 1
REMARK VINA RESULT:      -7.7      0.000      0.000
REMARK  3 active torsions:
REMARK  status: ('A' for Active; 'I' for Inactive)
REMARK    1  A    between atoms: C3_3  and  C4_4 
REMARK       I    between atoms: C4_4  and  N1_6 
REMARK    2  A    between atoms: N1_6  and  C5_7 
REMARK    3  A    between atoms: N4_18  and  C14_19 
ROOT
HETATM    1  C5  UNL     1      24.523  -0.389  53.882  1.00  0.00     0.014 C 
HETATM    2  C6  UNL     1      24.248   0.489  52.929  1.00  0.00     0.040 C 
HETATM    3  C7  UNL     1      22.862   1.017  52.835  1.00  0.00     0.302 C 
HETATM    4  C8  UNL     1      21.835   0.102  53.378  1.00  0.00     0.067 C 
HETATM    5  C9  UNL     1      22.189  -0.773  54.320  1.00  0.00     0.009 C 
HETATM    6  C10 UNL     1      23.563  -0.895  54.870  1.00  0.00     0.086 C 
HETATM    7  N2  UNL     1      20.513   0.210  52.859  1.00  0.00    -0.264 NA
HETATM    8  C11 UNL     1      20.440   0.439  51.580  1.00  0.00     0.140 C 
HETATM    9  C12 UNL     1      21.715   0.561  50.818  1.00  0.00     0.371 C 
HETATM   10  C13 UNL     1      21.465   0.942  49.445  1.00  0.00     0.101 C 
HETATM   11  N3  UNL     1      21.274   1.238  48.343  1.00  0.00    -0.195 NA
HETATM   12  N4  UNL     1      22.542   1.528  51.517  1.00  0.00     0.138 N 
ENDROOT
BRANCH  12  13
HETATM   13  C14 UNL     1      21.842   2.775  51.612  1.00  0.00     0.290 A 
HETATM   14  C15 UNL     1      22.509   3.906  52.350  1.00  0.00     0.031 A 
HETATM   15  C16 UNL     1      22.238   3.993  50.961  1.00  0.00     0.024 A 
HETATM   16 BR1  UNL     1      22.169   4.731  49.186  1.00  0.00    -0.053 Br
ENDBRANCH  12  13
BRANCH   1  17
HETATM   17  N1  UNL     1      25.898  -0.822  53.864  1.00  0.00    -0.327 N 
HETATM   18  C4  UNL     1      26.743   0.139  54.481  1.00  0.00     0.245 C 
HETATM   19  O1  UNL     1      26.287   1.209  54.962  1.00  0.00    -0.268 OA
HETATM   20  H6  UNL     1      26.260  -1.721  53.458  1.00  0.00     0.169 HD
BRANCH  18  21
HETATM   21  C3  UNL     1      28.187  -0.124  54.562  1.00  0.00     0.070 C 
HETATM   22  C2  UNL     1      28.903  -0.823  53.666  1.00  0.00    -0.026 C 
HETATM   23  C1  UNL     1      30.361  -1.089  53.745  1.00  0.00     0.036 C 
ENDBRANCH  18  21
ENDBRANCH   1  17
TORSDOF 3
ENDMDL
MODEL 2
REMARK VINA RESULT:      -6.9      1.504      1.647
REMARK  3 active torsions:
REMARK  status: ('A' for Active; 'I' for Inactive)
REMARK    1  A    between atoms: C3_3  and  C4_4 
REMARK       I    between atoms: C4_4  and  N1_6 
REMARK    2  A    between atoms: N1_6  and  C5_7 
REMARK    3  A    between atoms: N4_18  and  C14_19 
ROOT
HETATM    1  C5  UNL     1      24.270   0.837  53.324  1.00  0.00     0.014 C 
HETATM    2  C6  UNL     1      23.912   1.808  52.497  1.00  0.00     0.040 C 
HETATM    3  C7  UNL     1      22.523   1.807  51.968  1.00  0.00     0.302 C 
HETATM    4  C8  UNL     1      21.902   0.466  51.919  1.00  0.00     0.067 C 
HETATM    5  C9  UNL     1      22.329  -0.471  52.766  1.00  0.00     0.009 C 
HETATM    6  C10 UNL     1      23.401  -0.258  53.772  1.00  0.00     0.086 C 
HETATM    7  N2  UNL     1      20.872   0.250  50.958  1.00  0.00    -0.264 NA
HETATM    8  C11 UNL     1      21.065   0.822  49.806  1.00  0.00     0.140 C 
HETATM    9  C12 UNL     1      22.310   1.620  49.621  1.00  0.00     0.371 C 
HETATM   10  C13 UNL     1      22.310   2.291  48.339  1.00  0.00     0.101 C 
HETATM   11  N3  UNL     1      22.323   2.826  47.312  1.00  0.00    -0.195 NA
HETATM   12  N4  UNL     1      22.391   2.551  50.731  1.00  0.00     0.138 N 
ENDROOT
BRANCH  12  13
HETATM   13  C14 UNL     1      21.216   3.371  50.754  1.00  0.00     0.290 A 
HETATM   14  C15 UNL     1      21.043   4.327  51.906  1.00  0.00     0.031 A 
HETATM   15  C16 UNL     1      21.202   4.797  50.578  1.00  0.00     0.024 A 
HETATM   16 BR1  UNL     1      21.359   6.038  49.117  1.00  0.00    -0.053 Br
ENDBRANCH  12  13
BRANCH   1  17
HETATM   17  N1  UNL     1      25.639   0.952  53.763  1.00  0.00    -0.327 N 
HETATM   18  C4  UNL     1      26.492   0.109  53.002  1.00  0.00     0.245 C 
HETATM   19  O1  UNL     1      26.046  -0.620  52.077  1.00  0.00    -0.268 OA
HETATM   20  H6  UNL     1      25.991   1.567  54.539  1.00  0.00     0.169 HD
BRANCH  18  21
HETATM   21  C3  UNL     1      27.930   0.088  53.301  1.00  0.00     0.070 C 
HETATM   22  C2  UNL     1      28.698  -1.013  53.358  1.00  0.00    -0.026 C 
HETATM   23  C1  UNL     1      30.152  -1.036  53.658  1.00  0.00     0.036 C 
ENDBRANCH  18  21
ENDBRANCH   1  17
TORSDOF 3
ENDMDL
MODEL 3
REMARK VINA RESULT:      -6.9      9.991     11.192
REMARK  3 active torsions:
REMARK  status: ('A' for Active; 'I' for Inactive)
REMARK    1  A    between atoms: C3_3  and  C4_4 
REMARK       I    between atoms: C4_4  and  N1_6 
REMARK    2  A    between atoms: N1_6  and  C5_7 
REMARK    3  A    between atoms: N4_18  and  C14_19 
ROOT
HETATM    1  C5  UNL     1      32.253   6.047  48.044  1.00  0.00     0.014 C 
HETATM    2  C6  UNL     1      30.983   6.408  47.937  1.00  0.00     0.040 C 
HETATM    3  C7  UNL     1      30.678   7.829  47.626  1.00  0.00     0.302 C 
HETATM    4  C8  UNL     1      31.728   8.776  48.060  1.00  0.00     0.067 C 
HETATM    5  C9  UNL     1      32.982   8.336  48.169  1.00  0.00     0.009 C 
HETATM    6  C10 UNL     1      33.404   6.941  47.881  1.00  0.00     0.086 C 
HETATM    7  N2  UNL     1      31.335  10.116  48.339  1.00  0.00    -0.264 NA
HETATM    8  C11 UNL     1      30.186  10.240  48.938  1.00  0.00     0.140 C 
HETATM    9  C12 UNL     1      29.426   8.999  49.257  1.00  0.00     0.371 C 
HETATM   10  C13 UNL     1      28.123   9.313  49.799  1.00  0.00     0.101 C 
HETATM   11  N3  UNL     1      27.080   9.555  50.241  1.00  0.00    -0.195 NA
HETATM   12  N4  UNL     1      29.343   8.220  48.035  1.00  0.00     0.138 N 
ENDROOT
BRANCH  12  13
HETATM   13  C14 UNL     1      28.709   9.001  47.014  1.00  0.00     0.290 A 
HETATM   14  C15 UNL     1      28.636   8.423  45.624  1.00  0.00     0.031 A 
HETATM   15  C16 UNL     1      27.462   8.671  46.380  1.00  0.00     0.024 A 
HETATM   16 BR1  UNL     1      25.592   8.750  46.820  1.00  0.00    -0.053 Br
ENDBRANCH  12  13
BRANCH   1  17
HETATM   17  N1  UNL     1      32.413   4.646  48.347  1.00  0.00    -0.327 N 
HETATM   18  C4  UNL     1      32.561   3.881  47.160  1.00  0.00     0.245 C 
HETATM   19  O1  UNL     1      32.545   4.418  46.022  1.00  0.00    -0.268 OA
HETATM   20  H6  UNL     1      32.423   4.217  49.306  1.00  0.00     0.169 HD
BRANCH  18  21
HETATM   21  C3  UNL     1      32.737   2.426  47.263  1.00  0.00     0.070 C 
HETATM   22  C2  UNL     1      31.938   1.502  46.703  1.00  0.00    -0.026 C 
HETATM   23  C1  UNL     1      32.116   0.032  46.805  1.00  0.00     0.036 C 
ENDBRANCH  18  21
ENDBRANCH   1  17
TORSDOF 3
ENDMDL
MODEL 4
REMARK VINA RESULT:      -6.5      6.205      8.405
REMARK  3 active torsions:
REMARK  status: ('A' for Active; 'I' for Inactive)
REMARK    1  A    between atoms: C3_3  and  C4_4 
REMARK       I    between atoms: C4_4  and  N1_6 
REMARK    2  A    between atoms: N1_6  and  C5_7 
REMARK    3  A    between atoms: N4_18  and  C14_19 
ROOT
HETATM    1  C5  UNL     1      25.795   4.684  50.027  1.00  0.00     0.014 C 
HETATM    2  C6  UNL     1      25.465   5.921  49.689  1.00  0.00     0.040 C 
HETATM    3  C7  UNL     1      26.164   6.548  48.538  1.00  0.00     0.302 C 
HETATM    4  C8  UNL     1      27.516   6.001  48.288  1.00  0.00     0.067 C 
HETATM    5  C9  UNL     1      27.785   4.755  48.677  1.00  0.00     0.009 C 
HETATM    6  C10 UNL     1      26.808   3.863  49.353  1.00  0.00     0.086 C 
HETATM    7  N2  UNL     1      28.462   6.847  47.640  1.00  0.00    -0.264 NA
HETATM    8  C11 UNL     1      28.420   8.097  47.999  1.00  0.00     0.140 C 
HETATM    9  C12 UNL     1      27.413   8.497  49.022  1.00  0.00     0.371 C 
HETATM   10  C13 UNL     1      27.409   9.931  49.213  1.00  0.00     0.101 C 
HETATM   11  N3  UNL     1      27.405  11.077  49.378  1.00  0.00    -0.195 NA
HETATM   12  N4  UNL     1      26.125   7.996  48.576  1.00  0.00     0.138 N 
ENDROOT
BRANCH  12  13
HETATM   13  C14 UNL     1      25.828   8.531  47.280  1.00  0.00     0.290 A 
HETATM   14  C15 UNL     1      24.570   8.064  46.594  1.00  0.00     0.031 A 
HETATM   15  C16 UNL     1      24.736   9.417  46.984  1.00  0.00     0.024 A 
HETATM   16 BR1  UNL     1      24.327  11.280  47.229  1.00  0.00    -0.053 Br
ENDBRANCH  12  13
BRANCH   1  17
HETATM   17  N1  UNL     1      25.046   4.193  51.157  1.00  0.00    -0.327 N 
HETATM   18  C4  UNL     1      24.041   3.277  50.745  1.00  0.00     0.245 C 
HETATM   19  O1  UNL     1      23.879   2.976  49.534  1.00  0.00    -0.268 OA
HETATM   20  H6  UNL     1      25.197   4.458  52.163  1.00  0.00     0.169 HD
BRANCH  18  21
HETATM   21  C3  UNL     1      23.170   2.665  51.758  1.00  0.00     0.070 C 
HETATM   22  C2  UNL     1      23.200   1.376  52.135  1.00  0.00    -0.026 C 
HETATM   23  C1  UNL     1      22.322   0.757  53.159  1.00  0.00     0.036 C 
ENDBRANCH  18  21
ENDBRANCH   1  17
TORSDOF 3
ENDMDL
MODEL 5
REMARK VINA RESULT:      -6.5      2.213      2.918
REMARK  3 active torsions:
REMARK  status: ('A' for Active; 'I' for Inactive)
REMARK    1  A    between atoms: C3_3  and  C4_4 
REMARK       I    between atoms: C4_4  and  N1_6 
REMARK    2  A    between atoms: N1_6  and  C5_7 
REMARK    3  A    between atoms: N4_18  and  C14_19 
ROOT
HETATM    1  C5  UNL     1      24.472   1.293  52.105  1.00  0.00     0.014 C 
HETATM    2  C6  UNL     1      24.592   2.276  51.225  1.00  0.00     0.040 C 
HETATM    3  C7  UNL     1      23.554   3.339  51.209  1.00  0.00     0.302 C 
HETATM    4  C8  UNL     1      22.236   2.896  51.716  1.00  0.00     0.067 C 
HETATM    5  C9  UNL     1      22.190   1.883  52.581  1.00  0.00     0.009 C 
HETATM    6  C10 UNL     1      23.386   1.158  53.081  1.00  0.00     0.086 C 
HETATM    7  N2  UNL     1      21.082   3.584  51.243  1.00  0.00    -0.264 NA
HETATM    8  C11 UNL     1      21.116   3.920  49.987  1.00  0.00     0.140 C 
HETATM    9  C12 UNL     1      22.328   3.558  49.199  1.00  0.00     0.371 C 
HETATM   10  C13 UNL     1      22.264   4.112  47.865  1.00  0.00     0.101 C 
HETATM   11  N3  UNL     1      22.218   4.546  46.792  1.00  0.00    -0.195 NA
HETATM   12  N4  UNL     1      23.480   4.036  49.941  1.00  0.00     0.138 N 
ENDROOT
BRANCH  12  13
HETATM   13  C14 UNL     1      23.364   5.450  50.144  1.00  0.00     0.290 A 
HETATM   14  C15 UNL     1      24.433   6.138  50.953  1.00  0.00     0.031 A 
HETATM   15  C16 UNL     1      24.242   6.438  49.580  1.00  0.00     0.024 A 
HETATM   16 BR1  UNL     1      24.511   7.272  47.869  1.00  0.00    -0.053 Br
ENDBRANCH  12  13
BRANCH   1  17
HETATM   17  N1  UNL     1      25.542   0.329  52.016  1.00  0.00    -0.327 N 
HETATM   18  C4  UNL     1      26.540   0.585  52.994  1.00  0.00     0.245 C 
HETATM   19  O1  UNL     1      26.443   1.544  53.803  1.00  0.00    -0.268 OA
HETATM   20  H6  UNL     1      25.604  -0.466  51.333  1.00  0.00     0.169 HD
BRANCH  18  21
HETATM   21  C3  UNL     1      27.716  -0.295  53.064  1.00  0.00     0.070 C 
HETATM   22  C2  UNL     1      28.870  -0.004  53.686  1.00  0.00    -0.026 C 
HETATM   23  C1  UNL     1      30.058  -0.892  53.758  1.00  0.00     0.036 C 
ENDBRANCH  18  21
ENDBRANCH   1  17
TORSDOF 3
ENDMDL
MODEL 6
REMARK VINA RESULT:      -6.4      4.519      6.720
REMARK  3 active torsions:
REMARK  status: ('A' for Active; 'I' for Inactive)
REMARK    1  A    between atoms: C3_3  and  C4_4 
REMARK       I    between atoms: C4_4  and  N1_6 
REMARK    2  A    between atoms: N1_6  and  C5_7 
REMARK    3  A    between atoms: N4_18  and  C14_19 
ROOT
HETATM    1  C5  UNL     1      24.861   3.142  51.160  1.00  0.00     0.014 C 
HETATM    2  C6  UNL     1      24.407   4.326  50.779  1.00  0.00     0.040 C 
HETATM    3  C7  UNL     1      24.990   4.947  49.562  1.00  0.00     0.302 C 
HETATM    4  C8  UNL     1      26.371   4.505  49.268  1.00  0.00     0.067 C 
HETATM    5  C9  UNL     1      26.768   3.309  49.703  1.00  0.00     0.009 C 
HETATM    6  C10 UNL     1      25.907   2.376  50.475  1.00  0.00     0.086 C 
HETATM    7  N2  UNL     1      27.205   5.392  48.529  1.00  0.00    -0.264 NA
HETATM    8  C11 UNL     1      27.071   6.652  48.827  1.00  0.00     0.140 C 
HETATM    9  C12 UNL     1      26.084   7.020  49.881  1.00  0.00     0.371 C 
HETATM   10  C13 UNL     1      25.964   8.456  50.000  1.00  0.00     0.101 C 
HETATM   11  N3  UNL     1      25.866   9.605  50.108  1.00  0.00    -0.195 NA
HETATM   12  N4  UNL     1      24.826   6.387  49.530  1.00  0.00     0.138 N 
ENDROOT
BRANCH  12  13
HETATM   13  C14 UNL     1      24.419   6.823  48.227  1.00  0.00     0.290 A 
HETATM   14  C15 UNL     1      23.160   6.233  47.645  1.00  0.00     0.031 A 
HETATM   15  C16 UNL     1      23.253   7.615  47.950  1.00  0.00     0.024 A 
HETATM   16 BR1  UNL     1      22.728   9.457  48.116  1.00  0.00    -0.053 Br
ENDBRANCH  12  13
BRANCH   1  17
HETATM   17  N1  UNL     1      24.214   2.651  52.352  1.00  0.00    -0.327 N 
HETATM   18  C4  UNL     1      23.183   1.728  52.030  1.00  0.00     0.245 C 
HETATM   19  O1  UNL     1      22.920   1.421  50.839  1.00  0.00    -0.268 OA
HETATM   20  H6  UNL     1      24.449   2.920  53.340  1.00  0.00     0.169 HD
BRANCH  18  21
HETATM   21  C3  UNL     1      22.406   1.115  53.116  1.00  0.00     0.070 C 
HETATM   22  C2  UNL     1      22.668  -0.073  53.687  1.00  0.00    -0.026 C 
HETATM   23  C1  UNL     1      21.885  -0.693  54.785  1.00  0.00     0.036 C 
ENDBRANCH  18  21
ENDBRANCH   1  17
TORSDOF 3
ENDMDL
MODEL 7
REMARK VINA RESULT:      -6.3     10.489     12.679
REMARK  3 active torsions:
REMARK  status: ('A' for Active; 'I' for Inactive)
REMARK    1  A    between atoms: C3_3  and  C4_4 
REMARK       I    between atoms: C4_4  and  N1_6 
REMARK    2  A    between atoms: N1_6  and  C5_7 
REMARK    3  A    between atoms: N4_18  and  C14_19 
ROOT
HETATM    1  C5  UNL     1      29.966   7.956  48.596  1.00  0.00     0.014 C 
HETATM    2  C6  UNL     1      30.749   7.011  48.098  1.00  0.00     0.040 C 
HETATM    3  C7  UNL     1      32.075   7.406  47.556  1.00  0.00     0.302 C 
HETATM    4  C8  UNL     1      32.133   8.805  47.078  1.00  0.00     0.067 C 
HETATM    5  C9  UNL     1      31.298   9.699  47.608  1.00  0.00     0.009 C 
HETATM    6  C10 UNL     1      30.298   9.383  48.661  1.00  0.00     0.086 C 
HETATM    7  N2  UNL     1      33.088   9.119  46.069  1.00  0.00    -0.264 NA
HETATM    8  C11 UNL     1      33.244   8.207  45.154  1.00  0.00     0.140 C 
HETATM    9  C12 UNL     1      32.427   6.965  45.259  1.00  0.00     0.371 C 
HETATM   10  C13 UNL     1      32.810   6.005  44.247  1.00  0.00     0.101 C 
HETATM   11  N3  UNL     1      33.104   5.234  43.435  1.00  0.00    -0.195 NA
HETATM   12  N4  UNL     1      32.603   6.449  46.604  1.00  0.00     0.138 N 
ENDROOT
BRANCH  12  13
HETATM   13  C14 UNL     1      33.995   6.208  46.845  1.00  0.00     0.290 A 
HETATM   14  C15 UNL     1      34.402   5.719  48.211  1.00  0.00     0.031 A 
HETATM   15  C16 UNL     1      34.583   4.914  47.058  1.00  0.00     0.024 A 
HETATM   16 BR1  UNL     1      35.081   3.399  45.985  1.00  0.00    -0.053 Br
ENDBRANCH  12  13
BRANCH   1  17
HETATM   17  N1  UNL     1      28.712   7.442  49.088  1.00  0.00    -0.327 N 
HETATM   18  C4  UNL     1      27.741   7.388  48.052  1.00  0.00     0.245 C 
HETATM   19  O1  UNL     1      28.006   7.756  46.879  1.00  0.00    -0.268 OA
HETATM   20  H6  UNL     1      28.510   7.139  50.074  1.00  0.00     0.169 HD
BRANCH  18  21
HETATM   21  C3  UNL     1      26.393   6.888  48.359  1.00  0.00     0.070 C 
HETATM   22  C2  UNL     1      26.106   5.666  48.836  1.00  0.00    -0.026 C 
HETATM   23  C1  UNL     1      24.746   5.160  49.148  1.00  0.00     0.036 C 
ENDBRANCH  18  21
ENDBRANCH   1  17
TORSDOF 3
ENDMDL
MODEL 8
REMARK VINA RESULT:      -6.2      5.204      7.108
REMARK  3 active torsions:
REMARK  status: ('A' for Active; 'I' for Inactive)
REMARK    1  A    between atoms: C3_3  and  C4_4 
REMARK       I    between atoms: C4_4  and  N1_6 
REMARK    2  A    between atoms: N1_6  and  C5_7 
REMARK    3  A    between atoms: N4_18  and  C14_19 
ROOT
HETATM    1  C5  UNL     1      25.846   6.869  49.616  1.00  0.00     0.014 C 
HETATM    2  C6  UNL     1      25.183   5.727  49.509  1.00  0.00     0.040 C 
HETATM    3  C7  UNL     1      23.702   5.758  49.635  1.00  0.00     0.302 C 
HETATM    4  C8  UNL     1      23.193   6.889  50.441  1.00  0.00     0.067 C 
HETATM    5  C9  UNL     1      23.926   7.999  50.522  1.00  0.00     0.009 C 
HETATM    6  C10 UNL     1      25.237   8.183  49.850  1.00  0.00     0.086 C 
HETATM    7  N2  UNL     1      21.935   6.724  51.089  1.00  0.00    -0.264 NA
HETATM    8  C11 UNL     1      21.723   5.541  51.587  1.00  0.00     0.140 C 
HETATM    9  C12 UNL     1      22.789   4.513  51.427  1.00  0.00     0.371 C 
HETATM   10  C13 UNL     1      22.348   3.226  51.916  1.00  0.00     0.101 C 
HETATM   11  N3  UNL     1      22.005   2.193  52.313  1.00  0.00    -0.195 NA
HETATM   12  N4  UNL     1      23.143   4.477  50.019  1.00  0.00     0.138 N 
ENDROOT
BRANCH  12  13
HETATM   13  C14 UNL     1      21.977   4.178  49.242  1.00  0.00     0.290 A 
HETATM   14  C15 UNL     1      22.117   4.144  47.742  1.00  0.00     0.031 A 
HETATM   15  C16 UNL     1      21.783   2.977  48.476  1.00  0.00     0.024 A 
HETATM   16 BR1  UNL     1      21.336   1.140  48.824  1.00  0.00    -0.053 Br
ENDBRANCH  12  13
BRANCH   1  17
HETATM   17  N1  UNL     1      27.272   6.703  49.476  1.00  0.00    -0.327 N 
HETATM   18  C4  UNL     1      27.695   7.017  48.157  1.00  0.00     0.245 C 
HETATM   19  O1  UNL     1      26.880   7.387  47.272  1.00  0.00    -0.268 OA
HETATM   20  H6  UNL     1      27.936   6.393  50.228  1.00  0.00     0.169 HD
BRANCH  18  21
HETATM   21  C3  UNL     1      29.121   6.909  47.818  1.00  0.00     0.070 C 
HETATM   22  C2  UNL     1      29.881   5.815  47.988  1.00  0.00    -0.026 C 
HETATM   23  C1  UNL     1      31.321   5.704  47.644  1.00  0.00     0.036 C 
ENDBRANCH  18  21
ENDBRANCH   1  17
TORSDOF 3
ENDMDL
MODEL 9
REMARK VINA RESULT:      -6.2      7.815      9.505
REMARK  3 active torsions:
REMARK  status: ('A' for Active; 'I' for Inactive)
REMARK    1  A    between atoms: C3_3  and  C4_4 
REMARK       I    between atoms: C4_4  and  N1_6 
REMARK    2  A    between atoms: N1_6  and  C5_7 
REMARK    3  A    between atoms: N4_18  and  C14_19 
ROOT
HETATM    1  C5  UNL     1      30.198   7.540  47.732  1.00  0.00     0.014 C 
HETATM    2  C6  UNL     1      28.920   7.241  47.554  1.00  0.00     0.040 C 
HETATM    3  C7  UNL     1      27.896   8.194  48.055  1.00  0.00     0.302 C 
HETATM    4  C8  UNL     1      28.356   9.025  49.189  1.00  0.00     0.067 C 
HETATM    5  C9  UNL     1      29.661   9.266  49.319  1.00  0.00     0.009 C 
HETATM    6  C10 UNL     1      30.700   8.751  48.392  1.00  0.00     0.086 C 
HETATM    7  N2  UNL     1      27.368   9.526  50.085  1.00  0.00    -0.264 NA
HETATM    8  C11 UNL     1      26.398   8.701  50.352  1.00  0.00     0.140 C 
HETATM    9  C12 UNL     1      26.425   7.357  49.707  1.00  0.00     0.371 C 
HETATM   10  C13 UNL     1      25.219   6.616  50.003  1.00  0.00     0.101 C 
HETATM   11  N3  UNL     1      24.260   6.012  50.240  1.00  0.00    -0.195 NA
HETATM   12  N4  UNL     1      26.609   7.568  48.283  1.00  0.00     0.138 N 
ENDROOT
BRANCH  12  13
HETATM   13  C14 UNL     1      25.548   8.392  47.782  1.00  0.00     0.290 A 
HETATM   14  C15 UNL     1      25.580   8.778  46.326  1.00  0.00     0.031 A 
HETATM   15  C16 UNL     1      24.543   7.964  46.848  1.00  0.00     0.024 A 
HETATM   16 BR1  UNL     1      22.942   6.900  46.889  1.00  0.00    -0.053 Br
ENDBRANCH  12  13
BRANCH   1  17
HETATM   17  N1  UNL     1      31.088   6.536  47.202  1.00  0.00    -0.327 N 
HETATM   18  C4  UNL     1      31.428   5.580  48.196  1.00  0.00     0.245 C 
HETATM   19  O1  UNL     1      30.977   5.657  49.368  1.00  0.00    -0.268 OA
HETATM   20  H6  UNL     1      31.453   6.490  46.218  1.00  0.00     0.169 HD
BRANCH  18  21
HETATM   21  C3  UNL     1      32.328   4.472  47.845  1.00  0.00     0.070 C 
HETATM   22  C2  UNL     1      32.009   3.427  47.065  1.00  0.00    -0.026 C 
HETATM   23  C1  UNL     1      32.918   2.308  46.708  1.00  0.00     0.036 C 
ENDBRANCH  18  21
ENDBRANCH   1  17
TORSDOF 3
ENDMDL
