MODEL 1
REMARK VINA RESULT:      -7.3      0.000      0.000
REMARK  6 active torsions:
REMARK  status: ('A' for Active; 'I' for Inactive)
REMARK    1  A    between atoms: N2_5  and  C4_6 
REMARK    2  A    between atoms: C6_8  and  C7_9 
REMARK    3  A    between atoms: C9_12  and  N3_13 
REMARK    4  A    between atoms: C9_12  and  C10_14 
REMARK    5  A    between atoms: C11_15  and  N4_16 
REMARK    6  A    between atoms: N4_16  and  C12_17 
ROOT
HETATM    1  C4  UNL     1      22.268   0.285  52.677  1.00  0.00     0.011 A 
HETATM    2  C5  UNL     1      23.519   0.130  53.070  1.00  0.00     0.036 A 
HETATM    3  C6  UNL     1      23.698  -0.674  54.271  1.00  0.00    -0.032 A 
HETATM    4  C13 UNL     1      22.569  -1.258  54.978  1.00  0.00     0.008 A 
HETATM    5  C14 UNL     1      21.347  -1.068  54.537  1.00  0.00    -0.020 A 
HETATM    6  C15 UNL     1      21.069  -0.275  53.339  1.00  0.00     0.084 A 
ENDROOT
BRANCH   3   7
HETATM    7  C7  UNL     1      24.924  -0.863  54.713  1.00  0.00     0.048 C 
HETATM    8  C8  UNL     1      26.108  -0.072  54.589  1.00  0.00     0.092 A 
HETATM    9  O1  UNL     1      27.293  -0.198  54.984  1.00  0.00    -0.325 OA
HETATM   10  C9  UNL     1      26.854   1.119  54.119  1.00  0.00     0.235 A 
BRANCH  10  11
HETATM   11  N3  UNL     1      28.222   1.006  54.601  1.00  0.00    -0.303 N 
HETATM   12  H11 UNL     1      28.595   0.091  54.295  1.00  0.00     0.121 HD
HETATM   13  H12 UNL     1      28.784   1.755  54.164  1.00  0.00     0.121 HD
ENDBRANCH  10  11
BRANCH  10  14
HETATM   14  C10 UNL     1      26.883   1.200  52.627  1.00  0.00     0.040 C 
HETATM   15  C11 UNL     1      26.594   2.292  51.945  1.00  0.00     0.090 C 
BRANCH  15  16
HETATM   16  N4  UNL     1      26.627   2.357  50.532  1.00  0.00    -0.344 N 
HETATM   17  H15 UNL     1      26.712   1.779  49.660  1.00  0.00     0.167 HD
BRANCH  16  18
HETATM   18  C12 UNL     1      26.514   3.625  49.894  1.00  0.00     0.352 C 
HETATM   19  O2  UNL     1      27.131   4.296  49.017  1.00  0.00    -0.283 OA
ENDBRANCH  16  18
ENDBRANCH  15  16
ENDBRANCH  10  14
ENDBRANCH   3   7
BRANCH   1  20
HETATM   20  N2  UNL     1      22.051   1.062  51.508  1.00  0.00    -0.380 N 
HETATM   21  C3  UNL     1      20.736   1.259  50.873  1.00  0.00     0.153 C 
HETATM   22  C2  UNL     1      20.644   2.720  50.438  1.00  0.00     0.291 C 
HETATM   23  N1  UNL     1      21.483   3.557  51.272  1.00  0.00     0.087 N 
HETATM   24  C1  UNL     1      21.184   4.948  51.148  1.00  0.00     0.310 C 
HETATM   25  C17 UNL     1      22.877   3.259  51.076  1.00  0.00     0.291 C 
HETATM   26  C16 UNL     1      23.039   1.808  50.710  1.00  0.00     0.153 C 
ENDBRANCH   1  20
TORSDOF 6
ENDMDL
MODEL 2
REMARK VINA RESULT:      -7.1      2.742      5.562
REMARK  6 active torsions:
REMARK  status: ('A' for Active; 'I' for Inactive)
REMARK    1  A    between atoms: N2_5  and  C4_6 
REMARK    2  A    between atoms: C6_8  and  C7_9 
REMARK    3  A    between atoms: C9_12  and  N3_13 
REMARK    4  A    between atoms: C9_12  and  C10_14 
REMARK    5  A    between atoms: C11_15  and  N4_16 
REMARK    6  A    between atoms: N4_16  and  C12_17 
ROOT
HETATM    1  C4  UNL     1      24.175   0.250  53.397  1.00  0.00     0.011 A 
HETATM    2  C5  UNL     1      23.074   0.901  53.071  1.00  0.00     0.036 A 
HETATM    3  C6  UNL     1      21.874   0.488  53.785  1.00  0.00    -0.032 A 
HETATM    4  C13 UNL     1      21.901  -0.569  54.784  1.00  0.00     0.008 A 
HETATM    5  C14 UNL     1      23.029  -1.179  55.065  1.00  0.00    -0.020 A 
HETATM    6  C15 UNL     1      24.285  -0.834  54.399  1.00  0.00     0.084 A 
ENDROOT
BRANCH   3   7
HETATM    7  C7  UNL     1      20.743   1.100  53.501  1.00  0.00     0.048 C 
HETATM    8  C8  UNL     1      20.450   2.191  52.625  1.00  0.00     0.092 A 
HETATM    9  O1  UNL     1      19.404   2.812  52.316  1.00  0.00    -0.325 OA
HETATM   10  C9  UNL     1      20.835   3.233  51.643  1.00  0.00     0.235 A 
BRANCH  10  11
HETATM   11  N3  UNL     1      19.626   3.938  51.247  1.00  0.00    -0.303 N 
HETATM   12  H11 UNL     1      18.818   3.318  51.430  1.00  0.00     0.121 HD
HETATM   13  H12 UNL     1      19.534   4.783  51.835  1.00  0.00     0.121 HD
ENDBRANCH  10  11
BRANCH  10  14
HETATM   14  C10 UNL     1      21.788   4.222  52.232  1.00  0.00     0.040 C 
HETATM   15  C11 UNL     1      22.913   4.594  51.651  1.00  0.00     0.090 C 
BRANCH  15  16
HETATM   16  N4  UNL     1      23.808   5.532  52.217  1.00  0.00    -0.344 N 
HETATM   17  H15 UNL     1      24.364   5.757  53.078  1.00  0.00     0.167 HD
BRANCH  16  18
HETATM   18  C12 UNL     1      24.199   6.667  51.451  1.00  0.00     0.352 C 
HETATM   19  O2  UNL     1      23.674   7.725  51.000  1.00  0.00    -0.283 OA
ENDBRANCH  16  18
ENDBRANCH  15  16
ENDBRANCH  10  14
ENDBRANCH   3   7
BRANCH   1  20
HETATM   20  N2  UNL     1      25.369   0.623  52.723  1.00  0.00    -0.380 N 
HETATM   21  C3  UNL     1      25.803   2.015  52.511  1.00  0.00     0.153 C 
HETATM   22  C2  UNL     1      27.312   2.072  52.744  1.00  0.00     0.291 C 
HETATM   23  N1  UNL     1      27.729   1.026  53.656  1.00  0.00     0.087 N 
HETATM   24  C1  UNL     1      29.042   1.231  54.179  1.00  0.00     0.310 C 
HETATM   25  C17 UNL     1      27.551  -0.277  53.071  1.00  0.00     0.291 C 
HETATM   26  C16 UNL     1      26.387  -0.251  52.117  1.00  0.00     0.153 C 
ENDBRANCH   1  20
TORSDOF 6
ENDMDL
MODEL 3
REMARK VINA RESULT:      -7.1      2.981      5.213
REMARK  6 active torsions:
REMARK  status: ('A' for Active; 'I' for Inactive)
REMARK    1  A    between atoms: N2_5  and  C4_6 
REMARK    2  A    between atoms: C6_8  and  C7_9 
REMARK    3  A    between atoms: C9_12  and  N3_13 
REMARK    4  A    between atoms: C9_12  and  C10_14 
REMARK    5  A    between atoms: C11_15  and  N4_16 
REMARK    6  A    between atoms: N4_16  and  C12_17 
ROOT
HETATM    1  C4  UNL     1      25.281   1.674  52.032  1.00  0.00     0.011 A 
HETATM    2  C5  UNL     1      24.401   1.101  52.833  1.00  0.00     0.036 A 
HETATM    3  C6  UNL     1      24.797  -0.195  53.366  1.00  0.00    -0.032 A 
HETATM    4  C13 UNL     1      26.075  -0.804  53.032  1.00  0.00     0.008 A 
HETATM    5  C14 UNL     1      26.909  -0.183  52.230  1.00  0.00    -0.020 A 
HETATM    6  C15 UNL     1      26.598   1.121  51.645  1.00  0.00     0.084 A 
ENDROOT
BRANCH   3   7
HETATM    7  C7  UNL     1      23.959  -0.816  54.169  1.00  0.00     0.048 C 
HETATM    8  C8  UNL     1      22.534  -0.926  54.151  1.00  0.00     0.092 A 
HETATM    9  O1  UNL     1      21.688  -1.497  54.882  1.00  0.00    -0.325 OA
HETATM   10  C9  UNL     1      21.198  -0.645  53.574  1.00  0.00     0.235 A 
BRANCH  10  11
HETATM   11  N3  UNL     1      20.209  -1.333  54.389  1.00  0.00    -0.303 N 
HETATM   12  H11 UNL     1      19.777  -2.076  53.811  1.00  0.00     0.121 HD
HETATM   13  H12 UNL     1      20.695  -1.776  55.187  1.00  0.00     0.121 HD
ENDBRANCH  10  11
BRANCH  10  14
HETATM   14  C10 UNL     1      20.887   0.815  53.584  1.00  0.00     0.040 C 
HETATM   15  C11 UNL     1      20.422   1.476  52.539  1.00  0.00     0.090 C 
BRANCH  15  16
HETATM   16  N4  UNL     1      20.130   2.859  52.561  1.00  0.00    -0.344 N 
HETATM   17  H15 UNL     1      20.418   3.778  52.979  1.00  0.00     0.167 HD
BRANCH  16  18
HETATM   18  C12 UNL     1      19.057   3.354  51.766  1.00  0.00     0.352 C 
HETATM   19  O2  UNL     1      17.843   3.672  51.916  1.00  0.00    -0.283 OA
ENDBRANCH  16  18
ENDBRANCH  15  16
ENDBRANCH  10  14
ENDBRANCH   3   7
BRANCH   1  20
HETATM   20  N2  UNL     1      24.933   2.940  51.491  1.00  0.00    -0.380 N 
HETATM   21  C3  UNL     1      25.759   3.688  50.528  1.00  0.00     0.153 C 
HETATM   22  C2  UNL     1      24.823   4.301  49.488  1.00  0.00     0.291 C 
HETATM   23  N1  UNL     1      23.613   3.514  49.363  1.00  0.00     0.087 N 
HETATM   24  C1  UNL     1      22.863   3.825  48.187  1.00  0.00     0.310 C 
HETATM   25  C17 UNL     1      22.826   3.571  50.566  1.00  0.00     0.291 C 
HETATM   26  C16 UNL     1      23.731   3.748  51.756  1.00  0.00     0.153 C 
ENDBRANCH   1  20
TORSDOF 6
ENDMDL
MODEL 4
REMARK VINA RESULT:      -6.8      2.365      5.539
REMARK  6 active torsions:
REMARK  status: ('A' for Active; 'I' for Inactive)
REMARK    1  A    between atoms: N2_5  and  C4_6 
REMARK    2  A    between atoms: C6_8  and  C7_9 
REMARK    3  A    between atoms: C9_12  and  N3_13 
REMARK    4  A    between atoms: C9_12  and  C10_14 
REMARK    5  A    between atoms: C11_15  and  N4_16 
REMARK    6  A    between atoms: N4_16  and  C12_17 
ROOT
HETATM    1  C4  UNL     1      24.008   0.132  53.380  1.00  0.00     0.011 A 
HETATM    2  C5  UNL     1      22.975   0.476  52.634  1.00  0.00     0.036 A 
HETATM    3  C6  UNL     1      21.697  -0.088  53.045  1.00  0.00    -0.032 A 
HETATM    4  C13 UNL     1      21.582  -0.968  54.197  1.00  0.00     0.008 A 
HETATM    5  C14 UNL     1      22.648  -1.273  54.900  1.00  0.00    -0.020 A 
HETATM    6  C15 UNL     1      23.974  -0.755  54.564  1.00  0.00     0.084 A 
ENDROOT
BRANCH   3   7
HETATM    7  C7  UNL     1      20.629   0.218  52.337  1.00  0.00     0.048 C 
HETATM    8  C8  UNL     1      20.485   0.709  51.003  1.00  0.00     0.092 A 
HETATM    9  O1  UNL     1      19.504   1.016  50.282  1.00  0.00    -0.325 OA
HETATM   10  C9  UNL     1      21.026   1.157  49.698  1.00  0.00     0.235 A 
BRANCH  10  11
HETATM   11  N3  UNL     1      19.899   1.481  48.837  1.00  0.00    -0.303 N 
HETATM   12  H11 UNL     1      19.086   0.923  49.150  1.00  0.00     0.121 HD
HETATM   13  H12 UNL     1      19.678   2.484  48.956  1.00  0.00     0.121 HD
ENDBRANCH  10  11
BRANCH  10  14
HETATM   14  C10 UNL     1      21.878   2.375  49.841  1.00  0.00     0.040 C 
HETATM   15  C11 UNL     1      23.164   2.413  49.542  1.00  0.00     0.090 C 
BRANCH  15  16
HETATM   16  N4  UNL     1      23.961   3.573  49.681  1.00  0.00    -0.344 N 
HETATM   17  H15 UNL     1      23.947   4.621  49.622  1.00  0.00     0.167 HD
BRANCH  16  18
HETATM   18  C12 UNL     1      25.334   3.432  50.029  1.00  0.00     0.352 C 
HETATM   19  O2  UNL     1      26.422   3.123  49.464  1.00  0.00    -0.283 OA
ENDBRANCH  16  18
ENDBRANCH  15  16
ENDBRANCH  10  14
ENDBRANCH   3   7
BRANCH   1  20
HETATM   20  N2  UNL     1      25.274   0.662  53.012  1.00  0.00    -0.380 N 
HETATM   21  C3  UNL     1      25.827   1.927  53.526  1.00  0.00     0.153 C 
HETATM   22  C2  UNL     1      27.313   1.708  53.801  1.00  0.00     0.291 C 
HETATM   23  N1  UNL     1      27.581   0.314  54.090  1.00  0.00     0.087 N 
HETATM   24  C1  UNL     1      28.862   0.102  54.685  1.00  0.00     0.310 C 
HETATM   25  C17 UNL     1      27.350  -0.512  52.935  1.00  0.00     0.291 C 
HETATM   26  C16 UNL     1      26.267   0.096  52.084  1.00  0.00     0.153 C 
ENDBRANCH   1  20
TORSDOF 6
ENDMDL
MODEL 5
REMARK VINA RESULT:      -6.7      2.496      4.398
REMARK  6 active torsions:
REMARK  status: ('A' for Active; 'I' for Inactive)
REMARK    1  A    between atoms: N2_5  and  C4_6 
REMARK    2  A    between atoms: C6_8  and  C7_9 
REMARK    3  A    between atoms: C9_12  and  N3_13 
REMARK    4  A    between atoms: C9_12  and  C10_14 
REMARK    5  A    between atoms: C11_15  and  N4_16 
REMARK    6  A    between atoms: N4_16  and  C12_17 
ROOT
HETATM    1  C4  UNL     1      23.644   0.760  52.891  1.00  0.00     0.011 A 
HETATM    2  C5  UNL     1      24.432   1.548  52.184  1.00  0.00     0.036 A 
HETATM    3  C6  UNL     1      25.800   1.075  52.022  1.00  0.00    -0.032 A 
HETATM    4  C13 UNL     1      26.252  -0.178  52.605  1.00  0.00     0.008 A 
HETATM    5  C14 UNL     1      25.419  -0.919  53.299  1.00  0.00    -0.020 A 
HETATM    6  C15 UNL     1      24.027  -0.526  53.516  1.00  0.00     0.084 A 
ENDROOT
BRANCH   3   7
HETATM    7  C7  UNL     1      26.634   1.820  51.327  1.00  0.00     0.048 C 
HETATM    8  C8  UNL     1      26.444   3.046  50.618  1.00  0.00     0.092 A 
HETATM    9  O1  UNL     1      27.193   3.795  49.943  1.00  0.00    -0.325 OA
HETATM   10  C9  UNL     1      25.615   4.180  50.144  1.00  0.00     0.235 A 
BRANCH  10  11
HETATM   11  N3  UNL     1      26.478   5.078  49.392  1.00  0.00    -0.303 N 
HETATM   12  H11 UNL     1      25.882   5.794  48.941  1.00  0.00     0.121 HD
HETATM   13  H12 UNL     1      27.116   5.548  50.055  1.00  0.00     0.121 HD
ENDBRANCH  10  11
BRANCH  10  14
HETATM   14  C10 UNL     1      24.512   3.722  49.248  1.00  0.00     0.040 C 
HETATM   15  C11 UNL     1      23.231   3.934  49.491  1.00  0.00     0.090 C 
BRANCH  15  16
HETATM   16  N4  UNL     1      22.195   3.496  48.633  1.00  0.00    -0.344 N 
HETATM   17  H15 UNL     1      21.333   3.806  48.121  1.00  0.00     0.167 HD
BRANCH  16  18
HETATM   18  C12 UNL     1      22.169   2.134  48.216  1.00  0.00     0.352 C 
HETATM   19  O2  UNL     1      21.613   1.053  48.564  1.00  0.00    -0.283 OA
ENDBRANCH  16  18
ENDBRANCH  15  16
ENDBRANCH  10  14
ENDBRANCH   3   7
BRANCH   1  20
HETATM   20  N2  UNL     1      22.300   1.185  53.072  1.00  0.00    -0.380 N 
HETATM   21  C3  UNL     1      21.713   2.377  52.435  1.00  0.00     0.153 C 
HETATM   22  C2  UNL     1      20.299   2.015  51.986  1.00  0.00     0.291 C 
HETATM   23  N1  UNL     1      20.191   0.593  51.729  1.00  0.00     0.087 N 
HETATM   24  C1  UNL     1      19.020   0.245  50.989  1.00  0.00     0.310 C 
HETATM   25  C17 UNL     1      20.340  -0.169  52.941  1.00  0.00     0.291 C 
HETATM   26  C16 UNL     1      21.247   0.564  53.893  1.00  0.00     0.153 C 
ENDBRANCH   1  20
TORSDOF 6
ENDMDL
MODEL 6
REMARK VINA RESULT:      -6.6      2.013      2.442
REMARK  6 active torsions:
REMARK  status: ('A' for Active; 'I' for Inactive)
REMARK    1  A    between atoms: N2_5  and  C4_6 
REMARK    2  A    between atoms: C6_8  and  C7_9 
REMARK    3  A    between atoms: C9_12  and  N3_13 
REMARK    4  A    between atoms: C9_12  and  C10_14 
REMARK    5  A    between atoms: C11_15  and  N4_16 
REMARK    6  A    between atoms: N4_16  and  C12_17 
ROOT
HETATM    1  C4  UNL     1      20.961   0.299  52.826  1.00  0.00     0.011 A 
HETATM    2  C5  UNL     1      22.267   0.455  52.723  1.00  0.00     0.036 A 
HETATM    3  C6  UNL     1      23.066  -0.419  53.571  1.00  0.00    -0.032 A 
HETATM    4  C13 UNL     1      22.453  -1.390  54.464  1.00  0.00     0.008 A 
HETATM    5  C14 UNL     1      21.147  -1.498  54.521  1.00  0.00    -0.020 A 
HETATM    6  C15 UNL     1      20.262  -0.662  53.708  1.00  0.00     0.084 A 
ENDROOT
BRANCH   3   7
HETATM    7  C7  UNL     1      24.377  -0.309  53.513  1.00  0.00     0.048 C 
HETATM    8  C8  UNL     1      25.237   0.828  53.613  1.00  0.00     0.092 A 
HETATM    9  O1  UNL     1      26.481   0.994  53.566  1.00  0.00    -0.325 OA
HETATM   10  C9  UNL     1      25.491   2.278  53.787  1.00  0.00     0.235 A 
BRANCH  10  11
HETATM   11  N3  UNL     1      26.931   2.482  53.773  1.00  0.00    -0.303 N 
HETATM   12  H11 UNL     1      27.272   2.300  52.813  1.00  0.00     0.121 HD
HETATM   13  H12 UNL     1      27.122   3.470  54.009  1.00  0.00     0.121 HD
ENDBRANCH  10  11
BRANCH  10  14
HETATM   14  C10 UNL     1      24.888   3.081  52.681  1.00  0.00     0.040 C 
HETATM   15  C11 UNL     1      23.812   3.834  52.822  1.00  0.00     0.090 C 
BRANCH  15  16
HETATM   16  N4  UNL     1      23.251   4.591  51.768  1.00  0.00    -0.344 N 
HETATM   17  H15 UNL     1      22.386   4.721  51.186  1.00  0.00     0.167 HD
BRANCH  16  18
HETATM   18  C12 UNL     1      24.034   5.607  51.150  1.00  0.00     0.352 C 
HETATM   19  O2  UNL     1      24.184   6.860  51.229  1.00  0.00    -0.283 OA
ENDBRANCH  16  18
ENDBRANCH  15  16
ENDBRANCH  10  14
ENDBRANCH   3   7
BRANCH   1  20
HETATM   20  N2  UNL     1      20.146   1.134  52.014  1.00  0.00    -0.380 N 
HETATM   21  C3  UNL     1      19.877   2.555  52.290  1.00  0.00     0.153 C 
HETATM   22  C2  UNL     1      19.926   3.305  50.961  1.00  0.00     0.291 C 
HETATM   23  N1  UNL     1      20.784   2.619  50.017  1.00  0.00     0.087 N 
HETATM   24  C1  UNL     1      21.144   3.428  48.897  1.00  0.00     0.310 C 
HETATM   25  C17 UNL     1      20.232   1.345  49.639  1.00  0.00     0.291 C 
HETATM   26  C16 UNL     1      19.424   0.784  50.779  1.00  0.00     0.153 C 
ENDBRANCH   1  20
TORSDOF 6
ENDMDL
MODEL 7
REMARK VINA RESULT:      -6.5      2.516      3.999
REMARK  6 active torsions:
REMARK  status: ('A' for Active; 'I' for Inactive)
REMARK    1  A    between atoms: N2_5  and  C4_6 
REMARK    2  A    between atoms: C6_8  and  C7_9 
REMARK    3  A    between atoms: C9_12  and  N3_13 
REMARK    4  A    between atoms: C9_12  and  C10_14 
REMARK    5  A    between atoms: C11_15  and  N4_16 
REMARK    6  A    between atoms: N4_16  and  C12_17 
ROOT
HETATM    1  C4  UNL     1      22.626   2.363  51.652  1.00  0.00     0.011 A 
HETATM    2  C5  UNL     1      22.716   1.567  52.701  1.00  0.00     0.036 A 
HETATM    3  C6  UNL     1      22.024   0.292  52.574  1.00  0.00    -0.032 A 
HETATM    4  C13 UNL     1      21.289  -0.066  51.371  1.00  0.00     0.008 A 
HETATM    5  C14 UNL     1      21.237   0.770  50.360  1.00  0.00    -0.020 A 
HETATM    6  C15 UNL     1      21.900   2.074  50.395  1.00  0.00     0.084 A 
ENDROOT
BRANCH   3   7
HETATM    7  C7  UNL     1      22.076  -0.545  53.590  1.00  0.00     0.048 C 
HETATM    8  C8  UNL     1      23.118  -0.838  54.523  1.00  0.00     0.092 A 
HETATM    9  O1  UNL     1      23.226  -1.618  55.501  1.00  0.00    -0.325 OA
HETATM   10  C9  UNL     1      24.481  -0.657  55.077  1.00  0.00     0.235 A 
BRANCH  10  11
HETATM   11  N3  UNL     1      24.609  -1.527  56.236  1.00  0.00    -0.303 N 
HETATM   12  H11 UNL     1      25.528  -2.000  56.182  1.00  0.00     0.121 HD
HETATM   13  H12 UNL     1      24.588  -0.940  57.087  1.00  0.00     0.121 HD
ENDBRANCH  10  11
BRANCH  10  14
HETATM   14  C10 UNL     1      25.534  -1.030  54.086  1.00  0.00     0.040 C 
HETATM   15  C11 UNL     1      26.499  -0.216  53.697  1.00  0.00     0.090 C 
BRANCH  15  16
HETATM   16  N4  UNL     1      27.492  -0.581  52.759  1.00  0.00    -0.344 N 
HETATM   17  H15 UNL     1      27.776  -0.499  51.751  1.00  0.00     0.167 HD
BRANCH  16  18
HETATM   18  C12 UNL     1      28.599  -1.366  53.191  1.00  0.00     0.352 C 
HETATM   19  O2  UNL     1      28.880  -2.588  53.359  1.00  0.00    -0.283 OA
ENDBRANCH  16  18
ENDBRANCH  15  16
ENDBRANCH  10  14
ENDBRANCH   3   7
BRANCH   1  20
HETATM   20  N2  UNL     1      23.288   3.617  51.736  1.00  0.00    -0.380 N 
HETATM   21  C3  UNL     1      24.590   3.913  51.113  1.00  0.00     0.153 C 
HETATM   22  C2  UNL     1      24.516   5.319  50.523  1.00  0.00     0.291 C 
HETATM   23  N1  UNL     1      23.149   5.659  50.182  1.00  0.00     0.087 N 
HETATM   24  C1  UNL     1      23.053   6.797  49.324  1.00  0.00     0.310 C 
HETATM   25  C17 UNL     1      22.330   5.770  51.360  1.00  0.00     0.291 C 
HETATM   26  C16 UNL     1      22.845   4.840  52.426  1.00  0.00     0.153 C 
ENDBRANCH   1  20
TORSDOF 6
ENDMDL
MODEL 8
REMARK VINA RESULT:      -6.4      2.821      4.355
REMARK  6 active torsions:
REMARK  status: ('A' for Active; 'I' for Inactive)
REMARK    1  A    between atoms: N2_5  and  C4_6 
REMARK    2  A    between atoms: C6_8  and  C7_9 
REMARK    3  A    between atoms: C9_12  and  N3_13 
REMARK    4  A    between atoms: C9_12  and  C10_14 
REMARK    5  A    between atoms: C11_15  and  N4_16 
REMARK    6  A    between atoms: N4_16  and  C12_17 
ROOT
HETATM    1  C4  UNL     1      24.358   3.569  50.364  1.00  0.00     0.011 A 
HETATM    2  C5  UNL     1      23.924   2.593  51.140  1.00  0.00     0.036 A 
HETATM    3  C6  UNL     1      24.961   1.738  51.700  1.00  0.00    -0.032 A 
HETATM    4  C13 UNL     1      26.371   1.954  51.415  1.00  0.00     0.008 A 
HETATM    5  C14 UNL     1      26.739   2.944  50.636  1.00  0.00    -0.020 A 
HETATM    6  C15 UNL     1      25.770   3.855  50.026  1.00  0.00     0.084 A 
ENDROOT
BRANCH   3   7
HETATM    7  C7  UNL     1      24.590   0.745  52.481  1.00  0.00     0.048 C 
HETATM    8  C8  UNL     1      25.144   0.238  53.697  1.00  0.00     0.092 A 
HETATM    9  O1  UNL     1      24.839  -0.696  54.479  1.00  0.00    -0.325 OA
HETATM   10  C9  UNL     1      26.144   0.240  54.791  1.00  0.00     0.235 A 
BRANCH  10  11
HETATM   11  N3  UNL     1      25.782  -0.814  55.726  1.00  0.00    -0.303 N 
HETATM   12  H11 UNL     1      25.292  -1.557  55.199  1.00  0.00     0.121 HD
HETATM   13  H12 UNL     1      26.650  -1.208  56.125  1.00  0.00     0.121 HD
ENDBRANCH  10  11
BRANCH  10  14
HETATM   14  C10 UNL     1      27.522  -0.033  54.282  1.00  0.00     0.040 C 
HETATM   15  C11 UNL     1      28.470   0.882  54.200  1.00  0.00     0.090 C 
BRANCH  15  16
HETATM   16  N4  UNL     1      29.771   0.612  53.717  1.00  0.00    -0.344 N 
HETATM   17  H15 UNL     1      30.665   1.061  53.397  1.00  0.00     0.167 HD
BRANCH  16  18
HETATM   18  C12 UNL     1      30.177  -0.741  53.538  1.00  0.00     0.352 C 
HETATM   19  O2  UNL     1      29.639  -1.867  53.339  1.00  0.00    -0.283 OA
ENDBRANCH  16  18
ENDBRANCH  15  16
ENDBRANCH  10  14
ENDBRANCH   3   7
BRANCH   1  20
HETATM   20  N2  UNL     1      23.377   4.427  49.797  1.00  0.00    -0.380 N 
HETATM   21  C3  UNL     1      22.641   4.141  48.553  1.00  0.00     0.153 C 
HETATM   22  C2  UNL     1      21.188   4.560  48.765  1.00  0.00     0.291 C 
HETATM   23  N1  UNL     1      20.836   4.493  50.169  1.00  0.00     0.087 N 
HETATM   24  C1  UNL     1      19.426   4.536  50.394  1.00  0.00     0.310 C 
HETATM   25  C17 UNL     1      21.560   5.472  50.936  1.00  0.00     0.291 C 
HETATM   26  C16 UNL     1      22.900   5.726  50.299  1.00  0.00     0.153 C 
ENDBRANCH   1  20
TORSDOF 6
ENDMDL
MODEL 9
REMARK VINA RESULT:      -6.2      3.529      6.382
REMARK  6 active torsions:
REMARK  status: ('A' for Active; 'I' for Inactive)
REMARK    1  A    between atoms: N2_5  and  C4_6 
REMARK    2  A    between atoms: C6_8  and  C7_9 
REMARK    3  A    between atoms: C9_12  and  N3_13 
REMARK    4  A    between atoms: C9_12  and  C10_14 
REMARK    5  A    between atoms: C11_15  and  N4_16 
REMARK    6  A    between atoms: N4_16  and  C12_17 
ROOT
HETATM    1  C4  UNL     1      25.611   6.257  49.411  1.00  0.00     0.011 A 
HETATM    2  C5  UNL     1      24.903   5.267  49.922  1.00  0.00     0.036 A 
HETATM    3  C6  UNL     1      25.521   3.951  49.832  1.00  0.00    -0.032 A 
HETATM    4  C13 UNL     1      26.826   3.756  49.219  1.00  0.00     0.008 A 
HETATM    5  C14 UNL     1      27.481   4.782  48.729  1.00  0.00    -0.020 A 
HETATM    6  C15 UNL     1      26.941   6.141  48.772  1.00  0.00     0.084 A 
ENDROOT
BRANCH   3   7
HETATM    7  C7  UNL     1      24.862   2.922  50.324  1.00  0.00     0.048 C 
HETATM    8  C8  UNL     1      25.018   2.192  51.543  1.00  0.00     0.092 A 
HETATM    9  O1  UNL     1      24.428   1.213  52.061  1.00  0.00    -0.325 OA
HETATM   10  C9  UNL     1      25.681   1.919  52.840  1.00  0.00     0.235 A 
BRANCH  10  11
HETATM   11  N3  UNL     1      24.984   0.810  53.471  1.00  0.00    -0.303 N 
HETATM   12  H11 UNL     1      24.790   0.098  52.746  1.00  0.00     0.121 HD
HETATM   13  H12 UNL     1      25.608   0.395  54.183  1.00  0.00     0.121 HD
ENDBRANCH  10  11
BRANCH  10  14
HETATM   14  C10 UNL     1      27.114   1.536  52.659  1.00  0.00     0.040 C 
HETATM   15  C11 UNL     1      28.046   1.725  53.575  1.00  0.00     0.090 C 
BRANCH  15  16
HETATM   16  N4  UNL     1      29.400   1.357  53.392  1.00  0.00    -0.344 N 
HETATM   17  H15 UNL     1      30.334   1.704  53.061  1.00  0.00     0.167 HD
BRANCH  16  18
HETATM   18  C12 UNL     1      29.813   0.040  53.744  1.00  0.00     0.352 C 
HETATM   19  O2  UNL     1      29.692  -1.136  53.296  1.00  0.00    -0.283 OA
ENDBRANCH  16  18
ENDBRANCH  15  16
ENDBRANCH  10  14
ENDBRANCH   3   7
BRANCH   1  20
HETATM   20  N2  UNL     1      25.043   7.558  49.479  1.00  0.00    -0.380 N 
HETATM   21  C3  UNL     1      25.265   8.615  48.477  1.00  0.00     0.153 C 
HETATM   22  C2  UNL     1      23.933   9.325  48.247  1.00  0.00     0.291 C 
HETATM   23  N1  UNL     1      22.824   8.437  48.528  1.00  0.00     0.087 N 
HETATM   24  C1  UNL     1      21.580   8.914  48.012  1.00  0.00     0.310 C 
HETATM   25  C17 UNL     1      22.764   8.103  49.927  1.00  0.00     0.291 C 
HETATM   26  C16 UNL     1      24.152   8.113  50.510  1.00  0.00     0.153 C 
ENDBRANCH   1  20
TORSDOF 6
ENDMDL
