MODEL 1
REMARK VINA RESULT:      -8.4      0.000      0.000
REMARK  4 active torsions:
REMARK  status: ('A' for Active; 'I' for Inactive)
REMARK    1  A    between atoms: N1_5  and  C3_6 
REMARK    2  A    between atoms: N4_12  and  C7_13 
REMARK    3  A    between atoms: C7_13  and  C8_14 
REMARK    4  A    between atoms: C8_14  and  N5_15 
ROOT
HETATM    1  C3  UNL     1      25.902   1.693  51.838  1.00  0.00     0.149 A 
HETATM    2  N2  UNL     1      25.911   2.653  50.944  1.00  0.00    -0.223 NA
HETATM    3  C4  UNL     1      24.739   3.098  50.279  1.00  0.00     0.229 A 
HETATM    4  N3  UNL     1      23.545   2.640  50.443  1.00  0.00    -0.271 NA
HETATM    5  C5  UNL     1      23.276   1.563  51.370  1.00  0.00     0.163 A 
HETATM    6  C6  UNL     1      22.193   2.017  52.321  1.00  0.00     0.149 C 
HETATM    7  N4  UNL     1      21.495   0.945  52.938  1.00  0.00    -0.408 N 
HETATM    8  C13 UNL     1      22.152  -0.326  52.960  1.00  0.00     0.120 C 
HETATM    9  C14 UNL     1      23.414  -0.350  53.807  1.00  0.00     0.047 C 
HETATM   10  C15 UNL     1      24.482   0.414  53.107  1.00  0.00    -0.012 C 
HETATM   11  C16 UNL     1      24.545   1.241  52.069  1.00  0.00     0.011 A 
ENDROOT
BRANCH   1  12
HETATM   12  N1  UNL     1      27.022   1.193  52.533  1.00  0.00    -0.274 N 
HETATM   13  S1  UNL     1      28.230   2.070  53.470  1.00  0.00    -0.015 SA
HETATM   14  C2  UNL     1      29.385   0.865  54.086  1.00  0.00     0.112 A 
HETATM   15  C1  UNL     1      29.177  -0.398  53.784  1.00  0.00     0.147 A 
HETATM   16  F1  UNL     1      30.161  -1.133  54.346  1.00  0.00    -0.204 F 
HETATM   17  C18 UNL     1      28.114  -0.977  52.992  1.00  0.00     0.089 A 
HETATM   18  C17 UNL     1      27.184  -0.212  52.463  1.00  0.00     0.134 A 
HETATM   19 CL1  UNL     1      28.189  -2.718  52.822  1.00  0.00    -0.080 Cl
ENDBRANCH   1  12
BRANCH   7  20
HETATM   20  C7  UNL     1      20.084   0.888  52.779  1.00  0.00     0.136 C 
BRANCH  20  21
HETATM   21  C8  UNL     1      19.425  -0.409  53.098  1.00  0.00     0.136 C 
BRANCH  21  22
HETATM   22  N5  UNL     1      18.204  -0.535  52.424  1.00  0.00    -0.407 N 
HETATM   23  C9  UNL     1      17.919   0.301  51.344  1.00  0.00     0.143 C 
HETATM   24  C10 UNL     1      16.897  -0.368  50.444  1.00  0.00     0.187 C 
HETATM   25  O1  UNL     1      15.752  -0.763  51.086  1.00  0.00    -0.388 OA
HETATM   26  C11 UNL     1      15.870  -0.875  52.457  1.00  0.00     0.187 C 
HETATM   27  C12 UNL     1      17.216  -1.420  52.881  1.00  0.00     0.143 C 
ENDBRANCH  21  22
ENDBRANCH  20  21
ENDBRANCH   7  20
TORSDOF 4
ENDMDL
MODEL 2
REMARK VINA RESULT:      -8.4      3.570      5.115
REMARK  4 active torsions:
REMARK  status: ('A' for Active; 'I' for Inactive)
REMARK    1  A    between atoms: N1_5  and  C3_6 
REMARK    2  A    between atoms: N4_12  and  C7_13 
REMARK    3  A    between atoms: C7_13  and  C8_14 
REMARK    4  A    between atoms: C8_14  and  N5_15 
ROOT
HETATM    1  C3  UNL     1      25.312   1.153  52.835  1.00  0.00     0.149 A 
HETATM    2  N2  UNL     1      24.270   0.616  53.424  1.00  0.00    -0.223 NA
HETATM    3  C4  UNL     1      22.934   0.964  53.093  1.00  0.00     0.229 A 
HETATM    4  N3  UNL     1      22.564   1.826  52.209  1.00  0.00    -0.271 NA
HETATM    5  C5  UNL     1      23.533   2.566  51.431  1.00  0.00     0.163 A 
HETATM    6  C6  UNL     1      23.216   2.367  49.967  1.00  0.00     0.149 C 
HETATM    7  N4  UNL     1      23.741   3.388  49.130  1.00  0.00    -0.408 N 
HETATM    8  C13 UNL     1      24.823   4.162  49.656  1.00  0.00     0.120 C 
HETATM    9  C14 UNL     1      26.097   3.363  49.879  1.00  0.00     0.047 C 
HETATM   10  C15 UNL     1      25.907   2.465  51.050  1.00  0.00    -0.012 C 
HETATM   11  C16 UNL     1      24.881   2.061  51.791  1.00  0.00     0.011 A 
ENDROOT
BRANCH   1  12
HETATM   12  N1  UNL     1      26.664   0.865  53.113  1.00  0.00    -0.274 N 
HETATM   13  S1  UNL     1      27.955   1.959  53.606  1.00  0.00    -0.015 SA
HETATM   14  C2  UNL     1      29.427   0.976  53.790  1.00  0.00     0.112 A 
HETATM   15  C1  UNL     1      29.337  -0.316  53.561  1.00  0.00     0.147 A 
HETATM   16  F1  UNL     1      30.556  -0.863  53.756  1.00  0.00    -0.204 F 
HETATM   17  C18 UNL     1      28.181  -1.087  53.160  1.00  0.00     0.089 A 
HETATM   18  C17 UNL     1      27.019  -0.500  52.978  1.00  0.00     0.134 A 
HETATM   19 CL1  UNL     1      28.476  -2.801  52.956  1.00  0.00    -0.080 Cl
ENDBRANCH   1  12
BRANCH   7  20
HETATM   20  C7  UNL     1      22.833   4.107  48.306  1.00  0.00     0.136 C 
BRANCH  20  21
HETATM   21  C8  UNL     1      21.435   4.237  48.804  1.00  0.00     0.136 C 
BRANCH  21  22
HETATM   22  N5  UNL     1      21.206   5.510  49.339  1.00  0.00    -0.407 N 
HETATM   23  C9  UNL     1      20.762   6.541  48.511  1.00  0.00     0.143 C 
HETATM   24  C10 UNL     1      20.039   7.583  49.345  1.00  0.00     0.187 C 
HETATM   25  O1  UNL     1      20.768   8.068  50.399  1.00  0.00    -0.388 OA
HETATM   26  C11 UNL     1      21.829   7.271  50.780  1.00  0.00     0.187 C 
HETATM   27  C12 UNL     1      21.513   5.795  50.680  1.00  0.00     0.143 C 
ENDBRANCH  21  22
ENDBRANCH  20  21
ENDBRANCH   7  20
TORSDOF 4
ENDMDL
MODEL 3
REMARK VINA RESULT:      -8.3      1.707      2.162
REMARK  4 active torsions:
REMARK  status: ('A' for Active; 'I' for Inactive)
REMARK    1  A    between atoms: N1_5  and  C3_6 
REMARK    2  A    between atoms: N4_12  and  C7_13 
REMARK    3  A    between atoms: C7_13  and  C8_14 
REMARK    4  A    between atoms: C8_14  and  N5_15 
ROOT
HETATM    1  C3  UNL     1      25.819   1.596  51.930  1.00  0.00     0.149 A 
HETATM    2  N2  UNL     1      25.775   2.584  51.069  1.00  0.00    -0.223 NA
HETATM    3  C4  UNL     1      24.572   3.012  50.447  1.00  0.00     0.229 A 
HETATM    4  N3  UNL     1      23.398   2.509  50.625  1.00  0.00    -0.271 NA
HETATM    5  C5  UNL     1      23.188   1.394  51.522  1.00  0.00     0.163 A 
HETATM    6  C6  UNL     1      22.115   1.782  52.514  1.00  0.00     0.149 C 
HETATM    7  N4  UNL     1      21.468   0.668  53.112  1.00  0.00    -0.408 N 
HETATM    8  C13 UNL     1      22.166  -0.580  53.076  1.00  0.00     0.120 C 
HETATM    9  C14 UNL     1      23.449  -0.590  53.891  1.00  0.00     0.047 C 
HETATM   10  C15 UNL     1      24.474   0.231  53.190  1.00  0.00    -0.012 C 
HETATM   11  C16 UNL     1      24.483   1.093  52.179  1.00  0.00     0.011 A 
ENDROOT
BRANCH   1  12
HETATM   12  N1  UNL     1      26.972   1.112  52.581  1.00  0.00    -0.274 N 
HETATM   13  S1  UNL     1      28.202   2.005  53.474  1.00  0.00    -0.015 SA
HETATM   14  C2  UNL     1      29.397   0.815  54.042  1.00  0.00     0.112 A 
HETATM   15  C1  UNL     1      29.196  -0.450  53.746  1.00  0.00     0.147 A 
HETATM   16  F1  UNL     1      30.210  -1.171  54.268  1.00  0.00    -0.204 F 
HETATM   17  C18 UNL     1      28.112  -1.043  52.994  1.00  0.00     0.089 A 
HETATM   18  C17 UNL     1      27.152  -0.291  52.502  1.00  0.00     0.134 A 
HETATM   19 CL1  UNL     1      28.206  -2.783  52.817  1.00  0.00    -0.080 Cl
ENDBRANCH   1  12
BRANCH   7  20
HETATM   20  C7  UNL     1      20.056   0.570  52.985  1.00  0.00     0.136 C 
BRANCH  20  21
HETATM   21  C8  UNL     1      19.523   0.280  51.625  1.00  0.00     0.136 C 
BRANCH  21  22
HETATM   22  N5  UNL     1      19.225   1.462  50.936  1.00  0.00    -0.407 N 
HETATM   23  C9  UNL     1      18.359   2.396  51.504  1.00  0.00     0.143 C 
HETATM   24  C10 UNL     1      18.642   3.768  50.921  1.00  0.00     0.187 C 
HETATM   25  O1  UNL     1      18.604   3.818  49.551  1.00  0.00    -0.388 OA
HETATM   26  C11 UNL     1      18.730   2.594  48.926  1.00  0.00     0.187 C 
HETATM   27  C12 UNL     1      19.704   1.678  49.634  1.00  0.00     0.143 C 
ENDBRANCH  21  22
ENDBRANCH  20  21
ENDBRANCH   7  20
TORSDOF 4
ENDMDL
MODEL 4
REMARK VINA RESULT:      -8.2      2.166      3.314
REMARK  4 active torsions:
REMARK  status: ('A' for Active; 'I' for Inactive)
REMARK    1  A    between atoms: N1_5  and  C3_6 
REMARK    2  A    between atoms: N4_12  and  C7_13 
REMARK    3  A    between atoms: C7_13  and  C8_14 
REMARK    4  A    between atoms: C8_14  and  N5_15 
ROOT
HETATM    1  C3  UNL     1      23.992  -0.056  53.681  1.00  0.00     0.149 A 
HETATM    2  N2  UNL     1      23.369  -0.882  54.487  1.00  0.00    -0.223 NA
HETATM    3  C4  UNL     1      21.958  -1.046  54.483  1.00  0.00     0.229 A 
HETATM    4  N3  UNL     1      21.119  -0.428  53.725  1.00  0.00    -0.271 NA
HETATM    5  C5  UNL     1      21.562   0.550  52.756  1.00  0.00     0.163 A 
HETATM    6  C6  UNL     1      21.016   0.156  51.403  1.00  0.00     0.149 C 
HETATM    7  N4  UNL     1      20.943   1.238  50.485  1.00  0.00    -0.408 N 
HETATM    8  C13 UNL     1      21.768   2.374  50.758  1.00  0.00     0.120 C 
HETATM    9  C14 UNL     1      23.258   2.087  50.664  1.00  0.00     0.047 C 
HETATM   10  C15 UNL     1      23.667   1.260  51.830  1.00  0.00    -0.012 C 
HETATM   11  C16 UNL     1      23.045   0.573  52.784  1.00  0.00     0.011 A 
ENDROOT
BRANCH   1  12
HETATM   12  N1  UNL     1      25.383   0.165  53.632  1.00  0.00    -0.274 N 
HETATM   13  S1  UNL     1      26.282   1.657  53.900  1.00  0.00    -0.015 SA
HETATM   14  C2  UNL     1      28.006   1.272  53.685  1.00  0.00     0.112 A 
HETATM   15  C1  UNL     1      28.327   0.031  53.393  1.00  0.00     0.147 A 
HETATM   16  F1  UNL     1      29.670  -0.039  53.274  1.00  0.00    -0.204 F 
HETATM   17  C18 UNL     1      27.459  -1.110  53.207  1.00  0.00     0.089 A 
HETATM   18  C17 UNL     1      26.156  -0.983  53.328  1.00  0.00     0.134 A 
HETATM   19 CL1  UNL     1      28.284  -2.607  52.824  1.00  0.00    -0.080 Cl
ENDBRANCH   1  12
BRANCH   7  20
HETATM   20  C7  UNL     1      19.679   1.539  49.908  1.00  0.00     0.136 C 
BRANCH  20  21
HETATM   21  C8  UNL     1      18.487   0.907  50.540  1.00  0.00     0.136 C 
BRANCH  21  22
HETATM   22  N5  UNL     1      17.613   1.875  51.049  1.00  0.00    -0.407 N 
HETATM   23  C9  UNL     1      16.235   1.660  51.001  1.00  0.00     0.143 C 
HETATM   24  C10 UNL     1      15.557   2.482  52.081  1.00  0.00     0.187 C 
HETATM   25  O1  UNL     1      15.856   3.819  52.044  1.00  0.00    -0.388 OA
HETATM   26  C11 UNL     1      16.999   4.135  51.337  1.00  0.00     0.187 C 
HETATM   27  C12 UNL     1      18.095   3.108  51.517  1.00  0.00     0.143 C 
ENDBRANCH  21  22
ENDBRANCH  20  21
ENDBRANCH   7  20
TORSDOF 4
ENDMDL
MODEL 5
REMARK VINA RESULT:      -8.0      3.243      4.921
REMARK  4 active torsions:
REMARK  status: ('A' for Active; 'I' for Inactive)
REMARK    1  A    between atoms: N1_5  and  C3_6 
REMARK    2  A    between atoms: N4_12  and  C7_13 
REMARK    3  A    between atoms: C7_13  and  C8_14 
REMARK    4  A    between atoms: C8_14  and  N5_15 
ROOT
HETATM    1  C3  UNL     1      24.713   0.253  53.416  1.00  0.00     0.149 A 
HETATM    2  N2  UNL     1      24.019  -0.632  54.091  1.00  0.00    -0.223 NA
HETATM    3  C4  UNL     1      22.606  -0.733  54.005  1.00  0.00     0.229 A 
HETATM    4  N3  UNL     1      21.828   0.004  53.288  1.00  0.00    -0.271 NA
HETATM    5  C5  UNL     1      22.355   1.066  52.460  1.00  0.00     0.163 A 
HETATM    6  C6  UNL     1      21.863   0.853  51.047  1.00  0.00     0.149 C 
HETATM    7  N4  UNL     1      21.876   2.035  50.259  1.00  0.00    -0.408 N 
HETATM    8  C13 UNL     1      22.729   3.095  50.699  1.00  0.00     0.120 C 
HETATM    9  C14 UNL     1      24.211   2.756  50.638  1.00  0.00     0.047 C 
HETATM   10  C15 UNL     1      24.529   1.784  51.718  1.00  0.00    -0.012 C 
HETATM   11  C16 UNL     1      23.835   1.020  52.556  1.00  0.00     0.011 A 
ENDROOT
BRANCH   1  12
HETATM   12  N1  UNL     1      26.112   0.417  53.454  1.00  0.00    -0.274 N 
HETATM   13  S1  UNL     1      27.052   1.889  53.694  1.00  0.00    -0.015 SA
HETATM   14  C2  UNL     1      28.769   1.425  53.630  1.00  0.00     0.112 A 
HETATM   15  C1  UNL     1      29.057   0.157  53.440  1.00  0.00     0.147 A 
HETATM   16  F1  UNL     1      30.401   0.028  53.425  1.00  0.00    -0.204 F 
HETATM   17  C18 UNL     1      28.156  -0.961  53.263  1.00  0.00     0.089 A 
HETATM   18  C17 UNL     1      26.854  -0.777  53.280  1.00  0.00     0.134 A 
HETATM   19 CL1  UNL     1      28.942  -2.509  53.037  1.00  0.00    -0.080 Cl
ENDBRANCH   1  12
BRANCH   7  20
HETATM   20  C7  UNL     1      20.655   2.454  49.665  1.00  0.00     0.136 C 
BRANCH  20  21
HETATM   21  C8  UNL     1      20.553   2.331  48.184  1.00  0.00     0.136 C 
BRANCH  21  22
HETATM   22  N5  UNL     1      21.114   3.443  47.545  1.00  0.00    -0.407 N 
HETATM   23  C9  UNL     1      20.710   4.728  47.906  1.00  0.00     0.143 C 
HETATM   24  C10 UNL     1      21.805   5.719  47.558  1.00  0.00     0.187 C 
HETATM   25  O1  UNL     1      22.213   5.672  46.250  1.00  0.00    -0.388 OA
HETATM   26  C11 UNL     1      21.890   4.506  45.587  1.00  0.00     0.187 C 
HETATM   27  C12 UNL     1      22.004   3.284  46.471  1.00  0.00     0.143 C 
ENDBRANCH  21  22
ENDBRANCH  20  21
ENDBRANCH   7  20
TORSDOF 4
ENDMDL
MODEL 6
REMARK VINA RESULT:      -7.9      2.854      4.078
REMARK  4 active torsions:
REMARK  status: ('A' for Active; 'I' for Inactive)
REMARK    1  A    between atoms: N1_5  and  C3_6 
REMARK    2  A    between atoms: N4_12  and  C7_13 
REMARK    3  A    between atoms: C7_13  and  C8_14 
REMARK    4  A    between atoms: C8_14  and  N5_15 
ROOT
HETATM    1  C3  UNL     1      24.955  -0.047  53.254  1.00  0.00     0.149 A 
HETATM    2  N2  UNL     1      23.962  -0.683  53.828  1.00  0.00    -0.223 NA
HETATM    3  C4  UNL     1      22.621  -0.217  53.785  1.00  0.00     0.229 A 
HETATM    4  N3  UNL     1      22.202   0.856  53.206  1.00  0.00    -0.271 NA
HETATM    5  C5  UNL     1      23.114   1.739  52.512  1.00  0.00     0.163 A 
HETATM    6  C6  UNL     1      22.601   1.935  51.103  1.00  0.00     0.149 C 
HETATM    7  N4  UNL     1      23.085   3.119  50.485  1.00  0.00    -0.408 N 
HETATM    8  C13 UNL     1      24.274   3.694  51.032  1.00  0.00     0.120 C 
HETATM    9  C14 UNL     1      25.509   2.822  50.867  1.00  0.00     0.047 C 
HETATM   10  C15 UNL     1      25.408   1.660  51.790  1.00  0.00    -0.012 C 
HETATM   11  C16 UNL     1      24.459   1.113  52.542  1.00  0.00     0.011 A 
ENDROOT
BRANCH   1  12
HETATM   12  N1  UNL     1      26.308  -0.442  53.259  1.00  0.00    -0.274 N 
HETATM   13  S1  UNL     1      27.036  -1.922  52.636  1.00  0.00    -0.015 SA
HETATM   14  C2  UNL     1      28.784  -1.816  52.957  1.00  0.00     0.112 A 
HETATM   15  C1  UNL     1      29.236  -0.734  53.551  1.00  0.00     0.147 A 
HETATM   16  F1  UNL     1      30.573  -0.860  53.695  1.00  0.00    -0.204 F 
HETATM   17  C18 UNL     1      28.500   0.424  54.007  1.00  0.00     0.089 A 
HETATM   18  C17 UNL     1      27.197   0.492  53.846  1.00  0.00     0.134 A 
HETATM   19 CL1  UNL     1      29.478   1.669  54.756  1.00  0.00    -0.080 Cl
ENDBRANCH   1  12
BRANCH   7  20
HETATM   20  C7  UNL     1      22.131   4.056  50.003  1.00  0.00     0.136 C 
BRANCH  20  21
HETATM   21  C8  UNL     1      21.282   4.733  51.023  1.00  0.00     0.136 C 
BRANCH  21  22
HETATM   22  N5  UNL     1      19.922   4.545  50.753  1.00  0.00    -0.407 N 
HETATM   23  C9  UNL     1      19.226   3.513  51.384  1.00  0.00     0.143 C 
HETATM   24  C10 UNL     1      17.747   3.850  51.423  1.00  0.00     0.187 C 
HETATM   25  O1  UNL     1      17.203   4.145  50.200  1.00  0.00    -0.388 OA
HETATM   26  C11 UNL     1      18.121   4.491  49.229  1.00  0.00     0.187 C 
HETATM   27  C12 UNL     1      19.266   5.314  49.779  1.00  0.00     0.143 C 
ENDBRANCH  21  22
ENDBRANCH  20  21
ENDBRANCH   7  20
TORSDOF 4
ENDMDL
MODEL 7
REMARK VINA RESULT:      -7.9      2.760      3.435
REMARK  4 active torsions:
REMARK  status: ('A' for Active; 'I' for Inactive)
REMARK    1  A    between atoms: N1_5  and  C3_6 
REMARK    2  A    between atoms: N4_12  and  C7_13 
REMARK    3  A    between atoms: C7_13  and  C8_14 
REMARK    4  A    between atoms: C8_14  and  N5_15 
ROOT
HETATM    1  C3  UNL     1      26.122   2.427  51.443  1.00  0.00     0.149 A 
HETATM    2  N2  UNL     1      26.454   3.322  50.543  1.00  0.00    -0.223 NA
HETATM    3  C4  UNL     1      25.495   4.051  49.791  1.00  0.00     0.229 A 
HETATM    4  N3  UNL     1      24.213   3.940  49.872  1.00  0.00    -0.271 NA
HETATM    5  C5  UNL     1      23.598   3.003  50.787  1.00  0.00     0.163 A 
HETATM    6  C6  UNL     1      22.620   3.762  51.654  1.00  0.00     0.149 C 
HETATM    7  N4  UNL     1      21.616   2.939  52.229  1.00  0.00    -0.408 N 
HETATM    8  C13 UNL     1      21.896   1.539  52.309  1.00  0.00     0.120 C 
HETATM    9  C14 UNL     1      23.045   1.196  53.246  1.00  0.00     0.047 C 
HETATM   10  C15 UNL     1      24.325   1.620  52.617  1.00  0.00    -0.012 C 
HETATM   11  C16 UNL     1      24.681   2.369  51.579  1.00  0.00     0.011 A 
ENDROOT
BRANCH   1  12
HETATM   12  N1  UNL     1      27.014   1.661  52.221  1.00  0.00    -0.274 N 
HETATM   13  S1  UNL     1      28.289   2.206  53.309  1.00  0.00    -0.015 SA
HETATM   14  C2  UNL     1      29.056   0.748  53.982  1.00  0.00     0.112 A 
HETATM   15  C1  UNL     1      28.589  -0.422  53.606  1.00  0.00     0.147 A 
HETATM   16  F1  UNL     1      29.307  -1.381  54.229  1.00  0.00    -0.204 F 
HETATM   17  C18 UNL     1      27.509  -0.715  52.690  1.00  0.00     0.089 A 
HETATM   18  C17 UNL     1      26.847   0.259  52.107  1.00  0.00     0.134 A 
HETATM   19 CL1  UNL     1      27.189  -2.420  52.454  1.00  0.00    -0.080 Cl
ENDBRANCH   1  12
BRANCH   7  20
HETATM   20  C7  UNL     1      20.257   3.264  51.968  1.00  0.00     0.136 C 
BRANCH  20  21
HETATM   21  C8  UNL     1      19.601   2.550  50.838  1.00  0.00     0.136 C 
BRANCH  21  22
HETATM   22  N5  UNL     1      19.876   3.175  49.617  1.00  0.00    -0.407 N 
HETATM   23  C9  UNL     1      20.427   2.438  48.568  1.00  0.00     0.143 C 
HETATM   24  C10 UNL     1      20.091   3.107  47.248  1.00  0.00     0.187 C 
HETATM   25  O1  UNL     1      20.453   4.427  47.176  1.00  0.00    -0.388 OA
HETATM   26  C11 UNL     1      20.670   5.033  48.397  1.00  0.00     0.187 C 
HETATM   27  C12 UNL     1      19.702   4.560  49.460  1.00  0.00     0.143 C 
ENDBRANCH  21  22
ENDBRANCH  20  21
ENDBRANCH   7  20
TORSDOF 4
ENDMDL
MODEL 8
REMARK VINA RESULT:      -7.8      3.461      5.091
REMARK  4 active torsions:
REMARK  status: ('A' for Active; 'I' for Inactive)
REMARK    1  A    between atoms: N1_5  and  C3_6 
REMARK    2  A    between atoms: N4_12  and  C7_13 
REMARK    3  A    between atoms: C7_13  and  C8_14 
REMARK    4  A    between atoms: C8_14  and  N5_15 
ROOT
HETATM    1  C3  UNL     1      25.023   0.049  53.147  1.00  0.00     0.149 A 
HETATM    2  N2  UNL     1      23.994  -0.523  53.725  1.00  0.00    -0.223 NA
HETATM    3  C4  UNL     1      22.671  -0.020  53.615  1.00  0.00     0.229 A 
HETATM    4  N3  UNL     1      22.303   1.030  52.965  1.00  0.00    -0.271 NA
HETATM    5  C5  UNL     1      23.261   1.845  52.251  1.00  0.00     0.163 A 
HETATM    6  C6  UNL     1      22.796   1.976  50.819  1.00  0.00     0.149 C 
HETATM    7  N4  UNL     1      23.334   3.107  50.150  1.00  0.00    -0.408 N 
HETATM    8  C13 UNL     1      24.525   3.677  50.700  1.00  0.00     0.120 C 
HETATM    9  C14 UNL     1      25.736   2.761  50.622  1.00  0.00     0.047 C 
HETATM   10  C15 UNL     1      25.572   1.656  51.605  1.00  0.00    -0.012 C 
HETATM   11  C16 UNL     1      24.584   1.181  52.357  1.00  0.00     0.011 A 
ENDROOT
BRANCH   1  12
HETATM   12  N1  UNL     1      26.362  -0.386  53.216  1.00  0.00    -0.274 N 
HETATM   13  S1  UNL     1      27.065  -1.909  52.676  1.00  0.00    -0.015 SA
HETATM   14  C2  UNL     1      28.803  -1.843  53.054  1.00  0.00     0.112 A 
HETATM   15  C1  UNL     1      29.267  -0.752  53.623  1.00  0.00     0.147 A 
HETATM   16  F1  UNL     1      30.594  -0.912  53.820  1.00  0.00    -0.204 F 
HETATM   17  C18 UNL     1      28.552   0.444  54.008  1.00  0.00     0.089 A 
HETATM   18  C17 UNL     1      27.258   0.544  53.798  1.00  0.00     0.134 A 
HETATM   19 CL1  UNL     1      29.542   1.687  54.745  1.00  0.00    -0.080 Cl
ENDBRANCH   1  12
BRANCH   7  20
HETATM   20  C7  UNL     1      22.425   4.044  49.587  1.00  0.00     0.136 C 
BRANCH  20  21
HETATM   21  C8  UNL     1      22.828   4.680  48.302  1.00  0.00     0.136 C 
BRANCH  21  22
HETATM   22  N5  UNL     1      21.951   4.330  47.268  1.00  0.00    -0.407 N 
HETATM   23  C9  UNL     1      22.049   4.966  46.031  1.00  0.00     0.143 C 
HETATM   24  C10 UNL     1      21.465   4.071  44.954  1.00  0.00     0.187 C 
HETATM   25  O1  UNL     1      20.183   3.653  45.202  1.00  0.00    -0.388 OA
HETATM   26  C11 UNL     1      19.789   3.752  46.521  1.00  0.00     0.187 C 
HETATM   27  C12 UNL     1      20.905   3.419  47.487  1.00  0.00     0.143 C 
ENDBRANCH  21  22
ENDBRANCH  20  21
ENDBRANCH   7  20
TORSDOF 4
ENDMDL
MODEL 9
REMARK VINA RESULT:      -7.7      2.332      2.695
REMARK  4 active torsions:
REMARK  status: ('A' for Active; 'I' for Inactive)
REMARK    1  A    between atoms: N1_5  and  C3_6 
REMARK    2  A    between atoms: N4_12  and  C7_13 
REMARK    3  A    between atoms: C7_13  and  C8_14 
REMARK    4  A    between atoms: C8_14  and  N5_15 
ROOT
HETATM    1  C3  UNL     1      25.845   2.072  51.328  1.00  0.00     0.149 A 
HETATM    2  N2  UNL     1      26.224   2.985  50.467  1.00  0.00    -0.223 NA
HETATM    3  C4  UNL     1      25.305   3.815  49.770  1.00  0.00     0.229 A 
HETATM    4  N3  UNL     1      24.021   3.788  49.872  1.00  0.00    -0.271 NA
HETATM    5  C5  UNL     1      23.357   2.852  50.753  1.00  0.00     0.163 A 
HETATM    6  C6  UNL     1      22.449   3.633  51.675  1.00  0.00     0.149 C 
HETATM    7  N4  UNL     1      21.400   2.853  52.230  1.00  0.00    -0.408 N 
HETATM    8  C13 UNL     1      21.584   1.435  52.237  1.00  0.00     0.120 C 
HETATM    9  C14 UNL     1      22.721   0.968  53.133  1.00  0.00     0.047 C 
HETATM   10  C15 UNL     1      24.016   1.333  52.499  1.00  0.00    -0.012 C 
HETATM   11  C16 UNL     1      24.407   2.107  51.491  1.00  0.00     0.011 A 
ENDROOT
BRANCH   1  12
HETATM   12  N1  UNL     1      26.695   1.209  52.051  1.00  0.00    -0.274 N 
HETATM   13  S1  UNL     1      26.726  -0.553  52.078  1.00  0.00    -0.015 SA
HETATM   14  C2  UNL     1      28.027  -1.033  53.194  1.00  0.00     0.112 A 
HETATM   15  C1  UNL     1      28.721  -0.080  53.775  1.00  0.00     0.147 A 
HETATM   16  F1  UNL     1      29.646  -0.658  54.571  1.00  0.00    -0.204 F 
HETATM   17  C18 UNL     1      28.579   1.354  53.645  1.00  0.00     0.089 A 
HETATM   18  C17 UNL     1      27.656   1.864  52.859  1.00  0.00     0.134 A 
HETATM   19 CL1  UNL     1      29.711   2.294  54.595  1.00  0.00    -0.080 Cl
ENDBRANCH   1  12
BRANCH   7  20
HETATM   20  C7  UNL     1      20.063   3.284  52.014  1.00  0.00     0.136 C 
BRANCH  20  21
HETATM   21  C8  UNL     1      19.268   2.525  51.008  1.00  0.00     0.136 C 
BRANCH  21  22
HETATM   22  N5  UNL     1      17.895   2.698  51.214  1.00  0.00    -0.407 N 
HETATM   23  C9  UNL     1      17.023   1.628  51.011  1.00  0.00     0.143 C 
HETATM   24  C10 UNL     1      15.761   1.843  51.826  1.00  0.00     0.187 C 
HETATM   25  O1  UNL     1      15.140   3.044  51.599  1.00  0.00    -0.388 OA
HETATM   26  C11 UNL     1      15.940   4.005  51.015  1.00  0.00     0.187 C 
HETATM   27  C12 UNL     1      17.365   3.961  51.523  1.00  0.00     0.143 C 
ENDBRANCH  21  22
ENDBRANCH  20  21
ENDBRANCH   7  20
TORSDOF 4
ENDMDL
