MODEL 1
REMARK VINA RESULT:      -8.1      0.000      0.000
REMARK  5 active torsions:
REMARK  status: ('A' for Active; 'I' for Inactive)
REMARK    1  A    between atoms: C8_8  and  C9_9 
REMARK    2  A    between atoms: C9_9  and  C10_10 
REMARK    3  A    between atoms: C10_10  and  N1_12 
REMARK    4  A    between atoms: C13_14  and  C14_15 
REMARK    5  A    between atoms: C16_17  and  C17_18 
ROOT
HETATM    1  C1  UNL     1      30.439  -0.288  53.494  1.00  0.00     0.039 C 
HETATM    2  C2  UNL     1      28.994   0.164  54.001  1.00  0.00     0.119 C 
HETATM    3  C3  UNL     1      28.230  -1.118  53.982  1.00  0.00     0.032 C 
HETATM    4  C4  UNL     1      27.705  -1.478  52.646  1.00  0.00     0.007 C 
HETATM    5  C5  UNL     1      26.336  -0.799  52.336  1.00  0.00     0.036 C 
HETATM    6  C6  UNL     1      26.465   0.607  52.670  1.00  0.00    -0.061 C 
HETATM    7  C7  UNL     1      25.914   0.719  54.050  1.00  0.00     0.045 C 
HETATM    8  C8  UNL     1      26.543   1.924  52.730  1.00  0.00     0.014 C 
HETATM    9  N2  UNL     1      27.014   2.688  53.891  1.00  0.00    -0.371 N 
HETATM   10  C18 UNL     1      28.342   2.371  53.357  1.00  0.00     0.290 C 
HETATM   11  O1  UNL     1      28.624   1.088  53.096  1.00  0.00    -0.367 OA
HETATM   12  H22 UNL     1      26.068   2.904  54.256  1.00  0.00     0.161 HD
ENDROOT
BRANCH   8  13
HETATM   13  C9  UNL     1      26.314   2.526  51.451  1.00  0.00     0.113 C 
BRANCH  13  14
HETATM   14  C10 UNL     1      24.974   3.150  51.291  1.00  0.00     0.005 C 
HETATM   15  C11 UNL     1      24.009   3.331  52.165  1.00  0.00     0.038 C 
BRANCH  14  16
HETATM   16  N1  UNL     1      24.816   3.589  49.956  1.00  0.00    -0.362 N 
HETATM   17  C12 UNL     1      25.719   4.425  49.433  1.00  0.00     0.026 A 
HETATM   18  C13 UNL     1      26.495   5.140  48.982  1.00  0.00    -0.021 A 
HETATM   19  C17 UNL     1      25.542   5.966  49.544  1.00  0.00     0.080 A 
HETATM   20  H18 UNL     1      24.343   3.638  49.044  1.00  0.00     0.165 HD
BRANCH  18  21
HETATM   21  C14 UNL     1      27.194   5.810  48.577  1.00  0.00    -0.059 A 
HETATM   22  C15 UNL     1      27.964   6.515  48.139  1.00  0.00     0.034 A 
HETATM   23  C16 UNL     1      28.268   4.973  48.515  1.00  0.00     0.039 A 
ENDBRANCH  18  21
ENDBRANCH  14  16
ENDBRANCH  13  14
ENDBRANCH   8  13
TORSDOF 5
ENDMDL
MODEL 2
REMARK VINA RESULT:      -7.8      1.666      2.252
REMARK  5 active torsions:
REMARK  status: ('A' for Active; 'I' for Inactive)
REMARK    1  A    between atoms: C8_8  and  C9_9 
REMARK    2  A    between atoms: C9_9  and  C10_10 
REMARK    3  A    between atoms: C10_10  and  N1_12 
REMARK    4  A    between atoms: C13_14  and  C14_15 
REMARK    5  A    between atoms: C16_17  and  C17_18 
ROOT
HETATM    1  C1  UNL     1      26.856  -1.679  52.565  1.00  0.00     0.039 C 
HETATM    2  C2  UNL     1      26.581  -0.201  53.101  1.00  0.00     0.119 C 
HETATM    3  C3  UNL     1      25.525  -0.424  54.132  1.00  0.00     0.032 C 
HETATM    4  C4  UNL     1      24.159  -0.530  53.573  1.00  0.00     0.007 C 
HETATM    5  C5  UNL     1      23.487   0.860  53.361  1.00  0.00     0.036 C 
HETATM    6  C6  UNL     1      24.448   1.706  52.678  1.00  0.00    -0.061 C 
HETATM    7  C7  UNL     1      25.109   2.480  53.766  1.00  0.00     0.045 C 
HETATM    8  C8  UNL     1      25.154   2.477  51.872  1.00  0.00     0.014 C 
HETATM    9  N2  UNL     1      26.563   2.839  52.072  1.00  0.00    -0.371 N 
HETATM   10  C18 UNL     1      26.817   1.527  51.468  1.00  0.00     0.290 C 
HETATM   11  O1  UNL     1      26.198   0.463  51.996  1.00  0.00    -0.367 OA
HETATM   12  H22 UNL     1      26.367   3.764  52.497  1.00  0.00     0.161 HD
ENDROOT
BRANCH   8  13
HETATM   13  C9  UNL     1      24.450   2.757  50.657  1.00  0.00     0.113 C 
BRANCH  13  14
HETATM   14  C10 UNL     1      24.154   4.196  50.429  1.00  0.00     0.005 C 
HETATM   15  C11 UNL     1      23.616   5.091  51.227  1.00  0.00     0.038 C 
BRANCH  14  16
HETATM   16  N1  UNL     1      24.557   4.558  49.123  1.00  0.00    -0.362 N 
HETATM   17  C12 UNL     1      25.847   4.824  48.888  1.00  0.00     0.026 A 
HETATM   18  C13 UNL     1      26.953   5.048  48.685  1.00  0.00    -0.021 A 
HETATM   19  C17 UNL     1      26.407   6.267  49.035  1.00  0.00     0.080 A 
HETATM   20  H18 UNL     1      24.405   4.759  48.126  1.00  0.00     0.165 HD
BRANCH  18  21
HETATM   21  C14 UNL     1      27.962   5.274  48.504  1.00  0.00    -0.059 A 
HETATM   22  C15 UNL     1      29.045   5.541  48.309  1.00  0.00     0.034 A 
HETATM   23  C16 UNL     1      27.861   6.632  48.447  1.00  0.00     0.039 A 
ENDBRANCH  18  21
ENDBRANCH  14  16
ENDBRANCH  13  14
ENDBRANCH   8  13
TORSDOF 5
ENDMDL
MODEL 3
REMARK VINA RESULT:      -7.4      2.668      6.148
REMARK  5 active torsions:
REMARK  status: ('A' for Active; 'I' for Inactive)
REMARK    1  A    between atoms: C8_8  and  C9_9 
REMARK    2  A    between atoms: C9_9  and  C10_10 
REMARK    3  A    between atoms: C10_10  and  N1_12 
REMARK    4  A    between atoms: C13_14  and  C14_15 
REMARK    5  A    between atoms: C16_17  and  C17_18 
ROOT
HETATM    1  C1  UNL     1      23.004   2.659  48.474  1.00  0.00     0.039 C 
HETATM    2  C2  UNL     1      23.133   2.953  50.037  1.00  0.00     0.119 C 
HETATM    3  C3  UNL     1      24.349   3.817  50.104  1.00  0.00     0.032 C 
HETATM    4  C4  UNL     1      25.619   3.058  50.091  1.00  0.00     0.007 C 
HETATM    5  C5  UNL     1      26.039   2.566  51.509  1.00  0.00     0.036 C 
HETATM    6  C6  UNL     1      24.874   1.951  52.117  1.00  0.00    -0.061 C 
HETATM    7  C7  UNL     1      24.272   3.028  52.952  1.00  0.00     0.045 C 
HETATM    8  C8  UNL     1      23.952   1.182  52.666  1.00  0.00     0.014 C 
HETATM    9  N2  UNL     1      22.550   1.564  52.872  1.00  0.00    -0.371 N 
HETATM   10  C18 UNL     1      22.408   1.179  51.463  1.00  0.00     0.290 C 
HETATM   11  O1  UNL     1      23.248   1.726  50.575  1.00  0.00    -0.367 OA
HETATM   12  H22 UNL     1      22.666   1.832  53.866  1.00  0.00     0.161 HD
ENDROOT
BRANCH   8  13
HETATM   13  C9  UNL     1      24.422  -0.158  52.852  1.00  0.00     0.113 C 
BRANCH  13  14
HETATM   14  C10 UNL     1      24.215  -0.704  54.219  1.00  0.00     0.005 C 
HETATM   15  C11 UNL     1      23.105  -0.938  54.883  1.00  0.00     0.038 C 
BRANCH  14  16
HETATM   16  N1  UNL     1      25.468  -0.989  54.807  1.00  0.00    -0.362 N 
HETATM   17  C12 UNL     1      26.499  -0.169  54.576  1.00  0.00     0.026 A 
HETATM   18  C13 UNL     1      27.383   0.536  54.382  1.00  0.00    -0.021 A 
HETATM   19  C17 UNL     1      27.455  -0.402  53.372  1.00  0.00     0.080 A 
HETATM   20  H18 UNL     1      26.121  -1.537  55.383  1.00  0.00     0.165 HD
BRANCH  18  21
HETATM   21  C14 UNL     1      28.197   1.170  54.187  1.00  0.00    -0.059 A 
HETATM   22  C15 UNL     1      29.088   1.833  53.970  1.00  0.00     0.034 A 
HETATM   23  C16 UNL     1      29.125   0.221  53.876  1.00  0.00     0.039 A 
ENDBRANCH  18  21
ENDBRANCH  14  16
ENDBRANCH  13  14
ENDBRANCH   8  13
TORSDOF 5
ENDMDL
MODEL 4
REMARK VINA RESULT:      -7.4      2.673      5.000
REMARK  5 active torsions:
REMARK  status: ('A' for Active; 'I' for Inactive)
REMARK    1  A    between atoms: C8_8  and  C9_9 
REMARK    2  A    between atoms: C9_9  and  C10_10 
REMARK    3  A    between atoms: C10_10  and  N1_12 
REMARK    4  A    between atoms: C13_14  and  C14_15 
REMARK    5  A    between atoms: C16_17  and  C17_18 
ROOT
HETATM    1  C1  UNL     1      30.356  -0.076  53.210  1.00  0.00     0.039 C 
HETATM    2  C2  UNL     1      28.943   0.180  53.908  1.00  0.00     0.119 C 
HETATM    3  C3  UNL     1      28.342  -1.186  53.930  1.00  0.00     0.032 C 
HETATM    4  C4  UNL     1      27.699  -1.574  52.656  1.00  0.00     0.007 C 
HETATM    5  C5  UNL     1      26.231  -1.063  52.543  1.00  0.00     0.036 C 
HETATM    6  C6  UNL     1      26.231   0.340  52.917  1.00  0.00    -0.061 C 
HETATM    7  C7  UNL     1      25.849   0.346  54.357  1.00  0.00     0.045 C 
HETATM    8  C8  UNL     1      26.157   1.654  53.020  1.00  0.00     0.014 C 
HETATM    9  N2  UNL     1      26.676   2.440  54.145  1.00  0.00    -0.371 N 
HETATM   10  C18 UNL     1      27.955   2.304  53.440  1.00  0.00     0.290 C 
HETATM   11  O1  UNL     1      28.353   1.073  53.094  1.00  0.00    -0.367 OA
HETATM   12  H22 UNL     1      25.766   2.528  54.632  1.00  0.00     0.161 HD
ENDROOT
BRANCH   8  13
HETATM   13  C9  UNL     1      25.697   2.255  51.805  1.00  0.00     0.113 C 
BRANCH  13  14
HETATM   14  C10 UNL     1      24.232   2.148  51.576  1.00  0.00     0.005 C 
HETATM   15  C11 UNL     1      23.556   1.983  50.461  1.00  0.00     0.038 C 
BRANCH  14  16
HETATM   16  N1  UNL     1      23.554   2.244  52.812  1.00  0.00    -0.362 N 
HETATM   17  C12 UNL     1      22.794   1.222  53.221  1.00  0.00     0.026 A 
HETATM   18  C13 UNL     1      22.145   0.344  53.575  1.00  0.00    -0.021 A 
HETATM   19  C17 UNL     1      21.286   1.146  52.850  1.00  0.00     0.080 A 
HETATM   20  H18 UNL     1      23.277   2.710  53.686  1.00  0.00     0.165 HD
BRANCH  18  21
HETATM   21  C14 UNL     1      21.535  -0.450  53.888  1.00  0.00    -0.059 A 
HETATM   22  C15 UNL     1      20.896  -1.316  54.239  1.00  0.00     0.034 A 
HETATM   23  C16 UNL     1      22.455  -1.138  54.623  1.00  0.00     0.039 A 
ENDBRANCH  18  21
ENDBRANCH  14  16
ENDBRANCH  13  14
ENDBRANCH   8  13
TORSDOF 5
ENDMDL
MODEL 5
REMARK VINA RESULT:      -7.2      2.960      5.122
REMARK  5 active torsions:
REMARK  status: ('A' for Active; 'I' for Inactive)
REMARK    1  A    between atoms: C8_8  and  C9_9 
REMARK    2  A    between atoms: C9_9  and  C10_10 
REMARK    3  A    between atoms: C10_10  and  N1_12 
REMARK    4  A    between atoms: C13_14  and  C14_15 
REMARK    5  A    between atoms: C16_17  and  C17_18 
ROOT
HETATM    1  C1  UNL     1      26.757  -1.586  52.592  1.00  0.00     0.039 C 
HETATM    2  C2  UNL     1      26.405  -0.096  53.045  1.00  0.00     0.119 C 
HETATM    3  C3  UNL     1      25.311  -0.311  54.038  1.00  0.00     0.032 C 
HETATM    4  C4  UNL     1      23.978  -0.493  53.425  1.00  0.00     0.007 C 
HETATM    5  C5  UNL     1      23.267   0.860  53.118  1.00  0.00     0.036 C 
HETATM    6  C6  UNL     1      24.228   1.709  52.439  1.00  0.00    -0.061 C 
HETATM    7  C7  UNL     1      24.811   2.557  53.517  1.00  0.00     0.045 C 
HETATM    8  C8  UNL     1      24.942   2.469  51.629  1.00  0.00     0.014 C 
HETATM    9  N2  UNL     1      26.327   2.892  51.873  1.00  0.00    -0.371 N 
HETATM   10  C18 UNL     1      26.654   1.563  51.344  1.00  0.00     0.290 C 
HETATM   11  O1  UNL     1      26.050   0.502  51.894  1.00  0.00    -0.367 OA
HETATM   12  H22 UNL     1      26.079   3.827  52.245  1.00  0.00     0.161 HD
ENDROOT
BRANCH   8  13
HETATM   13  C9  UNL     1      24.285   2.666  50.372  1.00  0.00     0.113 C 
BRANCH  13  14
HETATM   14  C10 UNL     1      23.195   3.677  50.394  1.00  0.00     0.005 C 
HETATM   15  C11 UNL     1      23.126   4.840  51.001  1.00  0.00     0.038 C 
BRANCH  14  16
HETATM   16  N1  UNL     1      22.115   3.222  49.604  1.00  0.00    -0.362 N 
HETATM   17  C12 UNL     1      21.255   2.337  50.121  1.00  0.00     0.026 A 
HETATM   18  C13 UNL     1      20.515   1.581  50.564  1.00  0.00    -0.021 A 
HETATM   19  C17 UNL     1      21.493   0.808  49.972  1.00  0.00     0.080 A 
HETATM   20  H18 UNL     1      21.541   3.178  48.751  1.00  0.00     0.165 HD
BRANCH  18  21
HETATM   21  C14 UNL     1      19.850   0.874  50.963  1.00  0.00    -0.059 A 
HETATM   22  C15 UNL     1      19.131   0.124  51.414  1.00  0.00     0.034 A 
HETATM   23  C16 UNL     1      19.661   1.439  52.189  1.00  0.00     0.039 A 
ENDBRANCH  18  21
ENDBRANCH  14  16
ENDBRANCH  13  14
ENDBRANCH   8  13
TORSDOF 5
ENDMDL
MODEL 6
REMARK VINA RESULT:      -7.1      2.923      4.064
REMARK  5 active torsions:
REMARK  status: ('A' for Active; 'I' for Inactive)
REMARK    1  A    between atoms: C8_8  and  C9_9 
REMARK    2  A    between atoms: C9_9  and  C10_10 
REMARK    3  A    between atoms: C10_10  and  N1_12 
REMARK    4  A    between atoms: C13_14  and  C14_15 
REMARK    5  A    between atoms: C16_17  and  C17_18 
ROOT
HETATM    1  C1  UNL     1      23.557  -0.904  53.529  1.00  0.00     0.039 C 
HETATM    2  C2  UNL     1      23.101   0.617  53.366  1.00  0.00     0.119 C 
HETATM    3  C3  UNL     1      21.719   0.483  52.819  1.00  0.00     0.032 C 
HETATM    4  C4  UNL     1      21.676   0.260  51.358  1.00  0.00     0.007 C 
HETATM    5  C5  UNL     1      21.736   1.590  50.546  1.00  0.00     0.036 C 
HETATM    6  C6  UNL     1      22.824   2.381  51.091  1.00  0.00    -0.061 C 
HETATM    7  C7  UNL     1      22.168   3.305  52.059  1.00  0.00     0.045 C 
HETATM    8  C8  UNL     1      23.915   3.074  51.360  1.00  0.00     0.014 C 
HETATM    9  N2  UNL     1      24.328   3.508  52.700  1.00  0.00    -0.371 N 
HETATM   10  C18 UNL     1      24.852   2.142  52.803  1.00  0.00     0.290 C 
HETATM   11  O1  UNL     1      24.022   1.128  52.529  1.00  0.00    -0.367 OA
HETATM   12  H22 UNL     1      23.951   4.470  52.612  1.00  0.00     0.161 HD
ENDROOT
BRANCH   8  13
HETATM   13  C9  UNL     1      24.770   3.179  50.217  1.00  0.00     0.113 C 
BRANCH  13  14
HETATM   14  C10 UNL     1      24.815   4.530  49.597  1.00  0.00     0.005 C 
HETATM   15  C11 UNL     1      23.994   5.103  48.747  1.00  0.00     0.038 C 
BRANCH  14  16
HETATM   16  N1  UNL     1      25.952   5.226  50.068  1.00  0.00    -0.362 N 
HETATM   17  C12 UNL     1      26.745   5.850  49.190  1.00  0.00     0.026 A 
HETATM   18  C13 UNL     1      27.424   6.388  48.438  1.00  0.00    -0.021 A 
HETATM   19  C17 UNL     1      27.952   5.117  48.538  1.00  0.00     0.080 A 
HETATM   20  H18 UNL     1      26.598   5.569  50.791  1.00  0.00     0.165 HD
BRANCH  18  21
HETATM   21  C14 UNL     1      28.056   6.863  47.747  1.00  0.00    -0.059 A 
HETATM   22  C15 UNL     1      28.757   7.363  47.012  1.00  0.00     0.034 A 
HETATM   23  C16 UNL     1      29.241   6.322  48.149  1.00  0.00     0.039 A 
ENDBRANCH  18  21
ENDBRANCH  14  16
ENDBRANCH  13  14
ENDBRANCH   8  13
TORSDOF 5
ENDMDL
MODEL 7
REMARK VINA RESULT:      -7.1      3.522      7.621
REMARK  5 active torsions:
REMARK  status: ('A' for Active; 'I' for Inactive)
REMARK    1  A    between atoms: C8_8  and  C9_9 
REMARK    2  A    between atoms: C9_9  and  C10_10 
REMARK    3  A    between atoms: C10_10  and  N1_12 
REMARK    4  A    between atoms: C13_14  and  C14_15 
REMARK    5  A    between atoms: C16_17  and  C17_18 
ROOT
HETATM    1  C1  UNL     1      20.525   5.615  49.182  1.00  0.00     0.039 C 
HETATM    2  C2  UNL     1      22.043   5.687  49.671  1.00  0.00     0.119 C 
HETATM    3  C3  UNL     1      22.786   5.142  48.497  1.00  0.00     0.032 C 
HETATM    4  C4  UNL     1      22.820   3.664  48.447  1.00  0.00     0.007 C 
HETATM    5  C5  UNL     1      23.974   3.061  49.304  1.00  0.00     0.036 C 
HETATM    6  C6  UNL     1      23.932   3.707  50.603  1.00  0.00    -0.061 C 
HETATM    7  C7  UNL     1      24.929   4.810  50.507  1.00  0.00     0.045 C 
HETATM    8  C8  UNL     1      23.845   4.065  51.871  1.00  0.00     0.014 C 
HETATM    9  N2  UNL     1      23.790   5.450  52.353  1.00  0.00    -0.371 N 
HETATM   10  C18 UNL     1      22.368   5.341  52.012  1.00  0.00     0.290 C 
HETATM   11  O1  UNL     1      22.047   4.926  50.780  1.00  0.00    -0.367 OA
HETATM   12  H22 UNL     1      24.798   5.511  52.588  1.00  0.00     0.161 HD
ENDROOT
BRANCH   8  13
HETATM   13  C9  UNL     1      23.595   2.941  52.722  1.00  0.00     0.113 C 
BRANCH  13  14
HETATM   14  C10 UNL     1      24.788   2.099  53.003  1.00  0.00     0.005 C 
HETATM   15  C11 UNL     1      25.925   2.403  53.587  1.00  0.00     0.038 C 
BRANCH  14  16
HETATM   16  N1  UNL     1      24.557   0.785  52.536  1.00  0.00    -0.362 N 
HETATM   17  C12 UNL     1      23.557   0.071  53.064  1.00  0.00     0.026 A 
HETATM   18  C13 UNL     1      22.696  -0.541  53.513  1.00  0.00    -0.021 A 
HETATM   19  C17 UNL     1      23.787  -0.835  54.307  1.00  0.00     0.080 A 
HETATM   20  H18 UNL     1      24.744  -0.039  51.948  1.00  0.00     0.165 HD
BRANCH  18  21
HETATM   21  C14 UNL     1      21.922  -1.108  53.939  1.00  0.00    -0.059 A 
HETATM   22  C15 UNL     1      21.078  -1.699  54.407  1.00  0.00     0.034 A 
HETATM   23  C16 UNL     1      21.264  -0.103  54.584  1.00  0.00     0.039 A 
ENDBRANCH  18  21
ENDBRANCH  14  16
ENDBRANCH  13  14
ENDBRANCH   8  13
TORSDOF 5
ENDMDL
MODEL 8
REMARK VINA RESULT:      -7.0      2.186      4.098
REMARK  5 active torsions:
REMARK  status: ('A' for Active; 'I' for Inactive)
REMARK    1  A    between atoms: C8_8  and  C9_9 
REMARK    2  A    between atoms: C9_9  and  C10_10 
REMARK    3  A    between atoms: C10_10  and  N1_12 
REMARK    4  A    between atoms: C13_14  and  C14_15 
REMARK    5  A    between atoms: C16_17  and  C17_18 
ROOT
HETATM    1  C1  UNL     1      26.786  -1.897  52.571  1.00  0.00     0.039 C 
HETATM    2  C2  UNL     1      26.573  -0.427  53.158  1.00  0.00     0.119 C 
HETATM    3  C3  UNL     1      25.385  -0.603  54.044  1.00  0.00     0.032 C 
HETATM    4  C4  UNL     1      24.094  -0.557  53.324  1.00  0.00     0.007 C 
HETATM    5  C5  UNL     1      23.572   0.898  53.118  1.00  0.00     0.036 C 
HETATM    6  C6  UNL     1      24.678   1.685  52.603  1.00  0.00    -0.061 C 
HETATM    7  C7  UNL     1      25.265   2.342  53.805  1.00  0.00     0.045 C 
HETATM    8  C8  UNL     1      25.540   2.427  51.932  1.00  0.00     0.014 C 
HETATM    9  N2  UNL     1      26.939   2.649  52.317  1.00  0.00    -0.371 N 
HETATM   10  C18 UNL     1      27.152   1.349  51.670  1.00  0.00     0.290 C 
HETATM   11  O1  UNL     1      26.386   0.322  52.057  1.00  0.00    -0.367 OA
HETATM   12  H22 UNL     1      26.772   3.565  52.770  1.00  0.00     0.161 HD
ENDROOT
BRANCH   8  13
HETATM   13  C9  UNL     1      25.015   2.829  50.662  1.00  0.00     0.113 C 
BRANCH  13  14
HETATM   14  C10 UNL     1      25.201   4.269  50.341  1.00  0.00     0.005 C 
HETATM   15  C11 UNL     1      25.965   4.848  49.443  1.00  0.00     0.038 C 
BRANCH  14  16
HETATM   16  N1  UNL     1      24.380   5.050  51.186  1.00  0.00    -0.362 N 
HETATM   17  C12 UNL     1      23.075   4.767  51.271  1.00  0.00     0.026 A 
HETATM   18  C13 UNL     1      21.957   4.523  51.347  1.00  0.00    -0.021 A 
HETATM   19  C17 UNL     1      22.047   5.434  50.313  1.00  0.00     0.080 A 
HETATM   20  H18 UNL     1      24.190   5.806  51.857  1.00  0.00     0.165 HD
BRANCH  18  21
HETATM   21  C14 UNL     1      20.930   4.313  51.400  1.00  0.00    -0.059 A 
HETATM   22  C15 UNL     1      19.827   4.063  51.462  1.00  0.00     0.034 A 
HETATM   23  C16 UNL     1      21.007   2.970  51.622  1.00  0.00     0.039 A 
ENDBRANCH  18  21
ENDBRANCH  14  16
ENDBRANCH  13  14
ENDBRANCH   8  13
TORSDOF 5
ENDMDL
MODEL 9
REMARK VINA RESULT:      -6.9      3.400      7.078
REMARK  5 active torsions:
REMARK  status: ('A' for Active; 'I' for Inactive)
REMARK    1  A    between atoms: C8_8  and  C9_9 
REMARK    2  A    between atoms: C9_9  and  C10_10 
REMARK    3  A    between atoms: C10_10  and  N1_12 
REMARK    4  A    between atoms: C13_14  and  C14_15 
REMARK    5  A    between atoms: C16_17  and  C17_18 
ROOT
HETATM    1  C1  UNL     1      18.972   4.126  50.012  1.00  0.00     0.039 C 
HETATM    2  C2  UNL     1      20.221   3.671  49.127  1.00  0.00     0.119 C 
HETATM    3  C3  UNL     1      20.088   2.184  49.122  1.00  0.00     0.032 C 
HETATM    4  C4  UNL     1      20.641   1.533  50.329  1.00  0.00     0.007 C 
HETATM    5  C5  UNL     1      22.175   1.274  50.223  1.00  0.00     0.036 C 
HETATM    6  C6  UNL     1      22.790   2.504  49.759  1.00  0.00    -0.061 C 
HETATM    7  C7  UNL     1      22.920   2.328  48.285  1.00  0.00     0.045 C 
HETATM    8  C8  UNL     1      23.466   3.621  49.559  1.00  0.00     0.014 C 
HETATM    9  N2  UNL     1      23.231   4.561  48.457  1.00  0.00    -0.371 N 
HETATM   10  C18 UNL     1      22.157   5.057  49.325  1.00  0.00     0.290 C 
HETATM   11  O1  UNL     1      21.274   4.169  49.800  1.00  0.00    -0.367 OA
HETATM   12  H22 UNL     1      23.994   4.200  47.856  1.00  0.00     0.161 HD
ENDROOT
BRANCH   8  13
HETATM   13  C9  UNL     1      24.324   3.924  50.664  1.00  0.00     0.113 C 
BRANCH  13  14
HETATM   14  C10 UNL     1      25.716   3.420  50.526  1.00  0.00     0.005 C 
HETATM   15  C11 UNL     1      26.498   3.362  49.472  1.00  0.00     0.038 C 
BRANCH  14  16
HETATM   16  N1  UNL     1      26.177   2.962  51.781  1.00  0.00    -0.362 N 
HETATM   17  C12 UNL     1      26.381   1.653  51.963  1.00  0.00     0.026 A 
HETATM   18  C13 UNL     1      26.560   0.530  52.120  1.00  0.00    -0.021 A 
HETATM   19  C17 UNL     1      25.245   0.730  52.488  1.00  0.00     0.080 A 
HETATM   20  H18 UNL     1      26.484   3.076  52.756  1.00  0.00     0.165 HD
BRANCH  18  21
HETATM   21  C14 UNL     1      26.703  -0.499  52.269  1.00  0.00    -0.059 A 
HETATM   22  C15 UNL     1      26.837  -1.609  52.442  1.00  0.00     0.034 A 
HETATM   23  C16 UNL     1      25.614  -0.746  53.050  1.00  0.00     0.039 A 
ENDBRANCH  18  21
ENDBRANCH  14  16
ENDBRANCH  13  14
ENDBRANCH   8  13
TORSDOF 5
ENDMDL
