MODEL 1
REMARK VINA RESULT:      -7.9      0.000      0.000
REMARK  6 active torsions:
REMARK  status: ('A' for Active; 'I' for Inactive)
REMARK    1  A    between atoms: S1_2  and  N1_4 
REMARK    2  A    between atoms: S1_2  and  C9_15 
REMARK    3  A    between atoms: N1_4  and  O3_5 
REMARK    4  A    between atoms: O3_5  and  C1_6 
REMARK    5  A    between atoms: C1_6  and  C2_7 
REMARK    6  A    between atoms: C2_7  and  C3_8 
ROOT
HETATM    1  N1  UNL     1      26.129   2.067  54.177  1.00  0.00    -0.188 N 
HETATM    2  H1  UNL     1      25.815   1.331  54.804  1.00  0.00     0.207 HD
ENDROOT
BRANCH   1   3
HETATM    3  S1  UNL     1      27.632   1.880  53.411  1.00  0.00     0.281 S 
HETATM    4  O1  UNL     1      27.583   2.526  52.038  1.00  0.00    -0.199 OA
HETATM    5  O2  UNL     1      28.683   2.600  54.209  1.00  0.00    -0.199 OA
BRANCH   3   6
HETATM    6  C9  UNL     1      28.122   0.208  53.289  1.00  0.00     0.081 A 
HETATM    7  C10 UNL     1      27.213  -0.722  52.795  1.00  0.00     0.025 A 
HETATM    8  C11 UNL     1      27.663  -2.028  52.724  1.00  0.00     0.002 A 
HETATM    9  C12 UNL     1      28.919  -2.480  53.095  1.00  0.00     0.000 A 
HETATM   10  C13 UNL     1      29.810  -1.527  53.586  1.00  0.00     0.002 A 
HETATM   11  C14 UNL     1      29.383  -0.199  53.669  1.00  0.00     0.025 A 
ENDBRANCH   3   6
ENDBRANCH   1   3
BRANCH   1  12
HETATM   12  O3  UNL     1      25.260   2.857  53.601  1.00  0.00    -0.270 OA
BRANCH  12  13
HETATM   13  C1  UNL     1      24.250   2.280  52.896  1.00  0.00     0.206 C 
BRANCH  13  14
HETATM   14  C2  UNL     1      23.939   0.846  53.236  1.00  0.00     0.067 C 
BRANCH  14  15
HETATM   15  C3  UNL     1      22.522   0.506  53.070  1.00  0.00    -0.056 A 
HETATM   16  C4  UNL     1      21.682   0.065  54.077  1.00  0.00     0.008 A 
HETATM   17  C5  UNL     1      20.345  -0.240  53.852  1.00  0.00     0.019 A 
HETATM   18  C6  UNL     1      19.837  -0.101  52.587  1.00  0.00     0.011 A 
HETATM   19 BR1  UNL     1      18.000  -0.515  52.249  1.00  0.00    -0.051 Br
HETATM   20  C7  UNL     1      20.661   0.336  51.581  1.00  0.00     0.019 A 
HETATM   21  C8  UNL     1      21.988   0.643  51.786  1.00  0.00     0.008 A 
ENDBRANCH  14  15
ENDBRANCH  13  14
ENDBRANCH  12  13
ENDBRANCH   1  12
TORSDOF 6
ENDMDL
MODEL 2
REMARK VINA RESULT:      -7.5      4.362      5.712
REMARK  6 active torsions:
REMARK  status: ('A' for Active; 'I' for Inactive)
REMARK    1  A    between atoms: S1_2  and  N1_4 
REMARK    2  A    between atoms: S1_2  and  C9_15 
REMARK    3  A    between atoms: N1_4  and  O3_5 
REMARK    4  A    between atoms: O3_5  and  C1_6 
REMARK    5  A    between atoms: C1_6  and  C2_7 
REMARK    6  A    between atoms: C2_7  and  C3_8 
ROOT
HETATM    1  N1  UNL     1      25.401   1.459  52.115  1.00  0.00    -0.188 N 
HETATM    2  H1  UNL     1      25.376   1.063  51.178  1.00  0.00     0.207 HD
ENDROOT
BRANCH   1   3
HETATM    3  S1  UNL     1      26.891   1.511  52.925  1.00  0.00     0.281 S 
HETATM    4  O1  UNL     1      27.801   2.516  52.243  1.00  0.00    -0.199 OA
HETATM    5  O2  UNL     1      26.669   1.988  54.332  1.00  0.00    -0.199 OA
BRANCH   3   6
HETATM    6  C9  UNL     1      27.661  -0.054  53.019  1.00  0.00     0.081 A 
HETATM    7  C10 UNL     1      28.980  -0.126  53.455  1.00  0.00     0.025 A 
HETATM    8  C11 UNL     1      29.532  -1.394  53.507  1.00  0.00     0.002 A 
HETATM    9  C12 UNL     1      28.894  -2.576  53.166  1.00  0.00     0.000 A 
HETATM   10  C13 UNL     1      27.573  -2.474  52.732  1.00  0.00     0.002 A 
HETATM   11  C14 UNL     1      26.989  -1.206  52.670  1.00  0.00     0.025 A 
ENDBRANCH   3   6
ENDBRANCH   1   3
BRANCH   1  12
HETATM   12  O3  UNL     1      24.485   2.314  52.492  1.00  0.00    -0.270 OA
BRANCH  12  13
HETATM   13  C1  UNL     1      24.211   3.355  51.660  1.00  0.00     0.206 C 
BRANCH  13  14
HETATM   14  C2  UNL     1      24.464   3.118  50.195  1.00  0.00     0.067 C 
BRANCH  14  15
HETATM   15  C3  UNL     1      25.428   4.059  49.615  1.00  0.00    -0.056 A 
HETATM   16  C4  UNL     1      26.740   3.763  49.289  1.00  0.00     0.008 A 
HETATM   17  C5  UNL     1      27.603   4.704  48.740  1.00  0.00     0.019 A 
HETATM   18  C6  UNL     1      27.140   5.974  48.512  1.00  0.00     0.011 A 
HETATM   19 BR1  UNL     1      28.307   7.289  47.758  1.00  0.00    -0.051 Br
HETATM   20  C7  UNL     1      25.841   6.278  48.831  1.00  0.00     0.019 A 
HETATM   21  C8  UNL     1      24.972   5.358  49.375  1.00  0.00     0.008 A 
ENDBRANCH  14  15
ENDBRANCH  13  14
ENDBRANCH  12  13
ENDBRANCH   1  12
TORSDOF 6
ENDMDL
MODEL 3
REMARK VINA RESULT:      -7.3      1.697      2.848
REMARK  6 active torsions:
REMARK  status: ('A' for Active; 'I' for Inactive)
REMARK    1  A    between atoms: S1_2  and  N1_4 
REMARK    2  A    between atoms: S1_2  and  C9_15 
REMARK    3  A    between atoms: N1_4  and  O3_5 
REMARK    4  A    between atoms: O3_5  and  C1_6 
REMARK    5  A    between atoms: C1_6  and  C2_7 
REMARK    6  A    between atoms: C2_7  and  C3_8 
ROOT
HETATM    1  N1  UNL     1      27.490   2.780  52.002  1.00  0.00    -0.188 N 
HETATM    2  H1  UNL     1      27.678   3.780  51.991  1.00  0.00     0.207 HD
ENDROOT
BRANCH   1   3
HETATM    3  S1  UNL     1      27.661   1.949  53.472  1.00  0.00     0.281 S 
HETATM    4  O1  UNL     1      28.798   2.564  54.270  1.00  0.00    -0.199 OA
HETATM    5  O2  UNL     1      26.405   2.115  54.280  1.00  0.00    -0.199 OA
BRANCH   3   6
HETATM    6  C9  UNL     1      27.919   0.236  53.251  1.00  0.00     0.081 A 
HETATM    7  C10 UNL     1      29.168  -0.298  53.553  1.00  0.00     0.025 A 
HETATM    8  C11 UNL     1      29.307  -1.660  53.357  1.00  0.00     0.002 A 
HETATM    9  C12 UNL     1      28.326  -2.522  52.892  1.00  0.00     0.000 A 
HETATM   10  C13 UNL     1      27.085  -1.960  52.598  1.00  0.00     0.002 A 
HETATM   11  C14 UNL     1      26.915  -0.586  52.787  1.00  0.00     0.025 A 
ENDBRANCH   3   6
ENDBRANCH   1   3
BRANCH   1  12
HETATM   12  O3  UNL     1      26.703   2.248  51.103  1.00  0.00    -0.270 OA
BRANCH  12  13
HETATM   13  C1  UNL     1      26.239   3.055  50.111  1.00  0.00     0.206 C 
BRANCH  13  14
HETATM   14  C2  UNL     1      24.953   3.785  50.396  1.00  0.00     0.067 C 
BRANCH  14  15
HETATM   15  C3  UNL     1      23.875   2.900  50.849  1.00  0.00    -0.056 A 
HETATM   16  C4  UNL     1      23.031   2.179  50.023  1.00  0.00     0.008 A 
HETATM   17  C5  UNL     1      22.026   1.356  50.518  1.00  0.00     0.019 A 
HETATM   18  C6  UNL     1      21.861   1.254  51.875  1.00  0.00     0.011 A 
HETATM   19 BR1  UNL     1      20.486   0.130  52.584  1.00  0.00    -0.051 Br
HETATM   20  C7  UNL     1      22.692   1.965  52.704  1.00  0.00     0.019 A 
HETATM   21  C8  UNL     1      23.693   2.785  52.230  1.00  0.00     0.008 A 
ENDBRANCH  14  15
ENDBRANCH  13  14
ENDBRANCH  12  13
ENDBRANCH   1  12
TORSDOF 6
ENDMDL
MODEL 4
REMARK VINA RESULT:      -7.3      4.888      6.769
REMARK  6 active torsions:
REMARK  status: ('A' for Active; 'I' for Inactive)
REMARK    1  A    between atoms: S1_2  and  N1_4 
REMARK    2  A    between atoms: S1_2  and  C9_15 
REMARK    3  A    between atoms: N1_4  and  O3_5 
REMARK    4  A    between atoms: O3_5  and  C1_6 
REMARK    5  A    between atoms: C1_6  and  C2_7 
REMARK    6  A    between atoms: C2_7  and  C3_8 
ROOT
HETATM    1  N1  UNL     1      26.897   0.811  52.026  1.00  0.00    -0.188 N 
HETATM    2  H1  UNL     1      27.158   0.094  51.354  1.00  0.00     0.207 HD
ENDROOT
BRANCH   1   3
HETATM    3  S1  UNL     1      26.638   0.345  53.637  1.00  0.00     0.281 S 
HETATM    4  O1  UNL     1      27.614  -0.758  54.007  1.00  0.00    -0.199 OA
HETATM    5  O2  UNL     1      26.919   1.514  54.538  1.00  0.00    -0.199 OA
BRANCH   3   6
HETATM    6  C9  UNL     1      24.993  -0.162  53.935  1.00  0.00     0.081 A 
HETATM    7  C10 UNL     1      24.003   0.213  53.034  1.00  0.00     0.025 A 
HETATM    8  C11 UNL     1      22.722  -0.220  53.327  1.00  0.00     0.002 A 
HETATM    9  C12 UNL     1      22.349  -0.982  54.423  1.00  0.00     0.000 A 
HETATM   10  C13 UNL     1      23.362  -1.343  55.310  1.00  0.00     0.002 A 
HETATM   11  C14 UNL     1      24.666  -0.920  55.039  1.00  0.00     0.025 A 
ENDBRANCH   3   6
ENDBRANCH   1   3
BRANCH   1  12
HETATM   12  O3  UNL     1      27.215   2.062  51.810  1.00  0.00    -0.270 OA
BRANCH  12  13
HETATM   13  C1  UNL     1      26.334   2.826  51.109  1.00  0.00     0.206 C 
BRANCH  13  14
HETATM   14  C2  UNL     1      26.578   2.929  49.627  1.00  0.00     0.067 C 
BRANCH  14  15
HETATM   15  C3  UNL     1      26.717   4.311  49.158  1.00  0.00    -0.056 A 
HETATM   16  C4  UNL     1      27.873   4.869  48.643  1.00  0.00     0.008 A 
HETATM   17  C5  UNL     1      27.938   6.190  48.215  1.00  0.00     0.019 A 
HETATM   18  C6  UNL     1      26.816   6.972  48.306  1.00  0.00     0.011 A 
HETATM   19 BR1  UNL     1      26.876   8.793  47.725  1.00  0.00    -0.051 Br
HETATM   20  C7  UNL     1      25.663   6.429  48.815  1.00  0.00     0.019 A 
HETATM   21  C8  UNL     1      25.581   5.122  49.243  1.00  0.00     0.008 A 
ENDBRANCH  14  15
ENDBRANCH  13  14
ENDBRANCH  12  13
ENDBRANCH   1  12
TORSDOF 6
ENDMDL
MODEL 5
REMARK VINA RESULT:      -7.1      3.092      4.155
REMARK  6 active torsions:
REMARK  status: ('A' for Active; 'I' for Inactive)
REMARK    1  A    between atoms: S1_2  and  N1_4 
REMARK    2  A    between atoms: S1_2  and  C9_15 
REMARK    3  A    between atoms: N1_4  and  O3_5 
REMARK    4  A    between atoms: O3_5  and  C1_6 
REMARK    5  A    between atoms: C1_6  and  C2_7 
REMARK    6  A    between atoms: C2_7  and  C3_8 
ROOT
HETATM    1  N1  UNL     1      25.242  -0.938  53.965  1.00  0.00    -0.188 N 
HETATM    2  H1  UNL     1      25.143  -1.616  53.214  1.00  0.00     0.207 HD
ENDROOT
BRANCH   1   3
HETATM    3  S1  UNL     1      26.182   0.445  53.678  1.00  0.00     0.281 S 
HETATM    4  O1  UNL     1      26.698   0.988  54.998  1.00  0.00    -0.199 OA
HETATM    5  O2  UNL     1      27.377   0.064  52.851  1.00  0.00    -0.199 OA
BRANCH   3   6
HETATM    6  C9  UNL     1      25.312   1.680  52.801  1.00  0.00     0.081 A 
HETATM    7  C10 UNL     1      25.386   1.694  51.413  1.00  0.00     0.025 A 
HETATM    8  C11 UNL     1      24.675   2.697  50.779  1.00  0.00     0.002 A 
HETATM    9  C12 UNL     1      23.910   3.672  51.399  1.00  0.00     0.000 A 
HETATM   10  C13 UNL     1      23.853   3.635  52.791  1.00  0.00     0.002 A 
HETATM   11  C14 UNL     1      24.561   2.632  53.459  1.00  0.00     0.025 A 
ENDBRANCH   3   6
ENDBRANCH   1   3
BRANCH   1  12
HETATM   12  O3  UNL     1      24.335  -0.859  54.905  1.00  0.00    -0.270 OA
BRANCH  12  13
HETATM   13  C1  UNL     1      23.028  -0.874  54.525  1.00  0.00     0.206 C 
BRANCH  13  14
HETATM   14  C2  UNL     1      22.768  -1.024  53.049  1.00  0.00     0.067 C 
BRANCH  14  15
HETATM   15  C3  UNL     1      21.965   0.068  52.490  1.00  0.00    -0.056 A 
HETATM   16  C4  UNL     1      21.829   0.353  51.142  1.00  0.00     0.008 A 
HETATM   17  C5  UNL     1      21.050   1.406  50.677  1.00  0.00     0.019 A 
HETATM   18  C6  UNL     1      20.392   2.195  51.584  1.00  0.00     0.011 A 
HETATM   19 BR1  UNL     1      19.314   3.651  50.972  1.00  0.00    -0.051 Br
HETATM   20  C7  UNL     1      20.520   1.922  52.923  1.00  0.00     0.019 A 
HETATM   21  C8  UNL     1      21.287   0.882  53.401  1.00  0.00     0.008 A 
ENDBRANCH  14  15
ENDBRANCH  13  14
ENDBRANCH  12  13
ENDBRANCH   1  12
TORSDOF 6
ENDMDL
MODEL 6
REMARK VINA RESULT:      -7.1      3.975      6.738
REMARK  6 active torsions:
REMARK  status: ('A' for Active; 'I' for Inactive)
REMARK    1  A    between atoms: S1_2  and  N1_4 
REMARK    2  A    between atoms: S1_2  and  C9_15 
REMARK    3  A    between atoms: N1_4  and  O3_5 
REMARK    4  A    between atoms: O3_5  and  C1_6 
REMARK    5  A    between atoms: C1_6  and  C2_7 
REMARK    6  A    between atoms: C2_7  and  C3_8 
ROOT
HETATM    1  N1  UNL     1      22.082   2.858  50.981  1.00  0.00    -0.188 N 
HETATM    2  H1  UNL     1      22.327   2.422  50.095  1.00  0.00     0.207 HD
ENDROOT
BRANCH   1   3
HETATM    3  S1  UNL     1      20.791   2.205  51.868  1.00  0.00     0.281 S 
HETATM    4  O1  UNL     1      20.175   3.289  52.733  1.00  0.00    -0.199 OA
HETATM    5  O2  UNL     1      19.730   1.733  50.915  1.00  0.00    -0.199 OA
BRANCH   3   6
HETATM    6  C9  UNL     1      21.268   0.836  52.841  1.00  0.00     0.081 A 
HETATM    7  C10 UNL     1      20.857   0.782  54.169  1.00  0.00     0.025 A 
HETATM    8  C11 UNL     1      21.267  -0.328  54.885  1.00  0.00     0.002 A 
HETATM    9  C12 UNL     1      22.039  -1.372  54.400  1.00  0.00     0.000 A 
HETATM   10  C13 UNL     1      22.437  -1.293  53.067  1.00  0.00     0.002 A 
HETATM   11  C14 UNL     1      22.037  -0.183  52.318  1.00  0.00     0.025 A 
ENDBRANCH   3   6
ENDBRANCH   1   3
BRANCH   1  12
HETATM   12  O3  UNL     1      22.976   3.545  51.644  1.00  0.00    -0.270 OA
BRANCH  12  13
HETATM   13  C1  UNL     1      24.204   2.984  51.818  1.00  0.00     0.206 C 
BRANCH  13  14
HETATM   14  C2  UNL     1      24.508   2.470  53.201  1.00  0.00     0.067 C 
BRANCH  14  15
HETATM   15  C3  UNL     1      25.740   1.678  53.265  1.00  0.00    -0.056 A 
HETATM   16  C4  UNL     1      27.024   2.186  53.180  1.00  0.00     0.008 A 
HETATM   17  C5  UNL     1      28.153   1.377  53.249  1.00  0.00     0.019 A 
HETATM   18  C6  UNL     1      27.991   0.025  53.405  1.00  0.00     0.011 A 
HETATM   19 BR1  UNL     1      29.526  -1.111  53.502  1.00  0.00    -0.051 Br
HETATM   20  C7  UNL     1      26.722  -0.490  53.490  1.00  0.00     0.019 A 
HETATM   21  C8  UNL     1      25.593   0.297  53.425  1.00  0.00     0.008 A 
ENDBRANCH  14  15
ENDBRANCH  13  14
ENDBRANCH  12  13
ENDBRANCH   1  12
TORSDOF 6
ENDMDL
MODEL 7
REMARK VINA RESULT:      -7.0      4.487      6.427
REMARK  6 active torsions:
REMARK  status: ('A' for Active; 'I' for Inactive)
REMARK    1  A    between atoms: S1_2  and  N1_4 
REMARK    2  A    between atoms: S1_2  and  C9_15 
REMARK    3  A    between atoms: N1_4  and  O3_5 
REMARK    4  A    between atoms: O3_5  and  C1_6 
REMARK    5  A    between atoms: C1_6  and  C2_7 
REMARK    6  A    between atoms: C2_7  and  C3_8 
ROOT
HETATM    1  N1  UNL     1      21.072   2.266  50.552  1.00  0.00    -0.188 N 
HETATM    2  H1  UNL     1      21.395   1.468  50.011  1.00  0.00     0.207 HD
ENDROOT
BRANCH   1   3
HETATM    3  S1  UNL     1      20.376   1.975  52.072  1.00  0.00     0.281 S 
HETATM    4  O1  UNL     1      20.256   3.284  52.831  1.00  0.00    -0.199 OA
HETATM    5  O2  UNL     1      18.986   1.438  51.881  1.00  0.00    -0.199 OA
BRANCH   3   6
HETATM    6  C9  UNL     1      21.267   0.799  53.007  1.00  0.00     0.081 A 
HETATM    7  C10 UNL     1      20.759   0.398  54.238  1.00  0.00     0.025 A 
HETATM    8  C11 UNL     1      21.512  -0.535  54.928  1.00  0.00     0.002 A 
HETATM    9  C12 UNL     1      22.708  -1.093  54.505  1.00  0.00     0.000 A 
HETATM   10  C13 UNL     1      23.194  -0.673  53.268  1.00  0.00     0.002 A 
HETATM   11  C14 UNL     1      22.454   0.269  52.548  1.00  0.00     0.025 A 
ENDBRANCH   3   6
ENDBRANCH   1   3
BRANCH   1  12
HETATM   12  O3  UNL     1      21.586   3.452  50.348  1.00  0.00    -0.270 OA
BRANCH  12  13
HETATM   13  C1  UNL     1      22.942   3.563  50.357  1.00  0.00     0.206 C 
BRANCH  13  14
HETATM   14  C2  UNL     1      23.565   3.975  51.665  1.00  0.00     0.067 C 
BRANCH  14  15
HETATM   15  C3  UNL     1      24.577   3.029  52.146  1.00  0.00    -0.056 A 
HETATM   16  C4  UNL     1      24.872   2.780  53.475  1.00  0.00     0.008 A 
HETATM   17  C5  UNL     1      25.845   1.867  53.864  1.00  0.00     0.019 A 
HETATM   18  C6  UNL     1      26.542   1.188  52.899  1.00  0.00     0.011 A 
HETATM   19 BR1  UNL     1      27.887  -0.073  53.407  1.00  0.00    -0.051 Br
HETATM   20  C7  UNL     1      26.258   1.427  51.578  1.00  0.00     0.019 A 
HETATM   21  C8  UNL     1      25.296   2.328  51.174  1.00  0.00     0.008 A 
ENDBRANCH  14  15
ENDBRANCH  13  14
ENDBRANCH  12  13
ENDBRANCH   1  12
TORSDOF 6
ENDMDL
MODEL 8
REMARK VINA RESULT:      -7.0      2.790      4.149
REMARK  6 active torsions:
REMARK  status: ('A' for Active; 'I' for Inactive)
REMARK    1  A    between atoms: S1_2  and  N1_4 
REMARK    2  A    between atoms: S1_2  and  C9_15 
REMARK    3  A    between atoms: N1_4  and  O3_5 
REMARK    4  A    between atoms: O3_5  and  C1_6 
REMARK    5  A    between atoms: C1_6  and  C2_7 
REMARK    6  A    between atoms: C2_7  and  C3_8 
ROOT
HETATM    1  N1  UNL     1      26.902   0.774  52.323  1.00  0.00    -0.188 N 
HETATM    2  H1  UNL     1      27.533   0.256  51.717  1.00  0.00     0.207 HD
ENDROOT
BRANCH   1   3
HETATM    3  S1  UNL     1      26.603   0.165  53.879  1.00  0.00     0.281 S 
HETATM    4  O1  UNL     1      27.542  -0.996  54.155  1.00  0.00    -0.199 OA
HETATM    5  O2  UNL     1      26.901   1.234  54.891  1.00  0.00    -0.199 OA
BRANCH   3   6
HETATM    6  C9  UNL     1      24.941  -0.321  54.104  1.00  0.00     0.081 A 
HETATM    7  C10 UNL     1      24.600  -1.033  55.249  1.00  0.00     0.025 A 
HETATM    8  C11 UNL     1      23.268  -1.387  55.368  1.00  0.00     0.002 A 
HETATM    9  C12 UNL     1      22.263  -1.099  54.459  1.00  0.00     0.000 A 
HETATM   10  C13 UNL     1      22.632  -0.384  53.320  1.00  0.00     0.002 A 
HETATM   11  C14 UNL     1      23.971  -0.012  53.174  1.00  0.00     0.025 A 
ENDBRANCH   3   6
ENDBRANCH   1   3
BRANCH   1  12
HETATM   12  O3  UNL     1      26.715   2.055  52.137  1.00  0.00    -0.270 OA
BRANCH  12  13
HETATM   13  C1  UNL     1      26.490   2.484  50.866  1.00  0.00     0.206 C 
BRANCH  13  14
HETATM   14  C2  UNL     1      25.489   3.597  50.708  1.00  0.00     0.067 C 
BRANCH  14  15
HETATM   15  C3  UNL     1      24.104   3.163  50.914  1.00  0.00    -0.056 A 
HETATM   16  C4  UNL     1      23.394   2.324  50.072  1.00  0.00     0.008 A 
HETATM   17  C5  UNL     1      22.080   1.950  50.326  1.00  0.00     0.019 A 
HETATM   18  C6  UNL     1      21.461   2.427  51.452  1.00  0.00     0.011 A 
HETATM   19 BR1  UNL     1      19.652   1.928  51.826  1.00  0.00    -0.051 Br
HETATM   20  C7  UNL     1      22.154   3.259  52.294  1.00  0.00     0.019 A 
HETATM   21  C8  UNL     1      23.457   3.640  52.058  1.00  0.00     0.008 A 
ENDBRANCH  14  15
ENDBRANCH  13  14
ENDBRANCH  12  13
ENDBRANCH   1  12
TORSDOF 6
ENDMDL
MODEL 9
REMARK VINA RESULT:      -6.9      5.050      6.935
REMARK  6 active torsions:
REMARK  status: ('A' for Active; 'I' for Inactive)
REMARK    1  A    between atoms: S1_2  and  N1_4 
REMARK    2  A    between atoms: S1_2  and  C9_15 
REMARK    3  A    between atoms: N1_4  and  O3_5 
REMARK    4  A    between atoms: O3_5  and  C1_6 
REMARK    5  A    between atoms: C1_6  and  C2_7 
REMARK    6  A    between atoms: C2_7  and  C3_8 
ROOT
HETATM    1  N1  UNL     1      24.344   4.954  51.623  1.00  0.00    -0.188 N 
HETATM    2  H1  UNL     1      25.133   5.291  52.169  1.00  0.00     0.207 HD
ENDROOT
BRANCH   1   3
HETATM    3  S1  UNL     1      24.285   5.342  49.972  1.00  0.00     0.281 S 
HETATM    4  O1  UNL     1      23.556   4.244  49.221  1.00  0.00    -0.199 OA
HETATM    5  O2  UNL     1      23.497   6.609  49.793  1.00  0.00    -0.199 OA
BRANCH   3   6
HETATM    6  C9  UNL     1      25.869   5.610  49.287  1.00  0.00     0.081 A 
HETATM    7  C10 UNL     1      26.721   4.523  49.123  1.00  0.00     0.025 A 
HETATM    8  C11 UNL     1      27.960   4.802  48.576  1.00  0.00     0.002 A 
HETATM    9  C12 UNL     1      28.417   6.050  48.184  1.00  0.00     0.000 A 
HETATM   10  C13 UNL     1      27.543   7.122  48.360  1.00  0.00     0.002 A 
HETATM   11  C14 UNL     1      26.284   6.870  48.910  1.00  0.00     0.025 A 
ENDBRANCH   3   6
ENDBRANCH   1   3
BRANCH   1  12
HETATM   12  O3  UNL     1      23.678   3.897  52.013  1.00  0.00    -0.270 OA
BRANCH  12  13
HETATM   13  C1  UNL     1      24.185   3.178  53.050  1.00  0.00     0.206 C 
BRANCH  13  14
HETATM   14  C2  UNL     1      24.259   1.687  52.849  1.00  0.00     0.067 C 
BRANCH  14  15
HETATM   15  C3  UNL     1      25.606   1.143  53.049  1.00  0.00    -0.056 A 
HETATM   16  C4  UNL     1      26.691   1.850  53.538  1.00  0.00     0.008 A 
HETATM   17  C5  UNL     1      27.944   1.273  53.704  1.00  0.00     0.019 A 
HETATM   18  C6  UNL     1      28.116  -0.045  53.371  1.00  0.00     0.011 A 
HETATM   19 BR1  UNL     1      29.831  -0.865  53.589  1.00  0.00    -0.051 Br
HETATM   20  C7  UNL     1      27.048  -0.756  52.886  1.00  0.00     0.019 A 
HETATM   21  C8  UNL     1      25.799  -0.200  52.716  1.00  0.00     0.008 A 
ENDBRANCH  14  15
ENDBRANCH  13  14
ENDBRANCH  12  13
ENDBRANCH   1  12
TORSDOF 6
ENDMDL
