MODEL 1
REMARK VINA RESULT:      -7.3      0.000      0.000
REMARK  6 active torsions:
REMARK  status: ('A' for Active; 'I' for Inactive)
REMARK    1  A    between atoms: C2_2  and  N1_3 
REMARK    2  A    between atoms: C7_9  and  N3_10 
REMARK    3  A    between atoms: C11_15  and  N5_16 
REMARK    4  A    between atoms: N5_16  and  C12_17 
REMARK    5  A    between atoms: C12_17  and  C13_18 
REMARK    6  A    between atoms: C14_19  and  P1_20 
ROOT
HETATM    1  N1  UNL     1      23.011   0.008  53.277  1.00  0.00    -0.337 N 
HETATM    2  C3  UNL     1      23.977  -0.526  54.224  1.00  0.00     0.204 C 
HETATM    3  N2  UNL     1      24.651  -0.498  53.162  1.00  0.00    -0.279 NA
HETATM    4  C4  UNL     1      26.018  -0.959  53.248  1.00  0.00     0.111 C 
HETATM    5  C5  UNL     1      26.680  -0.434  54.508  1.00  0.00     0.029 C 
HETATM    6  C6  UNL     1      27.945   0.318  54.237  1.00  0.00     0.039 C 
HETATM    7  C7  UNL     1      27.864   1.457  53.272  1.00  0.00     0.240 C 
HETATM    8  C8  UNL     1      26.654   1.176  52.384  1.00  0.00     0.111 C 
HETATM    9  C9  UNL     1      26.779  -0.297  52.059  1.00  0.00     0.054 C 
HETATM   10  N4  UNL     1      26.489   2.015  51.270  1.00  0.00    -0.411 N 
HETATM   11  C10 UNL     1      25.360   2.913  51.350  1.00  0.00     0.173 C 
HETATM   12  C11 UNL     1      24.010   2.322  51.275  1.00  0.00     0.360 C 
HETATM   13  N6  UNL     1      23.677   1.335  52.280  1.00  0.00    -0.247 NA
HETATM   14  C15 UNL     1      22.715   0.535  51.988  1.00  0.00     0.206 C 
HETATM   15  H18 UNL     1      27.333   2.462  50.868  1.00  0.00     0.153 HD
ENDROOT
BRANCH  12  16
HETATM   16  N5  UNL     1      22.982   3.360  51.375  1.00  0.00     0.113 N 
HETATM   17  H22 UNL     1      22.547   3.595  50.478  1.00  0.00     0.319 HD
BRANCH  16  18
HETATM   18  C12 UNL     1      23.409   4.536  52.086  1.00  0.00     0.301 C 
BRANCH  18  19
HETATM   19  C13 UNL     1      22.686   5.711  51.526  1.00  0.00     0.027 C 
HETATM   20  C14 UNL     1      23.317   6.602  50.778  1.00  0.00     0.030 C 
HETATM   21 CL1  UNL     1      22.590   8.023  50.063  1.00  0.00    -0.084 Cl
BRANCH  20  22
HETATM   22  P1  UNL     1      25.055   6.730  50.216  1.00  0.00    -0.094 P 
HETATM   23  H26 UNL     1      25.496   8.103  50.312  1.00  0.00     0.060 HD
HETATM   24  H27 UNL     1      25.957   5.920  51.025  1.00  0.00     0.060 HD
ENDBRANCH  20  22
ENDBRANCH  18  19
ENDBRANCH  16  18
ENDBRANCH  12  16
BRANCH   1  25
HETATM   25  C2  UNL     1      21.838  -0.041  54.044  1.00  0.00     0.126 C 
HETATM   26  C1  UNL     1      21.538  -1.471  54.527  1.00  0.00     0.027 C 
ENDBRANCH   1  25
BRANCH   7  27
HETATM   27  N3  UNL     1      27.630   2.730  53.923  1.00  0.00     0.085 N 
HETATM   28  H13 UNL     1      28.520   3.271  53.887  1.00  0.00     0.313 HD
HETATM   29  H14 UNL     1      26.934   3.324  53.390  1.00  0.00     0.313 HD
ENDBRANCH   7  27
TORSDOF 6
ENDMDL
MODEL 2
REMARK VINA RESULT:      -7.1      1.868      1.899
REMARK  6 active torsions:
REMARK  status: ('A' for Active; 'I' for Inactive)
REMARK    1  A    between atoms: C2_2  and  N1_3 
REMARK    2  A    between atoms: C7_9  and  N3_10 
REMARK    3  A    between atoms: C11_15  and  N5_16 
REMARK    4  A    between atoms: N5_16  and  C12_17 
REMARK    5  A    between atoms: C12_17  and  C13_18 
REMARK    6  A    between atoms: C14_19  and  P1_20 
ROOT
HETATM    1  N1  UNL     1      22.995   0.146  53.209  1.00  0.00    -0.337 N 
HETATM    2  C3  UNL     1      23.906  -0.392  54.206  1.00  0.00     0.204 C 
HETATM    3  N2  UNL     1      24.616  -0.426  53.167  1.00  0.00    -0.279 NA
HETATM    4  C4  UNL     1      25.959  -0.937  53.317  1.00  0.00     0.111 C 
HETATM    5  C5  UNL     1      26.599  -0.394  54.582  1.00  0.00     0.029 C 
HETATM    6  C6  UNL     1      27.901   0.299  54.331  1.00  0.00     0.039 C 
HETATM    7  C7  UNL     1      27.898   1.406  53.326  1.00  0.00     0.240 C 
HETATM    8  C8  UNL     1      26.709   1.142  52.406  1.00  0.00     0.111 C 
HETATM    9  C9  UNL     1      26.786  -0.344  52.134  1.00  0.00     0.054 C 
HETATM   10  N4  UNL     1      26.614   1.949  51.261  1.00  0.00    -0.411 N 
HETATM   11  C10 UNL     1      25.520   2.891  51.272  1.00  0.00     0.173 C 
HETATM   12  C11 UNL     1      24.151   2.351  51.169  1.00  0.00     0.360 C 
HETATM   13  N6  UNL     1      23.745   1.412  52.193  1.00  0.00    -0.247 NA
HETATM   14  C15 UNL     1      22.763   0.640  51.893  1.00  0.00     0.206 C 
HETATM   15  H18 UNL     1      27.489   2.349  50.874  1.00  0.00     0.153 HD
ENDROOT
BRANCH  12  16
HETATM   16  N5  UNL     1      23.162   3.430  51.198  1.00  0.00     0.113 N 
HETATM   17  H22 UNL     1      22.205   3.106  51.364  1.00  0.00     0.319 HD
BRANCH  16  18
HETATM   18  C12 UNL     1      23.238   4.319  50.069  1.00  0.00     0.301 C 
BRANCH  18  19
HETATM   19  C13 UNL     1      22.778   3.581  48.859  1.00  0.00     0.027 C 
HETATM   20  C14 UNL     1      22.450   4.228  47.753  1.00  0.00     0.030 C 
HETATM   21 CL1  UNL     1      21.896   3.486  46.270  1.00  0.00    -0.084 Cl
BRANCH  20  22
HETATM   22  P1  UNL     1      22.432   6.009  47.328  1.00  0.00    -0.094 P 
HETATM   23  H26 UNL     1      21.701   6.742  48.337  1.00  0.00     0.060 HD
HETATM   24  H27 UNL     1      23.774   6.573  47.260  1.00  0.00     0.060 HD
ENDBRANCH  20  22
ENDBRANCH  18  19
ENDBRANCH  16  18
ENDBRANCH  12  16
BRANCH   1  25
HETATM   25  C2  UNL     1      21.795   0.168  53.935  1.00  0.00     0.126 C 
HETATM   26  C1  UNL     1      21.463  -1.216  54.519  1.00  0.00     0.027 C 
ENDBRANCH   1  25
BRANCH   7  27
HETATM   27  N3  UNL     1      27.692   2.709  53.927  1.00  0.00     0.085 N 
HETATM   28  H13 UNL     1      27.247   3.320  53.211  1.00  0.00     0.313 HD
HETATM   29  H14 UNL     1      26.992   2.672  54.720  1.00  0.00     0.313 HD
ENDBRANCH   7  27
TORSDOF 6
ENDMDL
MODEL 3
REMARK VINA RESULT:      -6.7      2.675      4.867
REMARK  6 active torsions:
REMARK  status: ('A' for Active; 'I' for Inactive)
REMARK    1  A    between atoms: C2_2  and  N1_3 
REMARK    2  A    between atoms: C7_9  and  N3_10 
REMARK    3  A    between atoms: C11_15  and  N5_16 
REMARK    4  A    between atoms: N5_16  and  C12_17 
REMARK    5  A    between atoms: C12_17  and  C13_18 
REMARK    6  A    between atoms: C14_19  and  P1_20 
ROOT
HETATM    1  N1  UNL     1      24.962   1.177  53.311  1.00  0.00    -0.337 N 
HETATM    2  C3  UNL     1      23.986   0.107  53.180  1.00  0.00     0.204 C 
HETATM    3  N2  UNL     1      23.246   1.124  53.197  1.00  0.00    -0.279 NA
HETATM    4  C4  UNL     1      21.824   0.894  53.088  1.00  0.00     0.111 C 
HETATM    5  C5  UNL     1      21.533  -0.163  52.039  1.00  0.00     0.029 C 
HETATM    6  C6  UNL     1      20.583   0.305  50.982  1.00  0.00     0.039 C 
HETATM    7  C7  UNL     1      20.941   1.562  50.256  1.00  0.00     0.240 C 
HETATM    8  C8  UNL     1      21.869   2.340  51.186  1.00  0.00     0.111 C 
HETATM    9  C9  UNL     1      21.208   2.218  52.541  1.00  0.00     0.054 C 
HETATM   10  N4  UNL     1      22.185   3.652  50.798  1.00  0.00    -0.411 N 
HETATM   11  C10 UNL     1      23.555   3.849  50.387  1.00  0.00     0.173 C 
HETATM   12  C11 UNL     1      24.601   3.760  51.424  1.00  0.00     0.360 C 
HETATM   13  N6  UNL     1      24.685   2.513  52.155  1.00  0.00    -0.247 NA
HETATM   14  C15 UNL     1      25.272   2.567  53.297  1.00  0.00     0.206 C 
HETATM   15  H18 UNL     1      21.506   4.160  50.201  1.00  0.00     0.153 HD
ENDROOT
BRANCH  12  16
HETATM   16  N5  UNL     1      25.927   3.978  50.846  1.00  0.00     0.113 N 
HETATM   17  H22 UNL     1      26.498   4.650  51.367  1.00  0.00     0.319 HD
BRANCH  16  18
HETATM   18  C12 UNL     1      25.907   4.272  49.437  1.00  0.00     0.301 C 
BRANCH  18  19
HETATM   19  C13 UNL     1      27.314   4.371  48.958  1.00  0.00     0.027 C 
HETATM   20  C14 UNL     1      27.797   5.517  48.506  1.00  0.00     0.030 C 
HETATM   21 CL1  UNL     1      29.424   5.769  47.915  1.00  0.00    -0.084 Cl
BRANCH  20  22
HETATM   22  P1  UNL     1      27.053   7.179  48.318  1.00  0.00    -0.094 P 
HETATM   23  H26 UNL     1      25.960   7.117  47.374  1.00  0.00     0.060 HD
HETATM   24  H27 UNL     1      26.521   7.691  49.574  1.00  0.00     0.060 HD
ENDBRANCH  20  22
ENDBRANCH  18  19
ENDBRANCH  16  18
ENDBRANCH  12  16
BRANCH   1  25
HETATM   25  C2  UNL     1      26.126   0.440  53.575  1.00  0.00     0.126 C 
HETATM   26  C1  UNL     1      26.335  -0.676  52.536  1.00  0.00     0.027 C 
ENDBRANCH   1  25
BRANCH   7  27
HETATM   27  N3  UNL     1      21.673   1.314  49.031  1.00  0.00     0.085 N 
HETATM   28  H13 UNL     1      22.661   1.607  49.188  1.00  0.00     0.313 HD
HETATM   29  H14 UNL     1      21.732   0.281  48.808  1.00  0.00     0.313 HD
ENDBRANCH   7  27
TORSDOF 6
ENDMDL
MODEL 4
REMARK VINA RESULT:      -6.5      3.829      6.854
REMARK  6 active torsions:
REMARK  status: ('A' for Active; 'I' for Inactive)
REMARK    1  A    between atoms: C2_2  and  N1_3 
REMARK    2  A    between atoms: C7_9  and  N3_10 
REMARK    3  A    between atoms: C11_15  and  N5_16 
REMARK    4  A    between atoms: N5_16  and  C12_17 
REMARK    5  A    between atoms: C12_17  and  C13_18 
REMARK    6  A    between atoms: C14_19  and  P1_20 
ROOT
HETATM    1  N1  UNL     1      25.291   4.009  49.682  1.00  0.00    -0.337 N 
HETATM    2  C3  UNL     1      24.082   4.514  49.052  1.00  0.00     0.204 C 
HETATM    3  N2  UNL     1      23.789   3.303  49.230  1.00  0.00    -0.279 NA
HETATM    4  C4  UNL     1      22.480   2.881  48.790  1.00  0.00     0.111 C 
HETATM    5  C5  UNL     1      21.432   3.913  49.164  1.00  0.00     0.029 C 
HETATM    6  C6  UNL     1      20.308   3.344  49.971  1.00  0.00     0.039 C 
HETATM    7  C7  UNL     1      20.674   2.612  51.222  1.00  0.00     0.240 C 
HETATM    8  C8  UNL     1      22.112   2.137  51.032  1.00  0.00     0.111 C 
HETATM    9  C9  UNL     1      22.132   1.604  49.616  1.00  0.00     0.054 C 
HETATM   10  N4  UNL     1      22.613   1.255  52.003  1.00  0.00    -0.411 N 
HETATM   11  C10 UNL     1      23.634   1.811  52.858  1.00  0.00     0.173 C 
HETATM   12  C11 UNL     1      24.948   2.105  52.254  1.00  0.00     0.360 C 
HETATM   13  N6  UNL     1      24.957   3.028  51.139  1.00  0.00    -0.247 NA
HETATM   14  C15 UNL     1      25.979   2.965  50.363  1.00  0.00     0.206 C 
HETATM   15  H18 UNL     1      21.935   0.660  52.516  1.00  0.00     0.153 HD
ENDROOT
BRANCH  12  16
HETATM   16  N5  UNL     1      25.865   2.665  53.248  1.00  0.00     0.113 N 
HETATM   17  H22 UNL     1      26.224   3.591  53.001  1.00  0.00     0.319 HD
BRANCH  16  18
HETATM   18  C12 UNL     1      26.921   1.768  53.636  1.00  0.00     0.301 C 
BRANCH  18  19
HETATM   19  C13 UNL     1      26.592   0.408  53.125  1.00  0.00     0.027 C 
HETATM   20  C14 UNL     1      27.493  -0.562  53.148  1.00  0.00     0.030 C 
HETATM   21 CL1  UNL     1      27.238  -2.196  52.580  1.00  0.00    -0.084 Cl
BRANCH  20  22
HETATM   22  P1  UNL     1      29.229  -0.617  53.727  1.00  0.00    -0.094 P 
HETATM   23  H26 UNL     1      29.343  -1.545  54.830  1.00  0.00     0.060 HD
HETATM   24  H27 UNL     1      30.145  -1.058  52.683  1.00  0.00     0.060 HD
ENDBRANCH  20  22
ENDBRANCH  18  19
ENDBRANCH  16  18
ENDBRANCH  12  16
BRANCH   1  25
HETATM   25  C2  UNL     1      26.152   5.103  49.510  1.00  0.00     0.126 C 
HETATM   26  C1  UNL     1      27.429   4.702  48.750  1.00  0.00     0.027 C 
ENDBRANCH   1  25
BRANCH   7  27
HETATM   27  N3  UNL     1      20.656   3.461  52.396  1.00  0.00     0.085 N 
HETATM   28  H13 UNL     1      21.434   4.148  52.301  1.00  0.00     0.313 HD
HETATM   29  H14 UNL     1      19.780   4.053  52.441  1.00  0.00     0.313 HD
ENDBRANCH   7  27
TORSDOF 6
ENDMDL
MODEL 5
REMARK VINA RESULT:      -6.5      3.570      5.326
REMARK  6 active torsions:
REMARK  status: ('A' for Active; 'I' for Inactive)
REMARK    1  A    between atoms: C2_2  and  N1_3 
REMARK    2  A    between atoms: C7_9  and  N3_10 
REMARK    3  A    between atoms: C11_15  and  N5_16 
REMARK    4  A    between atoms: N5_16  and  C12_17 
REMARK    5  A    between atoms: C12_17  and  C13_18 
REMARK    6  A    between atoms: C14_19  and  P1_20 
ROOT
HETATM    1  N1  UNL     1      25.025   2.823  51.381  1.00  0.00    -0.337 N 
HETATM    2  C3  UNL     1      26.462   2.599  51.371  1.00  0.00     0.204 C 
HETATM    3  N2  UNL     1      26.172   2.335  52.567  1.00  0.00    -0.279 NA
HETATM    4  C4  UNL     1      27.262   1.938  53.426  1.00  0.00     0.111 C 
HETATM    5  C5  UNL     1      28.188   0.976  52.705  1.00  0.00     0.029 C 
HETATM    6  C6  UNL     1      28.384  -0.313  53.439  1.00  0.00     0.039 C 
HETATM    7  C7  UNL     1      27.153  -1.077  53.810  1.00  0.00     0.240 C 
HETATM    8  C8  UNL     1      26.019  -0.057  53.861  1.00  0.00     0.111 C 
HETATM    9  C9  UNL     1      26.625   1.121  54.592  1.00  0.00     0.054 C 
HETATM   10  N4  UNL     1      24.795  -0.509  54.379  1.00  0.00    -0.411 N 
HETATM   11  C10 UNL     1      23.731  -0.622  53.410  1.00  0.00     0.173 C 
HETATM   12  C11 UNL     1      23.184   0.626  52.844  1.00  0.00     0.360 C 
HETATM   13  N6  UNL     1      24.120   1.492  52.159  1.00  0.00    -0.247 NA
HETATM   14  C15 UNL     1      23.769   2.723  52.044  1.00  0.00     0.206 C 
HETATM   15  H18 UNL     1      24.813  -1.296  55.054  1.00  0.00     0.153 HD
ENDROOT
BRANCH  12  16
HETATM   16  N5  UNL     1      22.122   0.339  51.879  1.00  0.00     0.113 N 
HETATM   17  H22 UNL     1      22.360   0.595  50.917  1.00  0.00     0.319 HD
BRANCH  16  18
HETATM   18  C12 UNL     1      20.832   0.849  52.265  1.00  0.00     0.301 C 
BRANCH  18  19
HETATM   19  C13 UNL     1      20.101  -0.227  52.990  1.00  0.00     0.027 C 
HETATM   20  C14 UNL     1      18.846  -0.518  52.686  1.00  0.00     0.030 C 
HETATM   21 CL1  UNL     1      17.875  -1.752  53.457  1.00  0.00    -0.084 Cl
BRANCH  20  22
HETATM   22  P1  UNL     1      17.687   0.171  51.447  1.00  0.00    -0.094 P 
HETATM   23  H26 UNL     1      17.601   1.605  51.608  1.00  0.00     0.060 HD
HETATM   24  H27 UNL     1      18.120  -0.093  50.080  1.00  0.00     0.060 HD
ENDBRANCH  20  22
ENDBRANCH  18  19
ENDBRANCH  16  18
ENDBRANCH  12  16
BRANCH   1  25
HETATM   25  C2  UNL     1      24.845   3.422  50.125  1.00  0.00     0.126 C 
HETATM   26  C1  UNL     1      26.190   3.810  49.486  1.00  0.00     0.027 C 
ENDBRANCH   1  25
BRANCH   7  27
HETATM   27  N3  UNL     1      26.790  -2.072  52.821  1.00  0.00     0.085 N 
HETATM   28  H13 UNL     1      26.247  -2.817  53.308  1.00  0.00     0.313 HD
HETATM   29  H14 UNL     1      26.122  -1.684  52.098  1.00  0.00     0.313 HD
ENDBRANCH   7  27
TORSDOF 6
ENDMDL
MODEL 6
REMARK VINA RESULT:      -6.4      2.437      5.065
REMARK  6 active torsions:
REMARK  status: ('A' for Active; 'I' for Inactive)
REMARK    1  A    between atoms: C2_2  and  N1_3 
REMARK    2  A    between atoms: C7_9  and  N3_10 
REMARK    3  A    between atoms: C11_15  and  N5_16 
REMARK    4  A    between atoms: N5_16  and  C12_17 
REMARK    5  A    between atoms: C12_17  and  C13_18 
REMARK    6  A    between atoms: C14_19  and  P1_20 
ROOT
HETATM    1  N1  UNL     1      24.587   2.295  52.985  1.00  0.00    -0.337 N 
HETATM    2  C3  UNL     1      24.063   1.106  52.332  1.00  0.00     0.204 C 
HETATM    3  N2  UNL     1      23.014   1.626  52.794  1.00  0.00    -0.279 NA
HETATM    4  C4  UNL     1      21.776   0.928  52.536  1.00  0.00     0.111 C 
HETATM    5  C5  UNL     1      21.734   0.427  51.104  1.00  0.00     0.029 C 
HETATM    6  C6  UNL     1      20.529   0.897  50.352  1.00  0.00     0.039 C 
HETATM    7  C7  UNL     1      20.287   2.372  50.312  1.00  0.00     0.240 C 
HETATM    8  C8  UNL     1      20.997   2.953  51.532  1.00  0.00     0.111 C 
HETATM    9  C9  UNL     1      20.642   1.993  52.647  1.00  0.00     0.054 C 
HETATM   10  N4  UNL     1      20.748   4.306  51.814  1.00  0.00    -0.411 N 
HETATM   11  C10 UNL     1      21.871   5.186  51.596  1.00  0.00     0.173 C 
HETATM   12  C11 UNL     1      23.022   5.068  52.511  1.00  0.00     0.360 C 
HETATM   13  N6  UNL     1      23.668   3.773  52.577  1.00  0.00    -0.247 NA
HETATM   14  C15 UNL     1      24.361   3.543  53.634  1.00  0.00     0.206 C 
HETATM   15  H18 UNL     1      19.848   4.711  51.498  1.00  0.00     0.153 HD
ENDROOT
BRANCH  12  16
HETATM   16  N5  UNL     1      24.072   6.023  52.153  1.00  0.00     0.113 N 
HETATM   17  H22 UNL     1      24.133   6.824  52.788  1.00  0.00     0.319 HD
BRANCH  16  18
HETATM   18  C12 UNL     1      24.039   6.435  50.774  1.00  0.00     0.301 C 
BRANCH  18  19
HETATM   19  C13 UNL     1      25.383   6.192  50.179  1.00  0.00     0.027 C 
HETATM   20  C14 UNL     1      25.658   5.052  49.567  1.00  0.00     0.030 C 
HETATM   21 CL1  UNL     1      27.190   4.641  48.830  1.00  0.00    -0.084 Cl
BRANCH  20  22
HETATM   22  P1  UNL     1      24.659   3.551  49.252  1.00  0.00    -0.094 P 
HETATM   23  H26 UNL     1      23.257   3.853  49.437  1.00  0.00     0.060 HD
HETATM   24  H27 UNL     1      24.825   3.053  47.892  1.00  0.00     0.060 HD
ENDBRANCH  20  22
ENDBRANCH  18  19
ENDBRANCH  16  18
ENDBRANCH  12  16
BRANCH   1  25
HETATM   25  C2  UNL     1      25.965   2.044  52.919  1.00  0.00     0.126 C 
HETATM   26  C1  UNL     1      26.308   1.071  51.777  1.00  0.00     0.027 C 
ENDBRANCH   1  25
BRANCH   7  27
HETATM   27  N3  UNL     1      20.861   3.004  49.142  1.00  0.00     0.085 N 
HETATM   28  H13 UNL     1      21.849   2.680  49.061  1.00  0.00     0.313 HD
HETATM   29  H14 UNL     1      20.399   2.675  48.248  1.00  0.00     0.313 HD
ENDBRANCH   7  27
TORSDOF 6
ENDMDL
MODEL 7
REMARK VINA RESULT:      -6.1      4.624      5.672
REMARK  6 active torsions:
REMARK  status: ('A' for Active; 'I' for Inactive)
REMARK    1  A    between atoms: C2_2  and  N1_3 
REMARK    2  A    between atoms: C7_9  and  N3_10 
REMARK    3  A    between atoms: C11_15  and  N5_16 
REMARK    4  A    between atoms: N5_16  and  C12_17 
REMARK    5  A    between atoms: C12_17  and  C13_18 
REMARK    6  A    between atoms: C14_19  and  P1_20 
ROOT
HETATM    1  N1  UNL     1      20.652   0.088  52.715  1.00  0.00    -0.337 N 
HETATM    2  C3  UNL     1      22.008   0.300  53.194  1.00  0.00     0.204 C 
HETATM    3  N2  UNL     1      22.073   0.771  52.028  1.00  0.00    -0.279 NA
HETATM    4  C4  UNL     1      23.350   1.307  51.616  1.00  0.00     0.111 C 
HETATM    5  C5  UNL     1      23.972   2.124  52.733  1.00  0.00     0.029 C 
HETATM    6  C6  UNL     1      24.315   3.520  52.319  1.00  0.00     0.039 C 
HETATM    7  C7  UNL     1      23.214   4.343  51.729  1.00  0.00     0.240 C 
HETATM    8  C8  UNL     1      22.196   3.352  51.169  1.00  0.00     0.111 C 
HETATM    9  C9  UNL     1      23.048   2.318  50.467  1.00  0.00     0.054 C 
HETATM   10  N4  UNL     1      21.161   3.894  50.391  1.00  0.00    -0.411 N 
HETATM   11  C10 UNL     1      19.853   3.841  51.001  1.00  0.00     0.173 C 
HETATM   12  C11 UNL     1      19.224   2.516  51.158  1.00  0.00     0.360 C 
HETATM   13  N6  UNL     1      19.955   1.539  51.936  1.00  0.00    -0.247 NA
HETATM   14  C15 UNL     1      19.646   0.308  51.732  1.00  0.00     0.206 C 
HETATM   15  H18 UNL     1      21.340   4.787  49.895  1.00  0.00     0.153 HD
ENDROOT
BRANCH  12  16
HETATM   16  N5  UNL     1      17.911   2.635  51.793  1.00  0.00     0.113 N 
HETATM   17  H22 UNL     1      17.488   1.735  52.036  1.00  0.00     0.319 HD
BRANCH  16  18
HETATM   18  C12 UNL     1      16.993   3.481  51.076  1.00  0.00     0.301 C 
BRANCH  18  19
HETATM   19  C13 UNL     1      16.212   4.272  52.068  1.00  0.00     0.027 C 
HETATM   20  C14 UNL     1      15.167   3.745  52.685  1.00  0.00     0.030 C 
HETATM   21 CL1  UNL     1      14.167   4.562  53.865  1.00  0.00    -0.084 Cl
BRANCH  20  22
HETATM   22  P1  UNL     1      14.382   2.094  52.587  1.00  0.00    -0.094 P 
HETATM   23  H26 UNL     1      12.979   2.241  52.273  1.00  0.00     0.060 HD
HETATM   24  H27 UNL     1      14.979   1.260  51.551  1.00  0.00     0.060 HD
ENDBRANCH  20  22
ENDBRANCH  18  19
ENDBRANCH  16  18
ENDBRANCH  12  16
BRANCH   1  25
HETATM   25  C2  UNL     1      20.136  -0.720  53.739  1.00  0.00     0.126 C 
HETATM   26  C1  UNL     1      21.221  -1.632  54.339  1.00  0.00     0.027 C 
ENDBRANCH   1  25
BRANCH   7  27
HETATM   27  N3  UNL     1      22.526   5.151  52.715  1.00  0.00     0.085 N 
HETATM   28  H13 UNL     1      21.544   4.808  52.776  1.00  0.00     0.313 HD
HETATM   29  H14 UNL     1      22.920   5.008  53.688  1.00  0.00     0.313 HD
ENDBRANCH   7  27
TORSDOF 6
ENDMDL
MODEL 8
REMARK VINA RESULT:      -6.0      3.972      6.446
REMARK  6 active torsions:
REMARK  status: ('A' for Active; 'I' for Inactive)
REMARK    1  A    between atoms: C2_2  and  N1_3 
REMARK    2  A    between atoms: C7_9  and  N3_10 
REMARK    3  A    between atoms: C11_15  and  N5_16 
REMARK    4  A    between atoms: N5_16  and  C12_17 
REMARK    5  A    between atoms: C12_17  and  C13_18 
REMARK    6  A    between atoms: C14_19  and  P1_20 
ROOT
HETATM    1  N1  UNL     1      23.775   6.680  50.025  1.00  0.00    -0.337 N 
HETATM    2  C3  UNL     1      23.001   6.095  51.107  1.00  0.00     0.204 C 
HETATM    3  N2  UNL     1      23.218   5.092  50.380  1.00  0.00    -0.279 NA
HETATM    4  C4  UNL     1      22.676   3.832  50.834  1.00  0.00     0.111 C 
HETATM    5  C5  UNL     1      22.884   3.668  52.328  1.00  0.00     0.029 C 
HETATM    6  C6  UNL     1      23.607   2.408  52.686  1.00  0.00     0.039 C 
HETATM    7  C7  UNL     1      24.929   2.174  52.026  1.00  0.00     0.240 C 
HETATM    8  C8  UNL     1      24.909   2.986  50.734  1.00  0.00     0.111 C 
HETATM    9  C9  UNL     1      23.535   2.719  50.159  1.00  0.00     0.054 C 
HETATM   10  N4  UNL     1      25.974   2.771  49.844  1.00  0.00    -0.411 N 
HETATM   11  C10 UNL     1      26.893   3.878  49.720  1.00  0.00     0.173 C 
HETATM   12  C11 UNL     1      26.406   5.100  49.053  1.00  0.00     0.360 C 
HETATM   13  N6  UNL     1      25.246   5.740  49.637  1.00  0.00    -0.247 NA
HETATM   14  C15 UNL     1      24.580   6.517  48.861  1.00  0.00     0.206 C 
HETATM   15  H18 UNL     1      26.451   1.850  49.869  1.00  0.00     0.153 HD
ENDROOT
BRANCH  12  16
HETATM   16  N5  UNL     1      27.452   6.123  49.012  1.00  0.00     0.113 N 
HETATM   17  H22 UNL     1      27.120   7.039  48.698  1.00  0.00     0.319 HD
BRANCH  16  18
HETATM   18  C12 UNL     1      28.638   5.714  48.307  1.00  0.00     0.301 C 
BRANCH  18  19
HETATM   19  C13 UNL     1      29.377   6.937  47.885  1.00  0.00     0.027 C 
HETATM   20  C14 UNL     1      30.629   7.137  48.264  1.00  0.00     0.030 C 
HETATM   21 CL1  UNL     1      31.607   8.524  47.841  1.00  0.00    -0.084 Cl
BRANCH  20  22
HETATM   22  P1  UNL     1      31.778   6.149  49.293  1.00  0.00    -0.094 P 
HETATM   23  H26 UNL     1      31.026   5.392  50.268  1.00  0.00     0.060 HD
HETATM   24  H27 UNL     1      32.553   5.202  48.501  1.00  0.00     0.060 HD
ENDBRANCH  20  22
ENDBRANCH  18  19
ENDBRANCH  16  18
ENDBRANCH  12  16
BRANCH   1  25
HETATM   25  C2  UNL     1      23.627   8.047  50.304  1.00  0.00     0.126 C 
HETATM   26  C1  UNL     1      23.306   8.851  49.032  1.00  0.00     0.027 C 
ENDBRANCH   1  25
BRANCH   7  27
HETATM   27  N3  UNL     1      26.044   2.654  52.816  1.00  0.00     0.085 N 
HETATM   28  H13 UNL     1      26.872   2.066  52.582  1.00  0.00     0.313 HD
HETATM   29  H14 UNL     1      26.328   3.637  52.543  1.00  0.00     0.313 HD
ENDBRANCH   7  27
TORSDOF 6
ENDMDL
MODEL 9
REMARK VINA RESULT:      -5.9      3.452      6.727
REMARK  6 active torsions:
REMARK  status: ('A' for Active; 'I' for Inactive)
REMARK    1  A    between atoms: C2_2  and  N1_3 
REMARK    2  A    between atoms: C7_9  and  N3_10 
REMARK    3  A    between atoms: C11_15  and  N5_16 
REMARK    4  A    between atoms: N5_16  and  C12_17 
REMARK    5  A    between atoms: C12_17  and  C13_18 
REMARK    6  A    between atoms: C14_19  and  P1_20 
ROOT
HETATM    1  N1  UNL     1      21.740   3.739  48.749  1.00  0.00    -0.337 N 
HETATM    2  C3  UNL     1      22.147   4.884  47.949  1.00  0.00     0.204 C 
HETATM    3  N2  UNL     1      21.930   5.419  49.067  1.00  0.00    -0.279 NA
HETATM    4  C4  UNL     1      22.143   6.845  49.155  1.00  0.00     0.111 C 
HETATM    5  C5  UNL     1      23.414   7.241  48.428  1.00  0.00     0.029 C 
HETATM    6  C6  UNL     1      24.375   7.996  49.291  1.00  0.00     0.039 C 
HETATM    7  C7  UNL     1      24.783   7.351  50.577  1.00  0.00     0.240 C 
HETATM    8  C8  UNL     1      23.666   6.374  50.935  1.00  0.00     0.111 C 
HETATM    9  C9  UNL     1      22.400   7.156  50.662  1.00  0.00     0.054 C 
HETATM   10  N4  UNL     1      23.735   5.787  52.209  1.00  0.00    -0.411 N 
HETATM   11  C10 UNL     1      24.038   4.375  52.210  1.00  0.00     0.173 C 
HETATM   12  C11 UNL     1      23.007   3.454  51.693  1.00  0.00     0.360 C 
HETATM   13  N6  UNL     1      22.575   3.665  50.328  1.00  0.00    -0.247 NA
HETATM   14  C15 UNL     1      21.428   3.175  50.018  1.00  0.00     0.206 C 
HETATM   15  H18 UNL     1      24.228   6.307  52.959  1.00  0.00     0.153 HD
ENDROOT
BRANCH  12  16
HETATM   16  N5  UNL     1      23.469   2.067  51.759  1.00  0.00     0.113 N 
HETATM   17  H22 UNL     1      22.837   1.401  51.306  1.00  0.00     0.319 HD
BRANCH  16  18
HETATM   18  C12 UNL     1      23.837   1.638  53.083  1.00  0.00     0.301 C 
BRANCH  18  19
HETATM   19  C13 UNL     1      24.604   0.367  52.969  1.00  0.00     0.027 C 
HETATM   20  C14 UNL     1      25.905   0.378  52.727  1.00  0.00     0.030 C 
HETATM   21 CL1  UNL     1      26.919  -1.037  52.568  1.00  0.00    -0.084 Cl
BRANCH  20  22
HETATM   22  P1  UNL     1      27.099   1.743  52.478  1.00  0.00    -0.094 P 
HETATM   23  H26 UNL     1      26.403   2.914  51.992  1.00  0.00     0.060 HD
HETATM   24  H27 UNL     1      27.777   2.116  53.713  1.00  0.00     0.060 HD
ENDBRANCH  20  22
ENDBRANCH  18  19
ENDBRANCH  16  18
ENDBRANCH  12  16
BRANCH   1  25
HETATM   25  C2  UNL     1      21.605   2.760  47.754  1.00  0.00     0.126 C 
HETATM   26  C1  UNL     1      21.561   1.345  48.358  1.00  0.00     0.027 C 
ENDBRANCH   1  25
BRANCH   7  27
HETATM   27  N3  UNL     1      26.003   6.580  50.455  1.00  0.00     0.085 N 
HETATM   28  H13 UNL     1      26.134   6.352  49.447  1.00  0.00     0.313 HD
HETATM   29  H14 UNL     1      26.858   7.149  50.714  1.00  0.00     0.313 HD
ENDBRANCH   7  27
TORSDOF 6
ENDMDL
