MODEL 1
REMARK VINA RESULT:      -5.6      0.000      0.000
REMARK  10 active torsions:
REMARK  status: ('A' for Active; 'I' for Inactive)
REMARK    1  A    between atoms: C2_2  and  C3_3 
REMARK    2  A    between atoms: C3_3  and  O3_21 
REMARK    3  A    between atoms: N1_4  and  C4_5 
REMARK    4  A    between atoms: C4_5  and  S1_6 
REMARK    5  A    between atoms: S1_6  and  C5_7 
REMARK    6  A    between atoms: C5_7  and  N2_8 
REMARK    7  A    between atoms: C6_9  and  N3_10 
REMARK    8  A    between atoms: C7_11  and  N4_12 
REMARK    9  A    between atoms: N4_12  and  C8_13 
REMARK   10  A    between atoms: C10_15  and  O1_16 
ROOT
HETATM    1  N3  UNL     1      26.279   2.775  50.155  1.00  0.00    -0.237 NA
HETATM    2  C7  UNL     1      26.395   2.529  51.423  1.00  0.00     0.204 C 
ENDROOT
BRANCH   1   3
HETATM    3  C6  UNL     1      26.696   4.007  49.584  1.00  0.00     0.245 C 
HETATM    4  N2  UNL     1      27.293   4.668  48.650  1.00  0.00    -0.191 NA
BRANCH   4   5
HETATM    5  C5  UNL     1      27.320   6.043  48.747  1.00  0.00     0.044 C 
BRANCH   5   6
HETATM    6  S1  UNL     1      27.332   7.893  48.896  1.00  0.00     0.037 SA
BRANCH   6   7
HETATM    7  C4  UNL     1      27.315   9.729  49.031  1.00  0.00     0.046 C 
BRANCH   7   8
HETATM    8  N1  UNL     1      27.292  11.104  49.109  1.00  0.00    -0.173 NA
HETATM    9  C3  UNL     1      28.378  11.770  49.043  1.00  0.00     0.172 C 
BRANCH   9  10
HETATM   10  C2  UNL     1      29.686  11.158  48.885  1.00  0.00     0.048 C 
HETATM   11  C1  UNL     1      30.724  11.937  49.029  1.00  0.00     0.015 C 
ENDBRANCH   9  10
BRANCH   9  12
HETATM   12  O3  UNL     1      28.174  13.138  49.138  1.00  0.00    -0.339 OA
HETATM   13  C14 UNL     1      27.375  13.830  48.186  1.00  0.00     0.211 C 
ENDBRANCH   9  12
ENDBRANCH   7   8
ENDBRANCH   6   7
ENDBRANCH   5   6
ENDBRANCH   4   5
ENDBRANCH   1   3
BRANCH   2  14
HETATM   14  N4  UNL     1      25.942   1.265  51.857  1.00  0.00    -0.374 N 
HETATM   15  H6  UNL     1      24.956   1.065  52.081  1.00  0.00     0.161 HD
BRANCH  14  16
HETATM   16  C8  UNL     1      26.903   0.184  52.000  1.00  0.00     0.131 C 
HETATM   17  C9  UNL     1      27.969   0.655  52.924  1.00  0.00     0.034 C 
HETATM   18  C10 UNL     1      27.525   0.636  54.175  1.00  0.00     0.067 C 
HETATM   19  C12 UNL     1      26.186   0.218  54.592  1.00  0.00     0.231 C 
HETATM   20  O2  UNL     1      25.576  -0.720  53.795  1.00  0.00    -0.382 OA
HETATM   21  C13 UNL     1      26.272  -1.029  52.638  1.00  0.00     0.197 C 
BRANCH  18  22
HETATM   22  O1  UNL     1      28.489   1.070  55.079  1.00  0.00    -0.358 OA
HETATM   23  C11 UNL     1      29.501   1.934  54.578  1.00  0.00     0.209 C 
ENDBRANCH  18  22
ENDBRANCH  14  16
ENDBRANCH   2  14
TORSDOF 10
ENDMDL
MODEL 2
REMARK VINA RESULT:      -5.6      3.817      4.454
REMARK  10 active torsions:
REMARK  status: ('A' for Active; 'I' for Inactive)
REMARK    1  A    between atoms: C2_2  and  C3_3 
REMARK    2  A    between atoms: C3_3  and  O3_21 
REMARK    3  A    between atoms: N1_4  and  C4_5 
REMARK    4  A    between atoms: C4_5  and  S1_6 
REMARK    5  A    between atoms: S1_6  and  C5_7 
REMARK    6  A    between atoms: C5_7  and  N2_8 
REMARK    7  A    between atoms: C6_9  and  N3_10 
REMARK    8  A    between atoms: C7_11  and  N4_12 
REMARK    9  A    between atoms: N4_12  and  C8_13 
REMARK   10  A    between atoms: C10_15  and  O1_16 
ROOT
HETATM    1  N3  UNL     1      26.121   2.706  50.614  1.00  0.00    -0.237 NA
HETATM    2  C7  UNL     1      26.511   2.435  51.821  1.00  0.00     0.204 C 
ENDROOT
BRANCH   1   3
HETATM    3  C6  UNL     1      26.780   3.672  49.808  1.00  0.00     0.245 C 
HETATM    4  N2  UNL     1      26.743   4.620  48.933  1.00  0.00    -0.191 NA
BRANCH   4   5
HETATM    5  C5  UNL     1      27.935   5.196  48.551  1.00  0.00     0.044 C 
BRANCH   5   6
HETATM    6  S1  UNL     1      29.556   5.955  48.059  1.00  0.00     0.037 SA
BRANCH   6   7
HETATM    7  C4  UNL     1      31.166   6.722  47.600  1.00  0.00     0.046 C 
BRANCH   7   8
HETATM    8  N1  UNL     1      32.381   7.285  47.277  1.00  0.00    -0.173 NA
HETATM    9  C3  UNL     1      33.466   6.718  47.634  1.00  0.00     0.172 C 
BRANCH   9  10
HETATM   10  C2  UNL     1      33.514   5.476  48.387  1.00  0.00     0.048 C 
HETATM   11  C1  UNL     1      34.427   4.609  48.040  1.00  0.00     0.015 C 
ENDBRANCH   9  10
BRANCH   9  12
HETATM   12  O3  UNL     1      34.593   7.415  47.228  1.00  0.00    -0.339 OA
HETATM   13  C14 UNL     1      35.276   8.290  48.119  1.00  0.00     0.211 C 
ENDBRANCH   9  12
ENDBRANCH   7   8
ENDBRANCH   6   7
ENDBRANCH   5   6
ENDBRANCH   4   5
ENDBRANCH   1   3
BRANCH   2  14
HETATM   14  N4  UNL     1      25.768   1.453  52.511  1.00  0.00    -0.374 N 
HETATM   15  H6  UNL     1      24.967   1.678  53.120  1.00  0.00     0.161 HD
BRANCH  14  16
HETATM   16  C8  UNL     1      26.139   0.056  52.364  1.00  0.00     0.131 C 
HETATM   17  C9  UNL     1      27.555  -0.077  52.796  1.00  0.00     0.034 C 
HETATM   18  C10 UNL     1      27.630  -0.033  54.121  1.00  0.00     0.067 C 
HETATM   19  C12 UNL     1      26.493   0.123  55.029  1.00  0.00     0.231 C 
HETATM   20  O2  UNL     1      25.294  -0.372  54.578  1.00  0.00    -0.382 OA
HETATM   21  C13 UNL     1      25.317  -0.827  53.270  1.00  0.00     0.197 C 
BRANCH  18  22
HETATM   22  O1  UNL     1      28.939  -0.154  54.576  1.00  0.00    -0.358 OA
HETATM   23  C11 UNL     1      29.846  -0.869  53.747  1.00  0.00     0.209 C 
ENDBRANCH  18  22
ENDBRANCH  14  16
ENDBRANCH   2  14
TORSDOF 10
ENDMDL
MODEL 3
REMARK VINA RESULT:      -5.6      7.320     12.690
REMARK  10 active torsions:
REMARK  status: ('A' for Active; 'I' for Inactive)
REMARK    1  A    between atoms: C2_2  and  C3_3 
REMARK    2  A    between atoms: C3_3  and  O3_21 
REMARK    3  A    between atoms: N1_4  and  C4_5 
REMARK    4  A    between atoms: C4_5  and  S1_6 
REMARK    5  A    between atoms: S1_6  and  C5_7 
REMARK    6  A    between atoms: C5_7  and  N2_8 
REMARK    7  A    between atoms: C6_9  and  N3_10 
REMARK    8  A    between atoms: C7_11  and  N4_12 
REMARK    9  A    between atoms: N4_12  and  C8_13 
REMARK   10  A    between atoms: C10_15  and  O1_16 
ROOT
HETATM    1  N3  UNL     1      23.841  -0.877  54.401  1.00  0.00    -0.237 NA
HETATM    2  C7  UNL     1      24.787  -0.422  53.639  1.00  0.00     0.204 C 
ENDROOT
BRANCH   1   3
HETATM    3  C6  UNL     1      22.468  -0.653  54.115  1.00  0.00     0.245 C 
HETATM    4  N2  UNL     1      21.471   0.149  53.950  1.00  0.00    -0.191 NA
BRANCH   4   5
HETATM    5  C5  UNL     1      20.243  -0.398  53.645  1.00  0.00     0.044 C 
BRANCH   5   6
HETATM    6  S1  UNL     1      18.577  -1.107  53.240  1.00  0.00     0.037 SA
BRANCH   6   7
HETATM    7  C4  UNL     1      16.937  -1.828  52.815  1.00  0.00     0.046 C 
BRANCH   7   8
HETATM    8  N1  UNL     1      15.704  -2.347  52.483  1.00  0.00    -0.173 NA
HETATM    9  C3  UNL     1      15.455  -3.583  52.676  1.00  0.00     0.172 C 
BRANCH   9  10
HETATM   10  C2  UNL     1      16.415  -4.517  53.239  1.00  0.00     0.048 C 
HETATM   11  C1  UNL     1      15.944  -5.445  54.028  1.00  0.00     0.015 C 
ENDBRANCH   9  10
BRANCH   9  12
HETATM   12  O3  UNL     1      14.173  -3.938  52.288  1.00  0.00    -0.339 OA
HETATM   13  C14 UNL     1      13.686  -3.627  50.987  1.00  0.00     0.211 C 
ENDBRANCH   9  12
ENDBRANCH   7   8
ENDBRANCH   6   7
ENDBRANCH   5   6
ENDBRANCH   4   5
ENDBRANCH   1   3
BRANCH   2  14
HETATM   14  N4  UNL     1      26.108  -0.718  54.039  1.00  0.00    -0.374 N 
HETATM   15  H6  UNL     1      26.386  -0.834  55.025  1.00  0.00     0.161 HD
BRANCH  14  16
HETATM   16  C8  UNL     1      27.134  -0.871  53.021  1.00  0.00     0.131 C 
HETATM   17  C9  UNL     1      27.060   0.319  52.133  1.00  0.00     0.034 C 
HETATM   18  C10 UNL     1      27.596   1.372  52.740  1.00  0.00     0.067 C 
HETATM   19  C12 UNL     1      28.174   1.370  54.084  1.00  0.00     0.231 C 
HETATM   20  O2  UNL     1      28.716   0.179  54.501  1.00  0.00    -0.382 OA
HETATM   21  C13 UNL     1      28.513  -0.879  53.632  1.00  0.00     0.197 C 
BRANCH  18  22
HETATM   22  O1  UNL     1      27.550   2.513  51.946  1.00  0.00    -0.358 OA
HETATM   23  C11 UNL     1      26.416   2.668  51.104  1.00  0.00     0.209 C 
ENDBRANCH  18  22
ENDBRANCH  14  16
ENDBRANCH   2  14
TORSDOF 10
ENDMDL
MODEL 4
REMARK VINA RESULT:      -5.4      7.072     10.503
REMARK  10 active torsions:
REMARK  status: ('A' for Active; 'I' for Inactive)
REMARK    1  A    between atoms: C2_2  and  C3_3 
REMARK    2  A    between atoms: C3_3  and  O3_21 
REMARK    3  A    between atoms: N1_4  and  C4_5 
REMARK    4  A    between atoms: C4_5  and  S1_6 
REMARK    5  A    between atoms: S1_6  and  C5_7 
REMARK    6  A    between atoms: C5_7  and  N2_8 
REMARK    7  A    between atoms: C6_9  and  N3_10 
REMARK    8  A    between atoms: C7_11  and  N4_12 
REMARK    9  A    between atoms: N4_12  and  C8_13 
REMARK   10  A    between atoms: C10_15  and  O1_16 
ROOT
HETATM    1  N3  UNL     1      24.542  -0.921  55.187  1.00  0.00    -0.237 NA
HETATM    2  C7  UNL     1      25.354  -0.432  54.302  1.00  0.00     0.204 C 
ENDROOT
BRANCH   1   3
HETATM    3  C6  UNL     1      23.167  -1.143  54.909  1.00  0.00     0.245 C 
HETATM    4  N2  UNL     1      22.059  -1.764  55.139  1.00  0.00    -0.191 NA
BRANCH   4   5
HETATM    5  C5  UNL     1      20.958  -1.426  54.384  1.00  0.00     0.044 C 
BRANCH   5   6
HETATM    6  S1  UNL     1      19.468  -0.947  53.386  1.00  0.00     0.037 SA
BRANCH   6   7
HETATM    7  C4  UNL     1      17.981  -0.502  52.396  1.00  0.00     0.046 C 
BRANCH   7   8
HETATM    8  N1  UNL     1      16.870  -0.145  51.662  1.00  0.00    -0.173 NA
HETATM    9  C3  UNL     1      16.973   0.697  50.711  1.00  0.00     0.172 C 
BRANCH   9  10
HETATM   10  C2  UNL     1      18.224   1.333  50.332  1.00  0.00     0.048 C 
HETATM   11  C1  UNL     1      18.193   2.130  49.298  1.00  0.00     0.015 C 
ENDBRANCH   9  10
BRANCH   9  12
HETATM   12  O3  UNL     1      15.764   0.942  50.079  1.00  0.00    -0.339 OA
HETATM   13  C14 UNL     1      14.666   1.507  50.788  1.00  0.00     0.211 C 
ENDBRANCH   9  12
ENDBRANCH   7   8
ENDBRANCH   6   7
ENDBRANCH   5   6
ENDBRANCH   4   5
ENDBRANCH   1   3
BRANCH   2  14
HETATM   14  N4  UNL     1      26.695  -0.263  54.710  1.00  0.00    -0.374 N 
HETATM   15  H6  UNL     1      26.962  -0.006  55.672  1.00  0.00     0.161 HD
BRANCH  14  16
HETATM   16  C8  UNL     1      27.757  -0.457  53.738  1.00  0.00     0.131 C 
HETATM   17  C9  UNL     1      27.428   0.371  52.547  1.00  0.00     0.034 C 
HETATM   18  C10 UNL     1      27.680   1.649  52.802  1.00  0.00     0.067 C 
HETATM   19  C12 UNL     1      28.201   2.175  54.064  1.00  0.00     0.231 C 
HETATM   20  O2  UNL     1      29.000   1.320  54.784  1.00  0.00    -0.382 OA
HETATM   21  C13 UNL     1      29.080   0.038  54.267  1.00  0.00     0.197 C 
BRANCH  18  22
HETATM   22  O1  UNL     1      27.387   2.466  51.715  1.00  0.00    -0.358 OA
HETATM   23  C11 UNL     1      26.027   2.536  51.308  1.00  0.00     0.209 C 
ENDBRANCH  18  22
ENDBRANCH  14  16
ENDBRANCH   2  14
TORSDOF 10
ENDMDL
MODEL 5
REMARK VINA RESULT:      -5.4      1.310      1.610
REMARK  10 active torsions:
REMARK  status: ('A' for Active; 'I' for Inactive)
REMARK    1  A    between atoms: C2_2  and  C3_3 
REMARK    2  A    between atoms: C3_3  and  O3_21 
REMARK    3  A    between atoms: N1_4  and  C4_5 
REMARK    4  A    between atoms: C4_5  and  S1_6 
REMARK    5  A    between atoms: S1_6  and  C5_7 
REMARK    6  A    between atoms: C5_7  and  N2_8 
REMARK    7  A    between atoms: C6_9  and  N3_10 
REMARK    8  A    between atoms: C7_11  and  N4_12 
REMARK    9  A    between atoms: N4_12  and  C8_13 
REMARK   10  A    between atoms: C10_15  and  O1_16 
ROOT
HETATM    1  N3  UNL     1      26.778   3.265  49.973  1.00  0.00    -0.237 NA
HETATM    2  C7  UNL     1      26.389   2.811  51.124  1.00  0.00     0.204 C 
ENDROOT
BRANCH   1   3
HETATM    3  C6  UNL     1      26.437   4.568  49.522  1.00  0.00     0.245 C 
HETATM    4  N2  UNL     1      25.666   5.363  48.860  1.00  0.00    -0.191 NA
BRANCH   4   5
HETATM    5  C5  UNL     1      25.975   6.706  48.849  1.00  0.00     0.044 C 
BRANCH   5   6
HETATM    6  S1  UNL     1      26.387   8.515  48.864  1.00  0.00     0.037 SA
BRANCH   6   7
HETATM    7  C4  UNL     1      26.811  10.307  48.852  1.00  0.00     0.046 C 
BRANCH   7   8
HETATM    8  N1  UNL     1      27.120  11.650  48.820  1.00  0.00    -0.173 NA
HETATM    9  C3  UNL     1      28.337  12.027  48.777  1.00  0.00     0.172 C 
BRANCH   9  10
HETATM   10  C2  UNL     1      29.463  11.109  48.760  1.00  0.00     0.048 C 
HETATM   11  C1  UNL     1      30.625  11.592  49.109  1.00  0.00     0.015 C 
ENDBRANCH   9  10
BRANCH   9  12
HETATM   12  O3  UNL     1      28.469  13.407  48.749  1.00  0.00    -0.339 OA
HETATM   13  C14 UNL     1      28.353  14.132  47.530  1.00  0.00     0.211 C 
ENDBRANCH   9  12
ENDBRANCH   7   8
ENDBRANCH   6   7
ENDBRANCH   5   6
ENDBRANCH   4   5
ENDBRANCH   1   3
BRANCH   2  14
HETATM   14  N4  UNL     1      26.798   1.500  51.449  1.00  0.00    -0.374 N 
HETATM   15  H6  UNL     1      27.705   1.105  51.159  1.00  0.00     0.161 HD
BRANCH  14  16
HETATM   16  C8  UNL     1      25.908   0.658  52.230  1.00  0.00     0.131 C 
HETATM   17  C9  UNL     1      26.669  -0.562  52.611  1.00  0.00     0.034 C 
HETATM   18  C10 UNL     1      27.518  -0.277  53.592  1.00  0.00     0.067 C 
HETATM   19  C12 UNL     1      27.687   1.038  54.211  1.00  0.00     0.231 C 
HETATM   20  O2  UNL     1      26.575   1.845  54.216  1.00  0.00    -0.382 OA
HETATM   21  C13 UNL     1      25.496   1.338  53.511  1.00  0.00     0.197 C 
BRANCH  18  22
HETATM   22  O1  UNL     1      28.255  -1.389  53.985  1.00  0.00    -0.358 OA
HETATM   23  C11 UNL     1      29.475  -1.630  53.296  1.00  0.00     0.209 C 
ENDBRANCH  18  22
ENDBRANCH  14  16
ENDBRANCH   2  14
TORSDOF 10
ENDMDL
MODEL 6
REMARK VINA RESULT:      -5.3      2.479      3.001
REMARK  10 active torsions:
REMARK  status: ('A' for Active; 'I' for Inactive)
REMARK    1  A    between atoms: C2_2  and  C3_3 
REMARK    2  A    between atoms: C3_3  and  O3_21 
REMARK    3  A    between atoms: N1_4  and  C4_5 
REMARK    4  A    between atoms: C4_5  and  S1_6 
REMARK    5  A    between atoms: S1_6  and  C5_7 
REMARK    6  A    between atoms: C5_7  and  N2_8 
REMARK    7  A    between atoms: C6_9  and  N3_10 
REMARK    8  A    between atoms: C7_11  and  N4_12 
REMARK    9  A    between atoms: N4_12  and  C8_13 
REMARK   10  A    between atoms: C10_15  and  O1_16 
ROOT
HETATM    1  N3  UNL     1      26.059   2.590  50.664  1.00  0.00    -0.237 NA
HETATM    2  C7  UNL     1      26.197   2.569  51.953  1.00  0.00     0.204 C 
ENDROOT
BRANCH   1   3
HETATM    3  C6  UNL     1      26.590   3.638  49.866  1.00  0.00     0.245 C 
HETATM    4  N2  UNL     1      26.445   4.543  48.957  1.00  0.00    -0.191 NA
BRANCH   4   5
HETATM    5  C5  UNL     1      27.540   5.312  48.628  1.00  0.00     0.044 C 
BRANCH   5   6
HETATM    6  S1  UNL     1      29.025   6.324  48.165  1.00  0.00     0.037 SA
BRANCH   6   7
HETATM    7  C4  UNL     1      30.487   7.353  47.723  1.00  0.00     0.046 C 
BRANCH   7   8
HETATM    8  N1  UNL     1      31.577   8.117  47.368  1.00  0.00    -0.173 NA
HETATM    9  C3  UNL     1      31.783   9.242  47.931  1.00  0.00     0.172 C 
BRANCH   9  10
HETATM   10  C2  UNL     1      30.918   9.797  48.958  1.00  0.00     0.048 C 
HETATM   11  C1  UNL     1      30.674  11.078  48.898  1.00  0.00     0.015 C 
ENDBRANCH   9  10
BRANCH   9  12
HETATM   12  O3  UNL     1      32.920   9.878  47.458  1.00  0.00    -0.339 OA
HETATM   13  C14 UNL     1      34.159   9.187  47.354  1.00  0.00     0.211 C 
ENDBRANCH   9  12
ENDBRANCH   7   8
ENDBRANCH   6   7
ENDBRANCH   5   6
ENDBRANCH   4   5
ENDBRANCH   1   3
BRANCH   2  14
HETATM   14  N4  UNL     1      25.621   1.468  52.625  1.00  0.00    -0.374 N 
HETATM   15  H6  UNL     1      24.859   1.564  53.312  1.00  0.00     0.161 HD
BRANCH  14  16
HETATM   16  C8  UNL     1      26.117   0.132  52.340  1.00  0.00     0.131 C 
HETATM   17  C9  UNL     1      27.536   0.081  52.781  1.00  0.00     0.034 C 
HETATM   18  C10 UNL     1      27.596  -0.007  54.105  1.00  0.00     0.067 C 
HETATM   19  C12 UNL     1      26.443  -0.047  55.004  1.00  0.00     0.231 C 
HETATM   20  O2  UNL     1      25.296  -0.596  54.483  1.00  0.00    -0.382 OA
HETATM   21  C13 UNL     1      25.370  -0.909  53.137  1.00  0.00     0.197 C 
BRANCH  18  22
HETATM   22  O1  UNL     1      28.907  -0.058  54.566  1.00  0.00    -0.358 OA
HETATM   23  C11 UNL     1      29.819  -0.864  53.833  1.00  0.00     0.209 C 
ENDBRANCH  18  22
ENDBRANCH  14  16
ENDBRANCH   2  14
TORSDOF 10
ENDMDL
MODEL 7
REMARK VINA RESULT:      -5.3      4.931     10.576
REMARK  10 active torsions:
REMARK  status: ('A' for Active; 'I' for Inactive)
REMARK    1  A    between atoms: C2_2  and  C3_3 
REMARK    2  A    between atoms: C3_3  and  O3_21 
REMARK    3  A    between atoms: N1_4  and  C4_5 
REMARK    4  A    between atoms: C4_5  and  S1_6 
REMARK    5  A    between atoms: S1_6  and  C5_7 
REMARK    6  A    between atoms: C5_7  and  N2_8 
REMARK    7  A    between atoms: C6_9  and  N3_10 
REMARK    8  A    between atoms: C7_11  and  N4_12 
REMARK    9  A    between atoms: N4_12  and  C8_13 
REMARK   10  A    between atoms: C10_15  and  O1_16 
ROOT
HETATM    1  N3  UNL     1      29.403   5.975  47.932  1.00  0.00    -0.237 NA
HETATM    2  C7  UNL     1      30.644   5.899  48.302  1.00  0.00     0.204 C 
ENDROOT
BRANCH   1   3
HETATM    3  C6  UNL     1      28.384   5.199  48.546  1.00  0.00     0.245 C 
HETATM    4  N2  UNL     1      27.169   4.768  48.584  1.00  0.00    -0.191 NA
BRANCH   4   5
HETATM    5  C5  UNL     1      26.814   3.919  49.611  1.00  0.00     0.044 C 
BRANCH   5   6
HETATM    6  S1  UNL     1      26.360   2.757  50.984  1.00  0.00     0.037 SA
BRANCH   6   7
HETATM    7  C4  UNL     1      25.919   1.579  52.329  1.00  0.00     0.046 C 
BRANCH   7   8
HETATM    8  N1  UNL     1      25.565   0.700  53.329  1.00  0.00    -0.173 NA
HETATM    9  C3  UNL     1      26.274  -0.336  53.554  1.00  0.00     0.172 C 
BRANCH   9  10
HETATM   10  C2  UNL     1      27.473  -0.667  52.803  1.00  0.00     0.048 C 
HETATM   11  C1  UNL     1      28.550  -0.931  53.493  1.00  0.00     0.015 C 
ENDBRANCH   9  10
BRANCH   9  12
HETATM   12  O3  UNL     1      25.777  -1.111  54.590  1.00  0.00    -0.339 OA
HETATM   13  C14 UNL     1      24.408  -1.038  54.971  1.00  0.00     0.211 C 
ENDBRANCH   9  12
ENDBRANCH   7   8
ENDBRANCH   6   7
ENDBRANCH   5   6
ENDBRANCH   4   5
ENDBRANCH   1   3
BRANCH   2  14
HETATM   14  N4  UNL     1      31.554   6.726  47.608  1.00  0.00    -0.374 N 
HETATM   15  H6  UNL     1      31.345   7.148  46.691  1.00  0.00     0.161 HD
BRANCH  14  16
HETATM   16  C8  UNL     1      32.849   7.003  48.206  1.00  0.00     0.131 C 
HETATM   17  C9  UNL     1      33.654   5.755  48.125  1.00  0.00     0.034 C 
HETATM   18  C10 UNL     1      34.088   5.576  46.883  1.00  0.00     0.067 C 
HETATM   19  C12 UNL     1      33.819   6.468  45.755  1.00  0.00     0.231 C 
HETATM   20  O2  UNL     1      33.633   7.792  46.069  1.00  0.00    -0.382 OA
HETATM   21  C13 UNL     1      33.595   8.059  47.428  1.00  0.00     0.197 C 
BRANCH  18  22
HETATM   22  O1  UNL     1      34.848   4.418  46.757  1.00  0.00    -0.358 OA
HETATM   23  C11 UNL     1      34.711   3.441  47.781  1.00  0.00     0.209 C 
ENDBRANCH  18  22
ENDBRANCH  14  16
ENDBRANCH   2  14
TORSDOF 10
ENDMDL
MODEL 8
REMARK VINA RESULT:      -5.1      4.760     10.407
REMARK  10 active torsions:
REMARK  status: ('A' for Active; 'I' for Inactive)
REMARK    1  A    between atoms: C2_2  and  C3_3 
REMARK    2  A    between atoms: C3_3  and  O3_21 
REMARK    3  A    between atoms: N1_4  and  C4_5 
REMARK    4  A    between atoms: C4_5  and  S1_6 
REMARK    5  A    between atoms: S1_6  and  C5_7 
REMARK    6  A    between atoms: C5_7  and  N2_8 
REMARK    7  A    between atoms: C6_9  and  N3_10 
REMARK    8  A    between atoms: C7_11  and  N4_12 
REMARK    9  A    between atoms: N4_12  and  C8_13 
REMARK   10  A    between atoms: C10_15  and  O1_16 
ROOT
HETATM    1  N3  UNL     1      28.497   4.908  48.439  1.00  0.00    -0.237 NA
HETATM    2  C7  UNL     1      28.900   6.091  48.093  1.00  0.00     0.204 C 
ENDROOT
BRANCH   1   3
HETATM    3  C6  UNL     1      27.201   4.678  48.971  1.00  0.00     0.245 C 
HETATM    4  N2  UNL     1      25.946   4.970  49.041  1.00  0.00    -0.191 NA
BRANCH   4   5
HETATM    5  C5  UNL     1      25.153   4.226  49.888  1.00  0.00     0.044 C 
BRANCH   5   6
HETATM    6  S1  UNL     1      24.070   3.251  51.036  1.00  0.00     0.037 SA
BRANCH   6   7
HETATM    7  C4  UNL     1      22.972   2.283  52.154  1.00  0.00     0.046 C 
BRANCH   7   8
HETATM    8  N1  UNL     1      22.145   1.579  53.001  1.00  0.00    -0.173 NA
HETATM    9  C3  UNL     1      22.478   0.415  53.403  1.00  0.00     0.172 C 
BRANCH   9  10
HETATM   10  C2  UNL     1      23.712  -0.246  53.016  1.00  0.00     0.048 C 
HETATM   11  C1  UNL     1      24.711  -0.172  53.854  1.00  0.00     0.015 C 
ENDBRANCH   9  10
BRANCH   9  12
HETATM   12  O3  UNL     1      21.535  -0.150  54.248  1.00  0.00    -0.339 OA
HETATM   13  C14 UNL     1      21.451  -1.560  54.417  1.00  0.00     0.211 C 
ENDBRANCH   9  12
ENDBRANCH   7   8
ENDBRANCH   6   7
ENDBRANCH   5   6
ENDBRANCH   4   5
ENDBRANCH   1   3
BRANCH   2  14
HETATM   14  N4  UNL     1      30.211   6.179  47.578  1.00  0.00    -0.374 N 
HETATM   15  H6  UNL     1      30.501   6.893  46.893  1.00  0.00     0.161 HD
BRANCH  14  16
HETATM   16  C8  UNL     1      31.209   5.223  48.027  1.00  0.00     0.131 C 
HETATM   17  C9  UNL     1      32.058   4.881  46.855  1.00  0.00     0.034 C 
HETATM   18  C10 UNL     1      32.898   5.877  46.599  1.00  0.00     0.067 C 
HETATM   19  C12 UNL     1      32.982   7.129  47.351  1.00  0.00     0.231 C 
HETATM   20  O2  UNL     1      32.629   7.055  48.677  1.00  0.00    -0.382 OA
HETATM   21  C13 UNL     1      32.118   5.829  49.067  1.00  0.00     0.197 C 
BRANCH  18  22
HETATM   22  O1  UNL     1      33.716   5.603  45.507  1.00  0.00    -0.358 OA
HETATM   23  C11 UNL     1      33.165   4.799  44.474  1.00  0.00     0.209 C 
ENDBRANCH  18  22
ENDBRANCH  14  16
ENDBRANCH   2  14
TORSDOF 10
ENDMDL
MODEL 9
REMARK VINA RESULT:      -5.1      2.364      2.633
REMARK  10 active torsions:
REMARK  status: ('A' for Active; 'I' for Inactive)
REMARK    1  A    between atoms: C2_2  and  C3_3 
REMARK    2  A    between atoms: C3_3  and  O3_21 
REMARK    3  A    between atoms: N1_4  and  C4_5 
REMARK    4  A    between atoms: C4_5  and  S1_6 
REMARK    5  A    between atoms: S1_6  and  C5_7 
REMARK    6  A    between atoms: C5_7  and  N2_8 
REMARK    7  A    between atoms: C6_9  and  N3_10 
REMARK    8  A    between atoms: C7_11  and  N4_12 
REMARK    9  A    between atoms: N4_12  and  C8_13 
REMARK   10  A    between atoms: C10_15  and  O1_16 
ROOT
HETATM    1  N3  UNL     1      23.658   3.486  52.157  1.00  0.00    -0.237 NA
HETATM    2  C7  UNL     1      24.539   3.058  53.007  1.00  0.00     0.204 C 
ENDROOT
BRANCH   1   3
HETATM    3  C6  UNL     1      23.749   4.771  51.561  1.00  0.00     0.245 C 
HETATM    4  N2  UNL     1      23.192   5.796  51.008  1.00  0.00    -0.191 NA
BRANCH   4   5
HETATM    5  C5  UNL     1      24.001   6.840  50.614  1.00  0.00     0.044 C 
BRANCH   5   6
HETATM    6  S1  UNL     1      25.066   8.259  50.072  1.00  0.00     0.037 SA
BRANCH   6   7
HETATM    7  C4  UNL     1      26.148   9.648  49.532  1.00  0.00     0.046 C 
BRANCH   7   8
HETATM    8  N1  UNL     1      26.975  10.671  49.121  1.00  0.00    -0.173 NA
HETATM    9  C3  UNL     1      28.238  10.501  49.086  1.00  0.00     0.172 C 
BRANCH   9  10
HETATM   10  C2  UNL     1      28.892   9.260  49.465  1.00  0.00     0.048 C 
HETATM   11  C1  UNL     1      29.809   8.804  48.655  1.00  0.00     0.015 C 
ENDBRANCH   9  10
BRANCH   9  12
HETATM   12  O3  UNL     1      28.919  11.627  48.650  1.00  0.00    -0.339 OA
HETATM   13  C14 UNL     1      28.441  12.935  48.946  1.00  0.00     0.211 C 
ENDBRANCH   9  12
ENDBRANCH   7   8
ENDBRANCH   6   7
ENDBRANCH   5   6
ENDBRANCH   4   5
ENDBRANCH   1   3
BRANCH   2  14
HETATM   14  N4  UNL     1      24.329   1.760  53.524  1.00  0.00    -0.374 N 
HETATM   15  H6  UNL     1      24.159   1.572  54.523  1.00  0.00     0.161 HD
BRANCH  14  16
HETATM   16  C8  UNL     1      24.350   0.629  52.612  1.00  0.00     0.131 C 
HETATM   17  C9  UNL     1      25.739   0.098  52.593  1.00  0.00     0.034 C 
HETATM   18  C10 UNL     1      25.976  -0.590  53.704  1.00  0.00     0.067 C 
HETATM   19  C12 UNL     1      25.019  -0.798  54.792  1.00  0.00     0.231 C 
HETATM   20  O2  UNL     1      23.694  -0.809  54.430  1.00  0.00    -0.382 OA
HETATM   21  C13 UNL     1      23.459  -0.486  53.104  1.00  0.00     0.197 C 
BRANCH  18  22
HETATM   22  O1  UNL     1      27.266  -1.108  53.733  1.00  0.00    -0.358 OA
HETATM   23  C11 UNL     1      28.337  -0.180  53.621  1.00  0.00     0.209 C 
ENDBRANCH  18  22
ENDBRANCH  14  16
ENDBRANCH   2  14
TORSDOF 10
ENDMDL
