MODEL 1
REMARK VINA RESULT:      -7.4      0.000      0.000
REMARK  2 active torsions:
REMARK  status: ('A' for Active; 'I' for Inactive)
REMARK    1  A    between atoms: S1_2  and  C2_3 
REMARK    2  A    between atoms: N4_13  and  S2_14 
ROOT
HETATM    1  C2  UNL     1      22.854   1.859  51.621  1.00  0.00     0.110 C 
HETATM    2  C3  UNL     1      23.736   0.992  52.183  1.00  0.00     0.129 C 
HETATM    3  N1  UNL     1      24.789   1.697  52.875  1.00  0.00    -0.336 N 
HETATM    4  C4  UNL     1      24.367   2.925  53.590  1.00  0.00     0.205 C 
HETATM    5  C5  UNL     1      23.887   3.819  52.470  1.00  0.00     0.124 C 
HETATM    6  N2  UNL     1      22.940   3.304  51.771  1.00  0.00    -0.225 NA
HETATM    7  N3  UNL     1      23.966   5.066  51.739  1.00  0.00    -0.339 N 
HETATM    8  C6  UNL     1      24.852   5.244  50.439  1.00  0.00     0.084 A 
HETATM    9  C7  UNL     1      25.930   4.241  50.062  1.00  0.00     0.199 A 
HETATM   10  C8  UNL     1      26.845   3.390  49.742  1.00  0.00     0.117 A 
HETATM   11  N4  UNL     1      26.800   4.342  48.850  1.00  0.00    -0.220 NA
HETATM   12  S2  UNL     1      25.549   5.593  49.202  1.00  0.00    -0.071 SA
HETATM   13  C9  UNL     1      26.591   2.549  50.904  1.00  0.00     0.120 C 
HETATM   14  N5  UNL     1      26.909   2.394  52.146  1.00  0.00    -0.251 NA
HETATM   15  C10 UNL     1      26.197   1.254  52.820  1.00  0.00     0.224 C 
HETATM   16  C11 UNL     1      26.432   0.082  52.004  1.00  0.00     0.065 C 
HETATM   17  C12 UNL     1      27.490  -0.577  52.508  1.00  0.00     0.103 C 
HETATM   18  N6  UNL     1      27.916   0.185  53.639  1.00  0.00    -0.327 N 
HETATM   19  N7  UNL     1      26.817   0.993  54.053  1.00  0.00    -0.183 NA
HETATM   20  C13 UNL     1      25.990   0.088  54.849  1.00  0.00     0.141 C 
HETATM   21  H7  UNL     1      23.604   5.989  51.762  1.00  0.00     0.167 HD
HETATM   22  H12 UNL     1      28.693   0.383  54.268  1.00  0.00     0.180 HD
ENDROOT
BRANCH   1  23
HETATM   23  S1  UNL     1      21.593   0.941  50.723  1.00  0.00    -0.113 SA
HETATM   24  C1  UNL     1      21.820   1.465  48.967  1.00  0.00     0.097 C 
ENDBRANCH   1  23
TORSDOF 2
ENDMDL
MODEL 2
REMARK VINA RESULT:      -6.7      8.008     10.686
REMARK  2 active torsions:
REMARK  status: ('A' for Active; 'I' for Inactive)
REMARK    1  A    between atoms: S1_2  and  C2_3 
REMARK    2  A    between atoms: N4_13  and  S2_14 
ROOT
HETATM    1  C2  UNL     1      33.612   8.134  46.213  1.00  0.00     0.110 C 
HETATM    2  C3  UNL     1      32.318   8.408  46.521  1.00  0.00     0.129 C 
HETATM    3  N1  UNL     1      31.999   7.970  47.860  1.00  0.00    -0.336 N 
HETATM    4  C4  UNL     1      33.076   8.153  48.861  1.00  0.00     0.205 C 
HETATM    5  C5  UNL     1      34.175   7.254  48.343  1.00  0.00     0.124 C 
HETATM    6  N2  UNL     1      34.555   7.541  47.150  1.00  0.00    -0.225 NA
HETATM    7  N3  UNL     1      35.086   6.146  48.540  1.00  0.00    -0.339 N 
HETATM    8  C6  UNL     1      34.745   4.665  48.092  1.00  0.00     0.084 A 
HETATM    9  C7  UNL     1      33.329   4.241  47.740  1.00  0.00     0.199 A 
HETATM   10  C8  UNL     1      32.126   3.881  47.442  1.00  0.00     0.117 A 
HETATM   11  N4  UNL     1      32.935   2.865  47.307  1.00  0.00    -0.220 NA
HETATM   12  S2  UNL     1      34.650   3.259  47.702  1.00  0.00    -0.071 SA
HETATM   13  C9  UNL     1      31.574   5.204  47.701  1.00  0.00     0.120 C 
HETATM   14  N5  UNL     1      31.096   5.949  48.641  1.00  0.00    -0.251 NA
HETATM   15  C10 UNL     1      30.710   7.329  48.188  1.00  0.00     0.224 C 
HETATM   16  C11 UNL     1      29.814   7.158  47.065  1.00  0.00     0.065 C 
HETATM   17  C12 UNL     1      28.550   7.200  47.522  1.00  0.00     0.103 C 
HETATM   18  N6  UNL     1      28.658   7.395  48.933  1.00  0.00    -0.327 N 
HETATM   19  N7  UNL     1      29.947   7.943  49.196  1.00  0.00    -0.183 NA
HETATM   20  C13 UNL     1      29.792   9.369  48.909  1.00  0.00     0.141 C 
HETATM   21  H7  UNL     1      35.988   5.953  48.905  1.00  0.00     0.167 HD
HETATM   22  H12 UNL     1      28.181   7.298  49.829  1.00  0.00     0.180 HD
ENDROOT
BRANCH   1  23
HETATM   23  S1  UNL     1      33.951   8.644  44.520  1.00  0.00    -0.113 SA
HETATM   24  C1  UNL     1      35.519   9.612  44.647  1.00  0.00     0.097 C 
ENDBRANCH   1  23
TORSDOF 2
ENDMDL
MODEL 3
REMARK VINA RESULT:      -6.5      3.113      4.339
REMARK  2 active torsions:
REMARK  status: ('A' for Active; 'I' for Inactive)
REMARK    1  A    between atoms: S1_2  and  C2_3 
REMARK    2  A    between atoms: N4_13  and  S2_14 
ROOT
HETATM    1  C2  UNL     1      22.704   5.740  47.799  1.00  0.00     0.110 C 
HETATM    2  C3  UNL     1      22.315   4.769  48.666  1.00  0.00     0.129 C 
HETATM    3  N1  UNL     1      22.906   4.968  49.969  1.00  0.00    -0.336 N 
HETATM    4  C4  UNL     1      23.019   6.379  50.406  1.00  0.00     0.205 C 
HETATM    5  C5  UNL     1      23.964   6.973  49.387  1.00  0.00     0.124 C 
HETATM    6  N2  UNL     1      23.550   6.863  48.176  1.00  0.00    -0.225 NA
HETATM    7  N3  UNL     1      25.197   7.663  49.073  1.00  0.00    -0.339 N 
HETATM    8  C6  UNL     1      26.535   6.902  48.703  1.00  0.00     0.084 A 
HETATM    9  C7  UNL     1      26.714   5.418  48.976  1.00  0.00     0.199 A 
HETATM   10  C8  UNL     1      26.865   4.157  49.208  1.00  0.00     0.117 A 
HETATM   11  N4  UNL     1      27.945   4.634  48.650  1.00  0.00    -0.220 NA
HETATM   12  S2  UNL     1      27.842   6.396  48.281  1.00  0.00    -0.071 SA
HETATM   13  C9  UNL     1      25.537   4.017  49.789  1.00  0.00     0.120 C 
HETATM   14  N5  UNL     1      24.889   4.124  50.900  1.00  0.00    -0.251 NA
HETATM   15  C10 UNL     1      23.417   3.842  50.777  1.00  0.00     0.224 C 
HETATM   16  C11 UNL     1      23.298   2.543  50.152  1.00  0.00     0.065 C 
HETATM   17  C12 UNL     1      23.163   1.619  51.119  1.00  0.00     0.103 C 
HETATM   18  N6  UNL     1      23.200   2.343  52.350  1.00  0.00    -0.327 N 
HETATM   19  N7  UNL     1      22.870   3.699  52.063  1.00  0.00    -0.183 NA
HETATM   20  C13 UNL     1      21.409   3.702  51.990  1.00  0.00     0.141 C 
HETATM   21  H7  UNL     1      25.558   8.583  48.988  1.00  0.00     0.167 HD
HETATM   22  H12 UNL     1      23.370   2.277  53.354  1.00  0.00     0.180 HD
ENDROOT
BRANCH   1  23
HETATM   23  S1  UNL     1      21.990   5.423  46.178  1.00  0.00    -0.113 SA
HETATM   24  C1  UNL     1      21.842   3.583  46.103  1.00  0.00     0.097 C 
ENDBRANCH   1  23
TORSDOF 2
ENDMDL
MODEL 4
REMARK VINA RESULT:      -6.4     21.030     23.368
REMARK  2 active torsions:
REMARK  status: ('A' for Active; 'I' for Inactive)
REMARK    1  A    between atoms: S1_2  and  C2_3 
REMARK    2  A    between atoms: N4_13  and  S2_14 
ROOT
HETATM    1  C2  UNL     1      38.589  -0.485  68.856  1.00  0.00     0.110 C 
HETATM    2  C3  UNL     1      39.839  -0.086  69.207  1.00  0.00     0.129 C 
HETATM    3  N1  UNL     1      40.800  -0.431  68.186  1.00  0.00    -0.336 N 
HETATM    4  C4  UNL     1      40.321  -0.294  66.790  1.00  0.00     0.205 C 
HETATM    5  C5  UNL     1      39.203  -1.309  66.717  1.00  0.00     0.124 C 
HETATM    6  N2  UNL     1      38.273  -1.112  67.580  1.00  0.00    -0.225 NA
HETATM    7  N3  UNL     1      38.611  -2.481  66.107  1.00  0.00    -0.339 N 
HETATM    8  C6  UNL     1      38.840  -3.945  66.662  1.00  0.00     0.084 A 
HETATM    9  C7  UNL     1      39.950  -4.262  67.651  1.00  0.00     0.199 A 
HETATM   10  C8  UNL     1      40.893  -4.531  68.490  1.00  0.00     0.117 A 
HETATM   11  N4  UNL     1      40.222  -5.618  68.220  1.00  0.00    -0.220 NA
HETATM   12  S2  UNL     1      38.875  -5.355  67.050  1.00  0.00    -0.071 SA
HETATM   13  C9  UNL     1      41.368  -3.154  68.529  1.00  0.00     0.120 C 
HETATM   14  N5  UNL     1      42.161  -2.327  67.934  1.00  0.00    -0.251 NA
HETATM   15  C10 UNL     1      42.146  -0.942  68.517  1.00  0.00     0.224 C 
HETATM   16  C11 UNL     1      42.408  -1.088  69.933  1.00  0.00     0.065 C 
HETATM   17  C12 UNL     1      43.725  -0.916  70.138  1.00  0.00     0.103 C 
HETATM   18  N6  UNL     1      44.286  -0.664  68.849  1.00  0.00    -0.327 N 
HETATM   19  N7  UNL     1      43.233  -0.217  68.000  1.00  0.00    -0.183 NA
HETATM   20  C13 UNL     1      43.090   1.201  68.326  1.00  0.00     0.141 C 
HETATM   21  H7  UNL     1      38.017  -2.732  65.353  1.00  0.00     0.167 HD
HETATM   22  H12 UNL     1      45.141  -0.677  68.293  1.00  0.00     0.180 HD
ENDROOT
BRANCH   1  23
HETATM   23  S1  UNL     1      37.434  -0.088  70.178  1.00  0.00    -0.113 SA
HETATM   24  C1  UNL     1      37.937   1.605  70.721  1.00  0.00     0.097 C 
ENDBRANCH   1  23
TORSDOF 2
ENDMDL
MODEL 5
REMARK VINA RESULT:      -6.4      2.383      4.982
REMARK  2 active torsions:
REMARK  status: ('A' for Active; 'I' for Inactive)
REMARK    1  A    between atoms: S1_2  and  C2_3 
REMARK    2  A    between atoms: N4_13  and  S2_14 
ROOT
HETATM    1  C2  UNL     1      22.107   4.164  50.844  1.00  0.00     0.110 C 
HETATM    2  C3  UNL     1      23.367   3.985  51.317  1.00  0.00     0.129 C 
HETATM    3  N1  UNL     1      23.827   2.637  51.075  1.00  0.00    -0.336 N 
HETATM    4  C4  UNL     1      23.407   2.045  49.784  1.00  0.00     0.205 C 
HETATM    5  C5  UNL     1      21.902   1.992  49.911  1.00  0.00     0.124 C 
HETATM    6  N2  UNL     1      21.363   3.138  50.127  1.00  0.00    -0.225 NA
HETATM    7  N3  UNL     1      20.669   1.233  49.904  1.00  0.00    -0.339 N 
HETATM    8  C6  UNL     1      20.011   0.655  51.223  1.00  0.00     0.084 A 
HETATM    9  C7  UNL     1      20.783   0.561  52.529  1.00  0.00     0.199 A 
HETATM   10  C8  UNL     1      21.440   0.481  53.637  1.00  0.00     0.117 A 
HETATM   11  N4  UNL     1      20.226   0.031  53.811  1.00  0.00    -0.220 NA
HETATM   12  S2  UNL     1      19.218   0.096  52.318  1.00  0.00    -0.071 SA
HETATM   13  C9  UNL     1      22.654   1.041  53.058  1.00  0.00     0.120 C 
HETATM   14  N5  UNL     1      23.729   0.716  52.421  1.00  0.00    -0.251 NA
HETATM   15  C10 UNL     1      24.610   1.885  52.077  1.00  0.00     0.224 C 
HETATM   16  C11 UNL     1      24.853   2.595  53.314  1.00  0.00     0.065 C 
HETATM   17  C12 UNL     1      26.017   2.160  53.829  1.00  0.00     0.103 C 
HETATM   18  N6  UNL     1      26.499   1.175  52.912  1.00  0.00    -0.327 N 
HETATM   19  N7  UNL     1      25.862   1.406  51.658  1.00  0.00    -0.183 NA
HETATM   20  C13 UNL     1      26.639   2.490  51.058  1.00  0.00     0.141 C 
HETATM   21  H7  UNL     1      19.980   0.899  49.274  1.00  0.00     0.167 HD
HETATM   22  H12 UNL     1      27.116   0.373  52.796  1.00  0.00     0.180 HD
ENDROOT
BRANCH   1  23
HETATM   23  S1  UNL     1      21.553   5.835  51.215  1.00  0.00    -0.113 SA
HETATM   24  C1  UNL     1      23.000   6.896  50.776  1.00  0.00     0.097 C 
ENDBRANCH   1  23
TORSDOF 2
ENDMDL
MODEL 6
REMARK VINA RESULT:      -6.2      7.255      9.730
REMARK  2 active torsions:
REMARK  status: ('A' for Active; 'I' for Inactive)
REMARK    1  A    between atoms: S1_2  and  C2_3 
REMARK    2  A    between atoms: N4_13  and  S2_14 
ROOT
HETATM    1  C2  UNL     1      29.211   7.636  48.582  1.00  0.00     0.110 C 
HETATM    2  C3  UNL     1      30.194   6.855  48.064  1.00  0.00     0.129 C 
HETATM    3  N1  UNL     1      31.496   7.436  48.297  1.00  0.00    -0.336 N 
HETATM    4  C4  UNL     1      31.667   8.106  49.607  1.00  0.00     0.205 C 
HETATM    5  C5  UNL     1      30.672   9.243  49.537  1.00  0.00     0.124 C 
HETATM    6  N2  UNL     1      29.465   8.857  49.332  1.00  0.00    -0.225 NA
HETATM    7  N3  UNL     1      30.382  10.660  49.594  1.00  0.00    -0.339 N 
HETATM    8  C6  UNL     1      30.326  11.577  48.304  1.00  0.00     0.084 A 
HETATM    9  C7  UNL     1      30.896  11.120  46.971  1.00  0.00     0.199 A 
HETATM   10  C8  UNL     1      31.381  10.732  45.840  1.00  0.00     0.117 A 
HETATM   11  N4  UNL     1      30.875  11.929  45.714  1.00  0.00    -0.220 NA
HETATM   12  S2  UNL     1      30.167  12.571  47.243  1.00  0.00    -0.071 SA
HETATM   13  C9  UNL     1      31.816   9.446  46.370  1.00  0.00     0.120 C 
HETATM   14  N5  UNL     1      32.801   8.865  46.969  1.00  0.00    -0.251 NA
HETATM   15  C10 UNL     1      32.559   7.413  47.272  1.00  0.00     0.224 C 
HETATM   16  C11 UNL     1      32.184   6.789  46.022  1.00  0.00     0.065 C 
HETATM   17  C12 UNL     1      33.287   6.256  45.468  1.00  0.00     0.103 C 
HETATM   18  N6  UNL     1      34.352   6.550  46.373  1.00  0.00    -0.327 N 
HETATM   19  N7  UNL     1      33.775   6.816  47.648  1.00  0.00    -0.183 NA
HETATM   20  C13 UNL     1      33.529   5.490  48.212  1.00  0.00     0.141 C 
HETATM   21  H7  UNL     1      30.166  11.370  50.252  1.00  0.00     0.167 HD
HETATM   22  H12 UNL     1      35.363   6.647  46.471  1.00  0.00     0.180 HD
ENDROOT
BRANCH   1  23
HETATM   23  S1  UNL     1      27.606   6.906  48.220  1.00  0.00    -0.113 SA
HETATM   24  C1  UNL     1      27.838   5.109  48.583  1.00  0.00     0.097 C 
ENDBRANCH   1  23
TORSDOF 2
ENDMDL
MODEL 7
REMARK VINA RESULT:      -6.2      2.577      5.656
REMARK  2 active torsions:
REMARK  status: ('A' for Active; 'I' for Inactive)
REMARK    1  A    between atoms: S1_2  and  C2_3 
REMARK    2  A    between atoms: N4_13  and  S2_14 
ROOT
HETATM    1  C2  UNL     1      23.108   4.731  50.229  1.00  0.00     0.110 C 
HETATM    2  C3  UNL     1      21.854   4.232  50.084  1.00  0.00     0.129 C 
HETATM    3  N1  UNL     1      21.288   3.869  51.363  1.00  0.00    -0.336 N 
HETATM    4  C4  UNL     1      21.621   4.776  52.485  1.00  0.00     0.205 C 
HETATM    5  C5  UNL     1      23.122   4.633  52.600  1.00  0.00     0.124 C 
HETATM    6  N2  UNL     1      23.750   4.931  51.521  1.00  0.00    -0.225 NA
HETATM    7  N3  UNL     1      24.294   4.307  53.384  1.00  0.00    -0.339 N 
HETATM    8  C6  UNL     1      24.949   2.865  53.389  1.00  0.00     0.084 A 
HETATM    9  C7  UNL     1      24.213   1.650  52.848  1.00  0.00     0.199 A 
HETATM   10  C8  UNL     1      23.588   0.618  52.389  1.00  0.00     0.117 A 
HETATM   11  N4  UNL     1      24.770   0.262  52.816  1.00  0.00    -0.220 NA
HETATM   12  S2  UNL     1      25.733   1.634  53.483  1.00  0.00    -0.071 SA
HETATM   13  C9  UNL     1      22.401   1.386  52.037  1.00  0.00     0.120 C 
HETATM   14  N5  UNL     1      21.285   1.824  52.517  1.00  0.00    -0.251 NA
HETATM   15  C10 UNL     1      20.484   2.643  51.544  1.00  0.00     0.224 C 
HETATM   16  C11 UNL     1      20.333   1.835  50.353  1.00  0.00     0.065 C 
HETATM   17  C12 UNL     1      19.157   1.187  50.428  1.00  0.00     0.103 C 
HETATM   18  N6  UNL     1      18.575   1.590  51.669  1.00  0.00    -0.327 N 
HETATM   19  N7  UNL     1      19.186   2.818  52.054  1.00  0.00    -0.183 NA
HETATM   20  C13 UNL     1      18.473   3.830  51.276  1.00  0.00     0.141 C 
HETATM   21  H7  UNL     1      24.936   4.729  54.012  1.00  0.00     0.167 HD
HETATM   22  H12 UNL     1      17.896   1.349  52.391  1.00  0.00     0.180 HD
ENDROOT
BRANCH   1  23
HETATM   23  S1  UNL     1      23.796   5.117  48.612  1.00  0.00    -0.113 SA
HETATM   24  C1  UNL     1      25.538   5.615  48.970  1.00  0.00     0.097 C 
ENDBRANCH   1  23
TORSDOF 2
ENDMDL
MODEL 8
REMARK VINA RESULT:      -6.1      7.305      9.605
REMARK  2 active torsions:
REMARK  status: ('A' for Active; 'I' for Inactive)
REMARK    1  A    between atoms: S1_2  and  C2_3 
REMARK    2  A    between atoms: N4_13  and  S2_14 
ROOT
HETATM    1  C2  UNL     1      30.370  10.298  47.182  1.00  0.00     0.110 C 
HETATM    2  C3  UNL     1      29.024  10.224  47.020  1.00  0.00     0.129 C 
HETATM    3  N1  UNL     1      28.393   9.628  48.175  1.00  0.00    -0.336 N 
HETATM    4  C4  UNL     1      28.983   9.999  49.482  1.00  0.00     0.205 C 
HETATM    5  C5  UNL     1      30.383   9.435  49.392  1.00  0.00     0.124 C 
HETATM    6  N2  UNL     1      31.058   9.891  48.399  1.00  0.00    -0.225 NA
HETATM    7  N3  UNL     1      31.424   8.574  49.913  1.00  0.00    -0.339 N 
HETATM    8  C6  UNL     1      31.643   7.090  49.405  1.00  0.00     0.084 A 
HETATM    9  C7  UNL     1      30.587   6.357  48.594  1.00  0.00     0.199 A 
HETATM   10  C8  UNL     1      29.690   5.735  47.906  1.00  0.00     0.117 A 
HETATM   11  N4  UNL     1      30.727   4.961  48.078  1.00  0.00    -0.220 NA
HETATM   12  S2  UNL     1      32.047   5.735  49.033  1.00  0.00    -0.071 SA
HETATM   13  C9  UNL     1      28.766   6.861  47.932  1.00  0.00     0.120 C 
HETATM   14  N5  UNL     1      27.825   7.397  48.636  1.00  0.00    -0.251 NA
HETATM   15  C10 UNL     1      27.277   8.669  48.050  1.00  0.00     0.224 C 
HETATM   16  C11 UNL     1      26.889   8.362  46.691  1.00  0.00     0.065 C 
HETATM   17  C12 UNL     1      25.579   8.060  46.683  1.00  0.00     0.103 C 
HETATM   18  N6  UNL     1      25.149   8.177  48.040  1.00  0.00    -0.327 N 
HETATM   19  N7  UNL     1      26.089   9.005  48.721  1.00  0.00    -0.183 NA
HETATM   20  C13 UNL     1      25.683  10.365  48.371  1.00  0.00     0.141 C 
HETATM   21  H7  UNL     1      32.166   8.584  50.570  1.00  0.00     0.167 HD
HETATM   22  H12 UNL     1      24.439   7.903  48.718  1.00  0.00     0.180 HD
ENDROOT
BRANCH   1  23
HETATM   23  S1  UNL     1      31.120  10.993  45.701  1.00  0.00    -0.113 SA
HETATM   24  C1  UNL     1      30.245  12.603  45.467  1.00  0.00     0.097 C 
ENDBRANCH   1  23
TORSDOF 2
ENDMDL
MODEL 9
REMARK VINA RESULT:      -6.1      3.979      6.118
REMARK  2 active torsions:
REMARK  status: ('A' for Active; 'I' for Inactive)
REMARK    1  A    between atoms: S1_2  and  C2_3 
REMARK    2  A    between atoms: N4_13  and  S2_14 
ROOT
HETATM    1  C2  UNL     1      21.916   3.914  47.656  1.00  0.00     0.110 C 
HETATM    2  C3  UNL     1      22.647   4.986  48.056  1.00  0.00     0.129 C 
HETATM    3  N1  UNL     1      23.512   4.643  49.160  1.00  0.00    -0.336 N 
HETATM    4  C4  UNL     1      24.115   3.292  49.099  1.00  0.00     0.205 C 
HETATM    5  C5  UNL     1      22.910   2.382  49.171  1.00  0.00     0.124 C 
HETATM    6  N2  UNL     1      22.056   2.585  48.234  1.00  0.00    -0.225 NA
HETATM    7  N3  UNL     1      22.186   1.308  49.819  1.00  0.00    -0.339 N 
HETATM    8  C6  UNL     1      21.072   1.564  50.914  1.00  0.00     0.084 A 
HETATM    9  C7  UNL     1      20.919   2.911  51.602  1.00  0.00     0.199 A 
HETATM   10  C8  UNL     1      20.791   4.054  52.186  1.00  0.00     0.117 A 
HETATM   11  N4  UNL     1      19.890   3.225  52.640  1.00  0.00    -0.220 NA
HETATM   12  S2  UNL     1      19.981   1.588  51.888  1.00  0.00    -0.071 SA
HETATM   13  C9  UNL     1      21.899   4.651  51.452  1.00  0.00     0.120 C 
HETATM   14  N5  UNL     1      23.180   4.804  51.479  1.00  0.00    -0.251 NA
HETATM   15  C10 UNL     1      23.728   5.558  50.299  1.00  0.00     0.224 C 
HETATM   16  C11 UNL     1      22.991   6.801  50.228  1.00  0.00     0.065 C 
HETATM   17  C12 UNL     1      23.695   7.748  50.873  1.00  0.00     0.103 C 
HETATM   18  N6  UNL     1      24.872   7.094  51.350  1.00  0.00    -0.327 N 
HETATM   19  N7  UNL     1      25.060   5.918  50.566  1.00  0.00    -0.183 NA
HETATM   20  C13 UNL     1      25.703   6.403  49.346  1.00  0.00     0.141 C 
HETATM   21  H7  UNL     1      22.125   0.318  49.818  1.00  0.00     0.167 HD
HETATM   22  H12 UNL     1      25.633   7.132  52.028  1.00  0.00     0.180 HD
ENDROOT
BRANCH   1  23
HETATM   23  S1  UNL     1      20.814   4.398  46.319  1.00  0.00    -0.113 SA
HETATM   24  C1  UNL     1      21.934   5.176  45.072  1.00  0.00     0.097 C 
ENDBRANCH   1  23
TORSDOF 2
ENDMDL
