MODEL 1
REMARK VINA RESULT:      -9.4      0.000      0.000
REMARK  8 active torsions:
REMARK  status: ('A' for Active; 'I' for Inactive)
REMARK    1  A    between atoms: C5_5  and  N1_6 
REMARK    2  A    between atoms: N1_6  and  C6_7 
REMARK    3  A    between atoms: C7_8  and  C9_11 
REMARK    4  A    between atoms: C9_11  and  C10_12 
REMARK    5  A    between atoms: N3_19  and  C16_20 
REMARK    6  A    between atoms: C16_20  and  C17_21 
REMARK    7  A    between atoms: C17_21  and  C18_22 
REMARK    8  A    between atoms: C18_22  and  N4_23 
ROOT
HETATM    1  C6  UNL     1      22.374   4.169  51.530  1.00  0.00     0.100 A 
HETATM    2  C7  UNL     1      20.934   4.551  51.341  1.00  0.00     0.022 A 
HETATM    3  N2  UNL     1      21.285   3.332  51.906  1.00  0.00     0.000 N 
HETATM    4  C8  UNL     1      20.281   2.359  52.426  1.00  0.00     0.047 A 
HETATM    5  C9  UNL     1      20.631   3.415  51.899  1.00  0.00     0.025 A 
HETATM    6  C10 UNL     1      22.046   2.806  52.118  1.00  0.00     0.019 A 
HETATM    7  C11 UNL     1      22.938   1.891  52.511  1.00  0.00     0.018 A 
HETATM    8  C12 UNL     1      22.339   0.773  53.083  1.00  0.00     0.058 A 
HETATM    9  C13 UNL     1      21.063   1.269  52.910  1.00  0.00     0.084 A 
HETATM   10  O1  UNL     1      20.200   0.315  53.432  1.00  0.00    -0.351 OA
HETATM   11  C14 UNL     1      20.724  -0.220  54.687  1.00  0.00     0.195 C 
HETATM   12  C15 UNL     1      21.898  -1.145  54.328  1.00  0.00     0.149 C 
HETATM   13  N3  UNL     1      22.932  -0.335  53.629  1.00  0.00    -0.377 N 
ENDROOT
BRANCH   1  14
HETATM   14  N1  UNL     1      23.143   4.143  50.345  1.00  0.00    -0.384 N 
HETATM   15  H6  UNL     1      22.536   3.818  49.523  1.00  0.00     0.160 HD
BRANCH  14  16
HETATM   16  C5  UNL     1      24.446   4.389  49.857  1.00  0.00     0.029 A 
HETATM   17  C4  UNL     1      25.463   3.425  49.858  1.00  0.00     0.030 A 
HETATM   18  C3  UNL     1      26.711   3.719  49.376  1.00  0.00     0.011 A 
HETATM   19  C2  UNL     1      27.023   4.967  48.872  1.00  0.00    -0.040 A 
HETATM   20  C1  UNL     1      28.371   5.301  48.358  1.00  0.00     0.050 C 
HETATM   21  C24 UNL     1      25.978   5.843  48.908  1.00  0.00     0.042 A 
HETATM   22  C23 UNL     1      24.692   5.679  49.360  1.00  0.00     0.053 A 
HETATM   23 CL1  UNL     1      26.395   7.446  48.261  1.00  0.00    -0.084 Cl
ENDBRANCH  14  16
ENDBRANCH   1  14
BRANCH  13  24
HETATM   24  C16 UNL     1      24.321  -0.381  53.411  1.00  0.00     0.125 C 
BRANCH  24  25
HETATM   25  C17 UNL     1      25.157  -0.633  54.677  1.00  0.00     0.050 C 
BRANCH  25  26
HETATM   26  C18 UNL     1      26.363   0.224  54.787  1.00  0.00     0.274 C 
BRANCH  26  27
HETATM   27  N4  UNL     1      26.905   0.638  53.513  1.00  0.00     0.092 N 
HETATM   28  C19 UNL     1      27.190   2.054  53.582  1.00  0.00     0.298 C 
HETATM   29  C20 UNL     1      28.653   2.386  53.652  1.00  0.00     0.198 C 
HETATM   30  O2  UNL     1      29.407   1.487  54.358  1.00  0.00    -0.388 OA
HETATM   31  C21 UNL     1      29.292   0.178  53.971  1.00  0.00     0.198 C 
HETATM   32  C22 UNL     1      28.069  -0.058  53.083  1.00  0.00     0.298 C 
ENDBRANCH  26  27
ENDBRANCH  25  26
ENDBRANCH  24  25
ENDBRANCH  13  24
TORSDOF 8
ENDMDL
MODEL 2
REMARK VINA RESULT:      -9.3      2.677      5.723
REMARK  8 active torsions:
REMARK  status: ('A' for Active; 'I' for Inactive)
REMARK    1  A    between atoms: C5_5  and  N1_6 
REMARK    2  A    between atoms: N1_6  and  C6_7 
REMARK    3  A    between atoms: C7_8  and  C9_11 
REMARK    4  A    between atoms: C9_11  and  C10_12 
REMARK    5  A    between atoms: N3_19  and  C16_20 
REMARK    6  A    between atoms: C16_20  and  C17_21 
REMARK    7  A    between atoms: C17_21  and  C18_22 
REMARK    8  A    between atoms: C18_22  and  N4_23 
ROOT
HETATM    1  C6  UNL     1      23.053  -0.883  53.576  1.00  0.00     0.100 A 
HETATM    2  C7  UNL     1      22.310  -0.897  54.881  1.00  0.00     0.022 A 
HETATM    3  N2  UNL     1      21.732  -0.373  53.732  1.00  0.00     0.000 N 
HETATM    4  C8  UNL     1      20.331   0.139  53.688  1.00  0.00     0.047 A 
HETATM    5  C9  UNL     1      21.312  -0.362  54.240  1.00  0.00     0.025 A 
HETATM    6  C10 UNL     1      21.928  -0.191  52.821  1.00  0.00     0.019 A 
HETATM    7  C11 UNL     1      21.953   0.155  51.530  1.00  0.00     0.018 A 
HETATM    8  C12 UNL     1      20.746   0.699  51.101  1.00  0.00     0.058 A 
HETATM    9  C13 UNL     1      20.155   0.571  52.341  1.00  0.00     0.084 A 
HETATM   10  O1  UNL     1      18.860   1.052  52.207  1.00  0.00    -0.351 OA
HETATM   11  C14 UNL     1      18.271   0.595  50.950  1.00  0.00     0.195 C 
HETATM   12  C15 UNL     1      18.932   1.402  49.821  1.00  0.00     0.149 C 
HETATM   13  N3  UNL     1      20.395   1.126  49.848  1.00  0.00    -0.377 N 
ENDROOT
BRANCH   1  14
HETATM   14  N1  UNL     1      24.281  -0.184  53.597  1.00  0.00    -0.384 N 
HETATM   15  H6  UNL     1      24.100   0.868  53.696  1.00  0.00     0.160 HD
BRANCH  14  16
HETATM   16  C5  UNL     1      25.677  -0.385  53.526  1.00  0.00     0.029 A 
HETATM   17  C4  UNL     1      26.267  -1.454  52.839  1.00  0.00     0.030 A 
HETATM   18  C3  UNL     1      27.628  -1.603  52.805  1.00  0.00     0.011 A 
HETATM   19  C2  UNL     1      28.475  -0.716  53.441  1.00  0.00    -0.040 A 
HETATM   20  C1  UNL     1      29.948  -0.872  53.421  1.00  0.00     0.050 C 
HETATM   21  C24 UNL     1      27.820   0.292  54.084  1.00  0.00     0.042 A 
HETATM   22  C23 UNL     1      26.477   0.555  54.196  1.00  0.00     0.053 A 
HETATM   23 CL1  UNL     1      28.922   1.424  54.902  1.00  0.00    -0.084 Cl
ENDBRANCH  14  16
ENDBRANCH   1  14
BRANCH  13  24
HETATM   24  C16 UNL     1      21.476   1.152  48.949  1.00  0.00     0.125 C 
BRANCH  24  25
HETATM   25  C17 UNL     1      22.041   2.556  48.672  1.00  0.00     0.050 C 
BRANCH  25  26
HETATM   26  C18 UNL     1      23.449   2.738  49.101  1.00  0.00     0.274 C 
BRANCH  26  27
HETATM   27  N4  UNL     1      23.664   3.905  49.926  1.00  0.00     0.092 N 
HETATM   28  C19 UNL     1      22.658   3.916  50.964  1.00  0.00     0.298 C 
HETATM   29  C20 UNL     1      23.179   3.577  52.331  1.00  0.00     0.198 C 
HETATM   30  O2  UNL     1      24.184   2.646  52.342  1.00  0.00    -0.388 OA
HETATM   31  C21 UNL     1      25.259   2.920  51.539  1.00  0.00     0.198 C 
HETATM   32  C22 UNL     1      24.954   4.014  50.515  1.00  0.00     0.298 C 
ENDBRANCH  26  27
ENDBRANCH  25  26
ENDBRANCH  24  25
ENDBRANCH  13  24
TORSDOF 8
ENDMDL
MODEL 3
REMARK VINA RESULT:      -8.8      2.580      6.124
REMARK  8 active torsions:
REMARK  status: ('A' for Active; 'I' for Inactive)
REMARK    1  A    between atoms: C5_5  and  N1_6 
REMARK    2  A    between atoms: N1_6  and  C6_7 
REMARK    3  A    between atoms: C7_8  and  C9_11 
REMARK    4  A    between atoms: C9_11  and  C10_12 
REMARK    5  A    between atoms: N3_19  and  C16_20 
REMARK    6  A    between atoms: C16_20  and  C17_21 
REMARK    7  A    between atoms: C17_21  and  C18_22 
REMARK    8  A    between atoms: C18_22  and  N4_23 
ROOT
HETATM    1  C6  UNL     1      23.254  -0.462  53.232  1.00  0.00     0.100 A 
HETATM    2  C7  UNL     1      22.185  -1.081  54.086  1.00  0.00     0.022 A 
HETATM    3  N2  UNL     1      21.983   0.140  53.457  1.00  0.00     0.000 N 
HETATM    4  C8  UNL     1      20.691   0.883  53.520  1.00  0.00     0.047 A 
HETATM    5  C9  UNL     1      21.443  -0.057  53.779  1.00  0.00     0.025 A 
HETATM    6  C10 UNL     1      22.433   0.778  52.917  1.00  0.00     0.019 A 
HETATM    7  C11 UNL     1      22.836   1.809  52.166  1.00  0.00     0.018 A 
HETATM    8  C12 UNL     1      21.836   2.762  51.990  1.00  0.00     0.058 A 
HETATM    9  C13 UNL     1      20.921   2.059  52.748  1.00  0.00     0.084 A 
HETATM   10  O1  UNL     1      19.752   2.808  52.740  1.00  0.00    -0.351 OA
HETATM   11  C14 UNL     1      19.494   3.342  51.405  1.00  0.00     0.195 C 
HETATM   12  C15 UNL     1      20.498   4.484  51.173  1.00  0.00     0.149 C 
HETATM   13  N3  UNL     1      21.873   3.919  51.258  1.00  0.00    -0.377 N 
ENDROOT
BRANCH   1  14
HETATM   14  N1  UNL     1      24.479  -0.221  53.893  1.00  0.00    -0.384 N 
HETATM   15  H6  UNL     1      24.296   0.245  54.841  1.00  0.00     0.160 HD
BRANCH  14  16
HETATM   16  C5  UNL     1      25.875  -0.372  53.740  1.00  0.00     0.029 A 
HETATM   17  C4  UNL     1      26.462  -1.427  53.028  1.00  0.00     0.030 A 
HETATM   18  C3  UNL     1      27.823  -1.527  52.914  1.00  0.00     0.011 A 
HETATM   19  C2  UNL     1      28.674  -0.603  53.490  1.00  0.00    -0.040 A 
HETATM   20  C1  UNL     1      30.147  -0.707  53.384  1.00  0.00     0.050 C 
HETATM   21  C24 UNL     1      28.021   0.387  54.163  1.00  0.00     0.042 A 
HETATM   22  C23 UNL     1      26.679   0.603  54.353  1.00  0.00     0.053 A 
HETATM   23 CL1  UNL     1      29.128   1.567  54.903  1.00  0.00    -0.084 Cl
ENDBRANCH  14  16
ENDBRANCH   1  14
BRANCH  13  24
HETATM   24  C16 UNL     1      23.157   4.226  50.773  1.00  0.00     0.125 C 
BRANCH  24  25
HETATM   25  C17 UNL     1      23.171   5.159  49.551  1.00  0.00     0.050 C 
BRANCH  25  26
HETATM   26  C18 UNL     1      24.467   5.194  48.831  1.00  0.00     0.274 C 
BRANCH  26  27
HETATM   27  N4  UNL     1      25.610   5.399  49.691  1.00  0.00     0.092 N 
HETATM   28  C19 UNL     1      26.717   4.633  49.161  1.00  0.00     0.298 C 
HETATM   29  C20 UNL     1      27.789   5.465  48.517  1.00  0.00     0.198 C 
HETATM   30  O2  UNL     1      27.331   6.575  47.860  1.00  0.00    -0.388 OA
HETATM   31  C21 UNL     1      26.533   7.414  48.592  1.00  0.00     0.198 C 
HETATM   32  C22 UNL     1      26.013   6.751  49.869  1.00  0.00     0.298 C 
ENDBRANCH  26  27
ENDBRANCH  25  26
ENDBRANCH  24  25
ENDBRANCH  13  24
TORSDOF 8
ENDMDL
MODEL 4
REMARK VINA RESULT:      -8.6      3.896      7.672
REMARK  8 active torsions:
REMARK  status: ('A' for Active; 'I' for Inactive)
REMARK    1  A    between atoms: C5_5  and  N1_6 
REMARK    2  A    between atoms: N1_6  and  C6_7 
REMARK    3  A    between atoms: C7_8  and  C9_11 
REMARK    4  A    between atoms: C9_11  and  C10_12 
REMARK    5  A    between atoms: N3_19  and  C16_20 
REMARK    6  A    between atoms: C16_20  and  C17_21 
REMARK    7  A    between atoms: C17_21  and  C18_22 
REMARK    8  A    between atoms: C18_22  and  N4_23 
ROOT
HETATM    1  C6  UNL     1      25.038   2.964  50.923  1.00  0.00     0.100 A 
HETATM    2  C7  UNL     1      23.629   3.185  51.394  1.00  0.00     0.022 A 
HETATM    3  N2  UNL     1      24.283   4.133  50.618  1.00  0.00     0.000 N 
HETATM    4  C8  UNL     1      23.627   5.385  50.141  1.00  0.00     0.047 A 
HETATM    5  C9  UNL     1      23.661   4.311  50.743  1.00  0.00     0.025 A 
HETATM    6  C10 UNL     1      25.125   4.307  50.216  1.00  0.00     0.019 A 
HETATM    7  C11 UNL     1      26.193   4.776  49.562  1.00  0.00     0.018 A 
HETATM    8  C12 UNL     1      25.947   6.001  48.948  1.00  0.00     0.058 A 
HETATM    9  C13 UNL     1      24.641   6.052  49.393  1.00  0.00     0.084 A 
HETATM   10  O1  UNL     1      24.105   7.232  48.894  1.00  0.00    -0.351 OA
HETATM   11  C14 UNL     1      24.524   7.440  47.510  1.00  0.00     0.195 C 
HETATM   12  C15 UNL     1      26.004   7.857  47.543  1.00  0.00     0.149 C 
HETATM   13  N3  UNL     1      26.784   6.754  48.168  1.00  0.00    -0.377 N 
ENDROOT
BRANCH   1  14
HETATM   14  N1  UNL     1      25.985   2.764  51.952  1.00  0.00    -0.384 N 
HETATM   15  H6  UNL     1      26.038   3.636  52.573  1.00  0.00     0.160 HD
BRANCH  14  16
HETATM   16  C5  UNL     1      26.901   1.812  52.451  1.00  0.00     0.029 A 
HETATM   17  C4  UNL     1      28.087   2.159  53.113  1.00  0.00     0.030 A 
HETATM   18  C3  UNL     1      28.942   1.194  53.575  1.00  0.00     0.011 A 
HETATM   19  C2  UNL     1      28.681  -0.153  53.411  1.00  0.00    -0.040 A 
HETATM   20  C1  UNL     1      29.603  -1.205  53.896  1.00  0.00     0.050 C 
HETATM   21  C24 UNL     1      27.510  -0.401  52.759  1.00  0.00     0.042 A 
HETATM   22  C23 UNL     1      26.571   0.462  52.249  1.00  0.00     0.053 A 
HETATM   23 CL1  UNL     1      27.187  -2.138  52.551  1.00  0.00    -0.084 Cl
ENDBRANCH  14  16
ENDBRANCH   1  14
BRANCH  13  24
HETATM   24  C16 UNL     1      28.104   6.270  48.148  1.00  0.00     0.125 C 
BRANCH  24  25
HETATM   25  C17 UNL     1      29.184   7.365  48.152  1.00  0.00     0.050 C 
BRANCH  25  26
HETATM   26  C18 UNL     1      30.172   7.246  47.052  1.00  0.00     0.274 C 
BRANCH  26  27
HETATM   27  N4  UNL     1      31.548   7.268  47.494  1.00  0.00     0.092 N 
HETATM   28  C19 UNL     1      31.557   7.300  48.940  1.00  0.00     0.298 C 
HETATM   29  C20 UNL     1      31.983   6.011  49.582  1.00  0.00     0.198 C 
HETATM   30  O2  UNL     1      31.590   4.884  48.911  1.00  0.00    -0.388 OA
HETATM   31  C21 UNL     1      31.936   4.827  47.587  1.00  0.00     0.198 C 
HETATM   32  C22 UNL     1      32.358   6.191  47.039  1.00  0.00     0.298 C 
ENDBRANCH  26  27
ENDBRANCH  25  26
ENDBRANCH  24  25
ENDBRANCH  13  24
TORSDOF 8
ENDMDL
MODEL 5
REMARK VINA RESULT:      -8.5      2.371      5.393
REMARK  8 active torsions:
REMARK  status: ('A' for Active; 'I' for Inactive)
REMARK    1  A    between atoms: C5_5  and  N1_6 
REMARK    2  A    between atoms: N1_6  and  C6_7 
REMARK    3  A    between atoms: C7_8  and  C9_11 
REMARK    4  A    between atoms: C9_11  and  C10_12 
REMARK    5  A    between atoms: N3_19  and  C16_20 
REMARK    6  A    between atoms: C16_20  and  C17_21 
REMARK    7  A    between atoms: C17_21  and  C18_22 
REMARK    8  A    between atoms: C18_22  and  N4_23 
ROOT
HETATM    1  C6  UNL     1      26.068   0.740  51.687  1.00  0.00     0.100 A 
HETATM    2  C7  UNL     1      27.049  -0.056  52.499  1.00  0.00     0.022 A 
HETATM    3  N2  UNL     1      25.707   0.002  52.851  1.00  0.00     0.000 N 
HETATM    4  C8  UNL     1      25.134  -0.765  53.995  1.00  0.00     0.047 A 
HETATM    5  C9  UNL     1      26.044  -0.399  53.251  1.00  0.00     0.025 A 
HETATM    6  C10 UNL     1      24.891   0.413  52.593  1.00  0.00     0.019 A 
HETATM    7  C11 UNL     1      23.639   0.853  52.433  1.00  0.00     0.018 A 
HETATM    8  C12 UNL     1      22.762   0.319  53.374  1.00  0.00     0.058 A 
HETATM    9  C13 UNL     1      23.750  -0.419  53.994  1.00  0.00     0.084 A 
HETATM   10  O1  UNL     1      23.131  -1.108  55.028  1.00  0.00    -0.351 OA
HETATM   11  C14 UNL     1      21.843  -1.640  54.591  1.00  0.00     0.195 C 
HETATM   12  C15 UNL     1      20.872  -0.451  54.495  1.00  0.00     0.149 C 
HETATM   13  N3  UNL     1      21.411   0.510  53.494  1.00  0.00    -0.377 N 
ENDROOT
BRANCH   1  14
HETATM   14  N1  UNL     1      26.371   2.115  51.569  1.00  0.00    -0.384 N 
HETATM   15  H6  UNL     1      27.015   2.417  52.371  1.00  0.00     0.160 HD
BRANCH  14  16
HETATM   16  C5  UNL     1      26.115   3.246  50.762  1.00  0.00     0.029 A 
HETATM   17  C4  UNL     1      26.924   3.618  49.680  1.00  0.00     0.030 A 
HETATM   18  C3  UNL     1      26.631   4.727  48.932  1.00  0.00     0.011 A 
HETATM   19  C2  UNL     1      25.537   5.524  49.206  1.00  0.00    -0.040 A 
HETATM   20  C1  UNL     1      25.216   6.733  48.412  1.00  0.00     0.050 C 
HETATM   21  C24 UNL     1      24.806   5.092  50.273  1.00  0.00     0.042 A 
HETATM   22  C23 UNL     1      24.986   4.010  51.099  1.00  0.00     0.053 A 
HETATM   23 CL1  UNL     1      23.403   6.129  50.617  1.00  0.00    -0.084 Cl
ENDBRANCH  14  16
ENDBRANCH   1  14
BRANCH  13  24
HETATM   24  C16 UNL     1      20.916   1.510  52.639  1.00  0.00     0.125 C 
BRANCH  24  25
HETATM   25  C17 UNL     1      20.119   0.982  51.434  1.00  0.00     0.050 C 
BRANCH  25  26
HETATM   26  C18 UNL     1      19.850   2.002  50.391  1.00  0.00     0.274 C 
BRANCH  26  27
HETATM   27  N4  UNL     1      20.188   1.575  49.053  1.00  0.00     0.092 N 
HETATM   28  C19 UNL     1      19.890   2.659  48.144  1.00  0.00     0.298 C 
HETATM   29  C20 UNL     1      21.104   3.356  47.598  1.00  0.00     0.198 C 
HETATM   30  O2  UNL     1      22.150   3.449  48.476  1.00  0.00    -0.388 OA
HETATM   31  C21 UNL     1      22.562   2.270  49.039  1.00  0.00     0.198 C 
HETATM   32  C22 UNL     1      21.533   1.152  48.862  1.00  0.00     0.298 C 
ENDBRANCH  26  27
ENDBRANCH  25  26
ENDBRANCH  24  25
ENDBRANCH  13  24
TORSDOF 8
ENDMDL
MODEL 6
REMARK VINA RESULT:      -8.4      2.882      6.144
REMARK  8 active torsions:
REMARK  status: ('A' for Active; 'I' for Inactive)
REMARK    1  A    between atoms: C5_5  and  N1_6 
REMARK    2  A    between atoms: N1_6  and  C6_7 
REMARK    3  A    between atoms: C7_8  and  C9_11 
REMARK    4  A    between atoms: C9_11  and  C10_12 
REMARK    5  A    between atoms: N3_19  and  C16_20 
REMARK    6  A    between atoms: C16_20  and  C17_21 
REMARK    7  A    between atoms: C17_21  and  C18_22 
REMARK    8  A    between atoms: C18_22  and  N4_23 
ROOT
HETATM    1  C6  UNL     1      25.252   3.558  51.103  1.00  0.00     0.100 A 
HETATM    2  C7  UNL     1      25.942   3.934  49.822  1.00  0.00     0.022 A 
HETATM    3  N2  UNL     1      24.557   3.964  49.927  1.00  0.00     0.000 N 
HETATM    4  C8  UNL     1      23.669   4.432  48.824  1.00  0.00     0.047 A 
HETATM    5  C9  UNL     1      24.759   4.178  49.337  1.00  0.00     0.025 A 
HETATM    6  C10 UNL     1      23.857   3.766  50.536  1.00  0.00     0.019 A 
HETATM    7  C11 UNL     1      22.711   3.573  51.197  1.00  0.00     0.018 A 
HETATM    8  C12 UNL     1      21.594   3.923  50.442  1.00  0.00     0.058 A 
HETATM    9  C13 UNL     1      22.351   4.300  49.351  1.00  0.00     0.084 A 
HETATM   10  O1  UNL     1      21.453   4.733  48.385  1.00  0.00    -0.351 OA
HETATM   11  C14 UNL     1      20.400   5.546  48.991  1.00  0.00     0.195 C 
HETATM   12  C15 UNL     1      19.471   4.586  49.753  1.00  0.00     0.149 C 
HETATM   13  N3  UNL     1      20.273   3.897  50.801  1.00  0.00    -0.377 N 
ENDROOT
BRANCH   1  14
HETATM   14  N1  UNL     1      25.525   2.251  51.564  1.00  0.00    -0.384 N 
HETATM   15  H6  UNL     1      24.664   1.628  51.423  1.00  0.00     0.160 HD
BRANCH  14  16
HETATM   16  C5  UNL     1      26.541   1.470  52.158  1.00  0.00     0.029 A 
HETATM   17  C4  UNL     1      27.657   2.020  52.802  1.00  0.00     0.030 A 
HETATM   18  C3  UNL     1      28.615   1.214  53.359  1.00  0.00     0.011 A 
HETATM   19  C2  UNL     1      28.527  -0.164  53.312  1.00  0.00    -0.040 A 
HETATM   20  C1  UNL     1      29.561  -1.045  53.901  1.00  0.00     0.050 C 
HETATM   21  C24 UNL     1      27.413  -0.614  52.669  1.00  0.00     0.042 A 
HETATM   22  C23 UNL     1      26.386   0.077  52.072  1.00  0.00     0.053 A 
HETATM   23 CL1  UNL     1      27.314  -2.388  52.612  1.00  0.00    -0.084 Cl
ENDBRANCH  14  16
ENDBRANCH   1  14
BRANCH  13  24
HETATM   24  C16 UNL     1      20.049   3.273  52.041  1.00  0.00     0.125 C 
BRANCH  24  25
HETATM   25  C17 UNL     1      19.432   1.868  51.946  1.00  0.00     0.050 C 
BRANCH  25  26
HETATM   26  C18 UNL     1      20.391   0.766  52.204  1.00  0.00     0.274 C 
BRANCH  26  27
HETATM   27  N4  UNL     1      21.261   1.000  53.334  1.00  0.00     0.092 N 
HETATM   28  C19 UNL     1      20.724   0.287  54.472  1.00  0.00     0.298 C 
HETATM   29  C20 UNL     1      21.510  -0.931  54.863  1.00  0.00     0.198 C 
HETATM   30  O2  UNL     1      22.066  -1.612  53.813  1.00  0.00    -0.388 OA
HETATM   31  C21 UNL     1      22.842  -0.867  52.964  1.00  0.00     0.198 C 
HETATM   32  C22 UNL     1      22.624   0.636  53.148  1.00  0.00     0.298 C 
ENDBRANCH  26  27
ENDBRANCH  25  26
ENDBRANCH  24  25
ENDBRANCH  13  24
TORSDOF 8
ENDMDL
MODEL 7
REMARK VINA RESULT:      -8.3      2.135      3.517
REMARK  8 active torsions:
REMARK  status: ('A' for Active; 'I' for Inactive)
REMARK    1  A    between atoms: C5_5  and  N1_6 
REMARK    2  A    between atoms: N1_6  and  C6_7 
REMARK    3  A    between atoms: C7_8  and  C9_11 
REMARK    4  A    between atoms: C9_11  and  C10_12 
REMARK    5  A    between atoms: N3_19  and  C16_20 
REMARK    6  A    between atoms: C16_20  and  C17_21 
REMARK    7  A    between atoms: C17_21  and  C18_22 
REMARK    8  A    between atoms: C18_22  and  N4_23 
ROOT
HETATM    1  C6  UNL     1      24.909   7.078  50.451  1.00  0.00     0.100 A 
HETATM    2  C7  UNL     1      23.914   8.201  50.377  1.00  0.00     0.022 A 
HETATM    3  N2  UNL     1      23.506   6.896  50.621  1.00  0.00     0.000 N 
HETATM    4  C8  UNL     1      22.088   6.526  50.896  1.00  0.00     0.047 A 
HETATM    5  C9  UNL     1      22.998   7.315  50.642  1.00  0.00     0.025 A 
HETATM    6  C10 UNL     1      23.849   6.013  50.688  1.00  0.00     0.019 A 
HETATM    7  C11 UNL     1      24.079   4.704  50.834  1.00  0.00     0.018 A 
HETATM    8  C12 UNL     1      22.920   3.988  51.119  1.00  0.00     0.058 A 
HETATM    9  C13 UNL     1      22.122   5.113  51.088  1.00  0.00     0.084 A 
HETATM   10  O1  UNL     1      20.831   4.683  51.367  1.00  0.00    -0.351 OA
HETATM   11  C14 UNL     1      20.842   3.698  52.446  1.00  0.00     0.195 C 
HETATM   12  C15 UNL     1      21.396   2.389  51.857  1.00  0.00     0.149 C 
HETATM   13  N3  UNL     1      22.778   2.649  51.368  1.00  0.00    -0.377 N 
ENDROOT
BRANCH   1  14
HETATM   14  N1  UNL     1      25.691   6.899  49.288  1.00  0.00    -0.384 N 
HETATM   15  H6  UNL     1      25.065   6.938  48.418  1.00  0.00     0.160 HD
BRANCH  14  16
HETATM   16  C5  UNL     1      27.020   6.677  48.863  1.00  0.00     0.029 A 
HETATM   17  C4  UNL     1      27.545   5.401  48.614  1.00  0.00     0.030 A 
HETATM   18  C3  UNL     1      28.843   5.243  48.206  1.00  0.00     0.011 A 
HETATM   19  C2  UNL     1      29.687   6.321  48.024  1.00  0.00    -0.040 A 
HETATM   20  C1  UNL     1      31.096   6.162  47.595  1.00  0.00     0.050 C 
HETATM   21  C24 UNL     1      29.097   7.522  48.288  1.00  0.00     0.042 A 
HETATM   22  C23 UNL     1      27.821   7.818  48.699  1.00  0.00     0.053 A 
HETATM   23 CL1  UNL     1      30.196   8.900  48.053  1.00  0.00    -0.084 Cl
ENDBRANCH  14  16
ENDBRANCH   1  14
BRANCH  13  24
HETATM   24  C16 UNL     1      23.954   1.915  51.131  1.00  0.00     0.125 C 
BRANCH  24  25
HETATM   25  C17 UNL     1      24.417   1.052  52.317  1.00  0.00     0.050 C 
BRANCH  25  26
HETATM   26  C18 UNL     1      25.579   1.609  53.053  1.00  0.00     0.274 C 
BRANCH  26  27
HETATM   27  N4  UNL     1      26.860   1.216  52.511  1.00  0.00     0.092 N 
HETATM   28  C19 UNL     1      27.805   2.279  52.769  1.00  0.00     0.298 C 
HETATM   29  C20 UNL     1      28.815   1.959  53.834  1.00  0.00     0.198 C 
HETATM   30  O2  UNL     1      28.338   1.185  54.858  1.00  0.00    -0.388 OA
HETATM   31  C21 UNL     1      27.735   0.013  54.487  1.00  0.00     0.198 C 
HETATM   32  C22 UNL     1      27.384  -0.013  52.998  1.00  0.00     0.298 C 
ENDBRANCH  26  27
ENDBRANCH  25  26
ENDBRANCH  24  25
ENDBRANCH  13  24
TORSDOF 8
ENDMDL
MODEL 8
REMARK VINA RESULT:      -8.2      4.160      7.881
REMARK  8 active torsions:
REMARK  status: ('A' for Active; 'I' for Inactive)
REMARK    1  A    between atoms: C5_5  and  N1_6 
REMARK    2  A    between atoms: N1_6  and  C6_7 
REMARK    3  A    between atoms: C7_8  and  C9_11 
REMARK    4  A    between atoms: C9_11  and  C10_12 
REMARK    5  A    between atoms: N3_19  and  C16_20 
REMARK    6  A    between atoms: C16_20  and  C17_21 
REMARK    7  A    between atoms: C17_21  and  C18_22 
REMARK    8  A    between atoms: C18_22  and  N4_23 
ROOT
HETATM    1  C6  UNL     1      24.717   2.731  51.333  1.00  0.00     0.100 A 
HETATM    2  C7  UNL     1      23.318   2.942  51.838  1.00  0.00     0.022 A 
HETATM    3  N2  UNL     1      23.943   3.891  51.039  1.00  0.00     0.000 N 
HETATM    4  C8  UNL     1      23.263   5.133  50.570  1.00  0.00     0.047 A 
HETATM    5  C9  UNL     1      23.323   4.064  51.178  1.00  0.00     0.025 A 
HETATM    6  C10 UNL     1      24.773   4.070  50.614  1.00  0.00     0.019 A 
HETATM    7  C11 UNL     1      25.819   4.544  49.930  1.00  0.00     0.018 A 
HETATM    8  C12 UNL     1      25.546   5.761  49.313  1.00  0.00     0.058 A 
HETATM    9  C13 UNL     1      24.251   5.804  49.791  1.00  0.00     0.084 A 
HETATM   10  O1  UNL     1      23.692   6.974  49.297  1.00  0.00    -0.351 OA
HETATM   11  C14 UNL     1      24.073   7.176  47.901  1.00  0.00     0.195 C 
HETATM   12  C15 UNL     1      25.549   7.607  47.893  1.00  0.00     0.149 C 
HETATM   13  N3  UNL     1      26.355   6.516  48.506  1.00  0.00    -0.377 N 
ENDROOT
BRANCH   1  14
HETATM   14  N1  UNL     1      25.692   2.548  52.339  1.00  0.00    -0.384 N 
HETATM   15  H6  UNL     1      25.603   3.319  53.078  1.00  0.00     0.160 HD
BRANCH  14  16
HETATM   16  C5  UNL     1      26.759   1.702  52.714  1.00  0.00     0.029 A 
HETATM   17  C4  UNL     1      27.967   2.175  53.244  1.00  0.00     0.030 A 
HETATM   18  C3  UNL     1      28.971   1.309  53.588  1.00  0.00     0.011 A 
HETATM   19  C2  UNL     1      28.842  -0.057  53.430  1.00  0.00    -0.040 A 
HETATM   20  C1  UNL     1      29.924  -1.002  53.788  1.00  0.00     0.050 C 
HETATM   21  C24 UNL     1      27.639  -0.431  52.910  1.00  0.00     0.042 A 
HETATM   22  C23 UNL     1      26.559   0.325  52.526  1.00  0.00     0.053 A 
HETATM   23 CL1  UNL     1      27.488  -2.192  52.708  1.00  0.00    -0.084 Cl
ENDBRANCH  14  16
ENDBRANCH   1  14
BRANCH  13  24
HETATM   24  C16 UNL     1      27.679   6.045  48.456  1.00  0.00     0.125 C 
BRANCH  24  25
HETATM   25  C17 UNL     1      28.568   6.748  47.417  1.00  0.00     0.050 C 
BRANCH  25  26
HETATM   26  C18 UNL     1      28.783   8.192  47.681  1.00  0.00     0.274 C 
BRANCH  26  27
HETATM   27  N4  UNL     1      29.034   8.502  49.071  1.00  0.00     0.092 N 
HETATM   28  C19 UNL     1      30.432   8.842  49.212  1.00  0.00     0.298 C 
HETATM   29  C20 UNL     1      30.691  10.303  49.445  1.00  0.00     0.198 C 
HETATM   30  O2  UNL     1      29.831  11.145  48.792  1.00  0.00    -0.388 OA
HETATM   31  C21 UNL     1      28.497  10.916  49.005  1.00  0.00     0.198 C 
HETATM   32  C22 UNL     1      28.236   9.542  49.624  1.00  0.00     0.298 C 
ENDBRANCH  26  27
ENDBRANCH  25  26
ENDBRANCH  24  25
ENDBRANCH  13  24
TORSDOF 8
ENDMDL
MODEL 9
REMARK VINA RESULT:      -8.0      2.147      5.346
REMARK  8 active torsions:
REMARK  status: ('A' for Active; 'I' for Inactive)
REMARK    1  A    between atoms: C5_5  and  N1_6 
REMARK    2  A    between atoms: N1_6  and  C6_7 
REMARK    3  A    between atoms: C7_8  and  C9_11 
REMARK    4  A    between atoms: C9_11  and  C10_12 
REMARK    5  A    between atoms: N3_19  and  C16_20 
REMARK    6  A    between atoms: C16_20  and  C17_21 
REMARK    7  A    between atoms: C17_21  and  C18_22 
REMARK    8  A    between atoms: C18_22  and  N4_23 
ROOT
HETATM    1  C6  UNL     1      25.229   1.708  51.218  1.00  0.00     0.100 A 
HETATM    2  C7  UNL     1      26.261   1.335  52.243  1.00  0.00     0.022 A 
HETATM    3  N2  UNL     1      24.918   1.041  52.438  1.00  0.00     0.000 N 
HETATM    4  C8  UNL     1      24.415   0.284  53.621  1.00  0.00     0.047 A 
HETATM    5  C9  UNL     1      25.290   0.807  52.929  1.00  0.00     0.025 A 
HETATM    6  C10 UNL     1      24.067   1.163  52.035  1.00  0.00     0.019 A 
HETATM    7  C11 UNL     1      22.780   1.196  51.677  1.00  0.00     0.018 A 
HETATM    8  C12 UNL     1      21.955   0.547  52.591  1.00  0.00     0.058 A 
HETATM    9  C13 UNL     1      23.006   0.209  53.420  1.00  0.00     0.084 A 
HETATM   10  O1  UNL     1      22.455  -0.501  54.478  1.00  0.00    -0.351 OA
HETATM   11  C14 UNL     1      21.439  -1.434  53.996  1.00  0.00     0.195 C 
HETATM   12  C15 UNL     1      20.205  -0.600  53.613  1.00  0.00     0.149 C 
HETATM   13  N3  UNL     1      20.601   0.349  52.537  1.00  0.00    -0.377 N 
ENDROOT
BRANCH   1  14
HETATM   14  N1  UNL     1      25.158   3.087  50.919  1.00  0.00    -0.384 N 
HETATM   15  H6  UNL     1      24.343   3.534  51.452  1.00  0.00     0.160 HD
BRANCH  14  16
HETATM   16  C5  UNL     1      25.785   4.093  50.150  1.00  0.00     0.029 A 
HETATM   17  C4  UNL     1      26.919   3.863  49.360  1.00  0.00     0.030 A 
HETATM   18  C3  UNL     1      27.489   4.876  48.637  1.00  0.00     0.011 A 
HETATM   19  C2  UNL     1      26.979   6.160  48.652  1.00  0.00    -0.040 A 
HETATM   20  C1  UNL     1      27.593   7.267  47.883  1.00  0.00     0.050 C 
HETATM   21  C24 UNL     1      25.878   6.296  49.445  1.00  0.00     0.042 A 
HETATM   22  C23 UNL     1      25.213   5.373  50.214  1.00  0.00     0.053 A 
HETATM   23 CL1  UNL     1      25.234   7.954  49.459  1.00  0.00    -0.084 Cl
ENDBRANCH  14  16
ENDBRANCH   1  14
BRANCH  13  24
HETATM   24  C16 UNL     1      19.982   1.052  51.488  1.00  0.00     0.125 C 
BRANCH  24  25
HETATM   25  C17 UNL     1      19.208   2.306  51.929  1.00  0.00     0.050 C 
BRANCH  25  26
HETATM   26  C18 UNL     1      19.921   3.580  51.668  1.00  0.00     0.274 C 
BRANCH  26  27
HETATM   27  N4  UNL     1      20.422   3.705  50.318  1.00  0.00     0.092 N 
HETATM   28  C19 UNL     1      19.368   4.254  49.494  1.00  0.00     0.298 C 
HETATM   29  C20 UNL     1      19.586   5.682  49.084  1.00  0.00     0.198 C 
HETATM   30  O2  UNL     1      20.210   6.456  50.026  1.00  0.00    -0.388 OA
HETATM   31  C21 UNL     1      21.398   5.971  50.504  1.00  0.00     0.198 C 
HETATM   32  C22 UNL     1      21.598   4.492  50.168  1.00  0.00     0.298 C 
ENDBRANCH  26  27
ENDBRANCH  25  26
ENDBRANCH  24  25
ENDBRANCH  13  24
TORSDOF 8
ENDMDL
