MODEL 1
REMARK VINA RESULT:      -7.9      0.000      0.000
REMARK  6 active torsions:
REMARK  status: ('A' for Active; 'I' for Inactive)
REMARK    1  A    between atoms: C2_2  and  C3_3 
REMARK    2  A    between atoms: C3_3  and  O1_4 
REMARK    3  A    between atoms: O1_4  and  C4_5 
REMARK    4  A    between atoms: C7_8  and  N1_9 
REMARK    5  A    between atoms: N1_9  and  C8_10 
REMARK    6  A    between atoms: C17_23  and  O2_24 
ROOT
HETATM    1  C4  UNL     1      22.221   0.754  52.237  1.00  0.00     0.103 A 
HETATM    2  C5  UNL     1      23.450   1.326  52.355  1.00  0.00     0.057 A 
HETATM    3  C6  UNL     1      24.095   2.126  51.453  1.00  0.00     0.042 A 
HETATM    4  C7  UNL     1      25.342   2.664  51.654  1.00  0.00     0.142 A 
HETATM    5  N2  UNL     1      25.805   3.418  50.662  1.00  0.00    -0.224 NA
HETATM    6  C14 UNL     1      25.160   3.676  49.523  1.00  0.00     0.236 A 
HETATM    7  N3  UNL     1      23.945   3.145  49.340  1.00  0.00    -0.241 NA
HETATM    8  C15 UNL     1      23.407   2.374  50.291  1.00  0.00     0.075 A 
HETATM    9  C16 UNL     1      22.155   1.848  50.061  1.00  0.00     0.072 A 
HETATM   10  C17 UNL     1      21.558   1.037  51.032  1.00  0.00     0.103 A 
ENDROOT
BRANCH   4  11
HETATM   11  N1  UNL     1      26.039   2.406  52.859  1.00  0.00    -0.340 N 
HETATM   12  H9  UNL     1      25.825   2.916  53.726  1.00  0.00     0.167 HD
BRANCH  11  13
HETATM   13  C8  UNL     1      27.083   1.483  53.127  1.00  0.00     0.035 A 
HETATM   14  C9  UNL     1      28.318   1.792  53.665  1.00  0.00     0.032 A 
HETATM   15  C10 UNL     1      29.303   0.893  53.916  1.00  0.00     0.046 A 
HETATM   16  C11 UNL     1      29.125  -0.423  53.640  1.00  0.00     0.138 A 
HETATM   17  F1  UNL     1      30.137  -1.267  53.910  1.00  0.00    -0.204 F 
HETATM   18  C12 UNL     1      27.908  -0.814  53.096  1.00  0.00     0.074 A 
HETATM   19 CL1  UNL     1      27.729  -2.517  52.759  1.00  0.00    -0.081 Cl
HETATM   20  C13 UNL     1      26.951   0.145  52.866  1.00  0.00     0.056 A 
ENDBRANCH  11  13
ENDBRANCH   4  11
BRANCH   1  21
HETATM   21  O1  UNL     1      21.448  -0.043  53.010  1.00  0.00    -0.348 OA
BRANCH  21  22
HETATM   22  C3  UNL     1      21.485  -0.141  54.375  1.00  0.00     0.175 C 
BRANCH  22  23
HETATM   23  C2  UNL     1      22.000  -1.443  54.928  1.00  0.00     0.022 C 
HETATM   24  C1  UNL     1      23.449  -1.266  55.359  1.00  0.00     0.007 C 
ENDBRANCH  22  23
ENDBRANCH  21  22
ENDBRANCH   1  21
BRANCH  10  25
HETATM   25  O2  UNL     1      20.286   0.555  50.697  1.00  0.00    -0.353 OA
HETATM   26  C18 UNL     1      19.188   1.422  50.640  1.00  0.00     0.210 C 
ENDBRANCH  10  25
TORSDOF 6
ENDMDL
MODEL 2
REMARK VINA RESULT:      -7.7      3.812      5.999
REMARK  6 active torsions:
REMARK  status: ('A' for Active; 'I' for Inactive)
REMARK    1  A    between atoms: C2_2  and  C3_3 
REMARK    2  A    between atoms: C3_3  and  O1_4 
REMARK    3  A    between atoms: O1_4  and  C4_5 
REMARK    4  A    between atoms: C7_8  and  N1_9 
REMARK    5  A    between atoms: N1_9  and  C8_10 
REMARK    6  A    between atoms: C17_23  and  O2_24 
ROOT
HETATM    1  C4  UNL     1      25.877   1.376  53.614  1.00  0.00     0.103 A 
HETATM    2  C5  UNL     1      25.399   2.356  52.799  1.00  0.00     0.057 A 
HETATM    3  C6  UNL     1      24.266   2.335  52.035  1.00  0.00     0.042 A 
HETATM    4  C7  UNL     1      23.856   3.374  51.237  1.00  0.00     0.142 A 
HETATM    5  N2  UNL     1      22.726   3.168  50.567  1.00  0.00    -0.224 NA
HETATM    6  C14 UNL     1      21.990   2.056  50.618  1.00  0.00     0.236 A 
HETATM    7  N3  UNL     1      22.402   1.051  51.401  1.00  0.00    -0.241 NA
HETATM    8  C15 UNL     1      23.530   1.179  52.108  1.00  0.00     0.075 A 
HETATM    9  C16 UNL     1      23.916   0.119  52.899  1.00  0.00     0.072 A 
HETATM   10  C17 UNL     1      25.090   0.215  53.654  1.00  0.00     0.103 A 
ENDROOT
BRANCH   4  11
HETATM   11  N1  UNL     1      24.621   4.564  51.174  1.00  0.00    -0.340 N 
HETATM   12  H9  UNL     1      24.505   5.316  51.865  1.00  0.00     0.167 HD
BRANCH  11  13
HETATM   13  C8  UNL     1      25.618   4.957  50.245  1.00  0.00     0.035 A 
HETATM   14  C9  UNL     1      26.560   4.123  49.668  1.00  0.00     0.032 A 
HETATM   15  C10 UNL     1      27.504   4.519  48.777  1.00  0.00     0.046 A 
HETATM   16  C11 UNL     1      27.584   5.814  48.383  1.00  0.00     0.138 A 
HETATM   17  F1  UNL     1      28.542   6.146  47.498  1.00  0.00    -0.204 F 
HETATM   18  C12 UNL     1      26.672   6.714  48.918  1.00  0.00     0.074 A 
HETATM   19 CL1  UNL     1      26.817   8.368  48.380  1.00  0.00    -0.081 Cl
HETATM   20  C13 UNL     1      25.739   6.251  49.816  1.00  0.00     0.056 A 
ENDBRANCH  11  13
ENDBRANCH   4  11
BRANCH   1  21
HETATM   21  O1  UNL     1      26.951   1.232  54.423  1.00  0.00    -0.348 OA
BRANCH  21  22
HETATM   22  C3  UNL     1      28.262   1.152  54.036  1.00  0.00     0.175 C 
BRANCH  22  23
HETATM   23  C2  UNL     1      29.034  -0.028  54.563  1.00  0.00     0.022 C 
HETATM   24  C1  UNL     1      29.259  -1.024  53.434  1.00  0.00     0.007 C 
ENDBRANCH  22  23
ENDBRANCH  21  22
ENDBRANCH   1  21
BRANCH  10  25
HETATM   25  O2  UNL     1      25.390  -0.918  54.423  1.00  0.00    -0.353 OA
HETATM   26  C18 UNL     1      24.599  -1.258  55.528  1.00  0.00     0.210 C 
ENDBRANCH  10  25
TORSDOF 6
ENDMDL
MODEL 3
REMARK VINA RESULT:      -7.6      3.969      7.097
REMARK  6 active torsions:
REMARK  status: ('A' for Active; 'I' for Inactive)
REMARK    1  A    between atoms: C2_2  and  C3_3 
REMARK    2  A    between atoms: C3_3  and  O1_4 
REMARK    3  A    between atoms: O1_4  and  C4_5 
REMARK    4  A    between atoms: C7_8  and  N1_9 
REMARK    5  A    between atoms: N1_9  and  C8_10 
REMARK    6  A    between atoms: C17_23  and  O2_24 
ROOT
HETATM    1  C4  UNL     1      25.709   0.983  52.339  1.00  0.00     0.103 A 
HETATM    2  C5  UNL     1      24.360   1.157  52.367  1.00  0.00     0.057 A 
HETATM    3  C6  UNL     1      23.445   0.512  53.151  1.00  0.00     0.042 A 
HETATM    4  C7  UNL     1      22.094   0.752  53.115  1.00  0.00     0.142 A 
HETATM    5  N2  UNL     1      21.362   0.025  53.954  1.00  0.00    -0.224 NA
HETATM    6  C14 UNL     1      21.839  -0.890  54.800  1.00  0.00     0.236 A 
HETATM    7  N3  UNL     1      23.159  -1.113  54.826  1.00  0.00    -0.241 NA
HETATM    8  C15 UNL     1      23.965  -0.423  54.012  1.00  0.00     0.075 A 
HETATM    9  C16 UNL     1      25.317  -0.685  54.070  1.00  0.00     0.072 A 
HETATM   10  C17 UNL     1      26.192   0.016  53.235  1.00  0.00     0.103 A 
ENDROOT
BRANCH   4  11
HETATM   11  N1  UNL     1      21.570   1.723  52.227  1.00  0.00    -0.340 N 
HETATM   12  H9  UNL     1      20.931   2.460  52.551  1.00  0.00     0.167 HD
BRANCH  11  13
HETATM   13  C8  UNL     1      21.781   1.890  50.834  1.00  0.00     0.035 A 
HETATM   14  C9  UNL     1      21.476   0.964  49.853  1.00  0.00     0.032 A 
HETATM   15  C10 UNL     1      21.683   1.145  48.524  1.00  0.00     0.046 A 
HETATM   16  C11 UNL     1      22.226   2.297  48.059  1.00  0.00     0.138 A 
HETATM   17  F1  UNL     1      22.408   2.418  46.731  1.00  0.00    -0.204 F 
HETATM   18  C12 UNL     1      22.561   3.278  48.984  1.00  0.00     0.074 A 
HETATM   19 CL1  UNL     1      23.257   4.740  48.335  1.00  0.00    -0.081 Cl
HETATM   20  C13 UNL     1      22.326   3.034  50.317  1.00  0.00     0.056 A 
ENDBRANCH  11  13
ENDBRANCH   4  11
BRANCH   1  21
HETATM   21  O1  UNL     1      26.739   1.522  51.646  1.00  0.00    -0.348 OA
BRANCH  21  22
HETATM   22  C3  UNL     1      26.811   2.795  51.148  1.00  0.00     0.175 C 
BRANCH  22  23
HETATM   23  C2  UNL     1      26.386   2.966  49.713  1.00  0.00     0.022 C 
HETATM   24  C1  UNL     1      26.825   4.338  49.221  1.00  0.00     0.007 C 
ENDBRANCH  22  23
ENDBRANCH  21  22
ENDBRANCH   1  21
BRANCH  10  25
HETATM   25  O2  UNL     1      27.544  -0.327  53.376  1.00  0.00    -0.353 OA
HETATM   26  C18 UNL     1      28.255   0.040  54.525  1.00  0.00     0.210 C 
ENDBRANCH  10  25
TORSDOF 6
ENDMDL
MODEL 4
REMARK VINA RESULT:      -7.5      2.359      4.235
REMARK  6 active torsions:
REMARK  status: ('A' for Active; 'I' for Inactive)
REMARK    1  A    between atoms: C2_2  and  C3_3 
REMARK    2  A    between atoms: C3_3  and  O1_4 
REMARK    3  A    between atoms: O1_4  and  C4_5 
REMARK    4  A    between atoms: C7_8  and  N1_9 
REMARK    5  A    between atoms: N1_9  and  C8_10 
REMARK    6  A    between atoms: C17_23  and  O2_24 
ROOT
HETATM    1  C4  UNL     1      21.875   2.611  51.723  1.00  0.00     0.103 A 
HETATM    2  C5  UNL     1      22.833   1.715  52.084  1.00  0.00     0.057 A 
HETATM    3  C6  UNL     1      22.750   0.730  53.028  1.00  0.00     0.042 A 
HETATM    4  C7  UNL     1      23.772  -0.135  53.331  1.00  0.00     0.142 A 
HETATM    5  N2  UNL     1      23.503  -1.028  54.279  1.00  0.00    -0.224 NA
HETATM    6  C14 UNL     1      22.344  -1.134  54.932  1.00  0.00     0.236 A 
HETATM    7  N3  UNL     1      21.356  -0.284  54.627  1.00  0.00    -0.241 NA
HETATM    8  C15 UNL     1      21.547   0.645  53.684  1.00  0.00     0.075 A 
HETATM    9  C16 UNL     1      20.503   1.499  53.402  1.00  0.00     0.072 A 
HETATM   10  C17 UNL     1      20.664   2.484  52.422  1.00  0.00     0.103 A 
ENDROOT
BRANCH   4  11
HETATM   11  N1  UNL     1      25.007  -0.041  52.644  1.00  0.00    -0.340 N 
HETATM   12  H9  UNL     1      25.112  -0.372  51.676  1.00  0.00     0.167 HD
BRANCH  11  13
HETATM   13  C8  UNL     1      26.254   0.475  53.081  1.00  0.00     0.035 A 
HETATM   14  C9  UNL     1      26.498   1.779  53.471  1.00  0.00     0.032 A 
HETATM   15  C10 UNL     1      27.700   2.252  53.889  1.00  0.00     0.046 A 
HETATM   16  C11 UNL     1      28.781   1.436  53.951  1.00  0.00     0.138 A 
HETATM   17  F1  UNL     1      29.945   1.962  54.373  1.00  0.00    -0.204 F 
HETATM   18  C12 UNL     1      28.617   0.109  53.574  1.00  0.00     0.074 A 
HETATM   19 CL1  UNL     1      30.037  -0.899  53.671  1.00  0.00    -0.081 Cl
HETATM   20  C13 UNL     1      27.374  -0.309  53.160  1.00  0.00     0.056 A 
ENDBRANCH  11  13
ENDBRANCH   4  11
BRANCH   1  21
HETATM   21  O1  UNL     1      21.787   3.625  50.832  1.00  0.00    -0.348 OA
BRANCH  21  22
HETATM   22  C3  UNL     1      21.562   3.513  49.486  1.00  0.00     0.175 C 
BRANCH  22  23
HETATM   23  C2  UNL     1      22.773   3.225  48.638  1.00  0.00     0.022 C 
HETATM   24  C1  UNL     1      22.480   2.035  47.735  1.00  0.00     0.007 C 
ENDBRANCH  22  23
ENDBRANCH  21  22
ENDBRANCH   1  21
BRANCH  10  25
HETATM   25  O2  UNL     1      19.541   3.298  52.214  1.00  0.00    -0.353 OA
HETATM   26  C18 UNL     1      18.411   2.797  51.557  1.00  0.00     0.210 C 
ENDBRANCH  10  25
TORSDOF 6
ENDMDL
MODEL 5
REMARK VINA RESULT:      -7.5      4.325      7.180
REMARK  6 active torsions:
REMARK  status: ('A' for Active; 'I' for Inactive)
REMARK    1  A    between atoms: C2_2  and  C3_3 
REMARK    2  A    between atoms: C3_3  and  O1_4 
REMARK    3  A    between atoms: O1_4  and  C4_5 
REMARK    4  A    between atoms: C7_8  and  N1_9 
REMARK    5  A    between atoms: N1_9  and  C8_10 
REMARK    6  A    between atoms: C17_23  and  O2_24 
ROOT
HETATM    1  C4  UNL     1      25.929  -0.054  53.440  1.00  0.00     0.103 A 
HETATM    2  C5  UNL     1      24.709   0.217  52.901  1.00  0.00     0.057 A 
HETATM    3  C6  UNL     1      24.106   1.436  52.755  1.00  0.00     0.042 A 
HETATM    4  C7  UNL     1      22.866   1.620  52.196  1.00  0.00     0.142 A 
HETATM    5  N2  UNL     1      22.446   2.880  52.140  1.00  0.00    -0.224 NA
HETATM    6  C14 UNL     1      23.128   3.941  52.576  1.00  0.00     0.236 A 
HETATM    7  N3  UNL     1      24.337   3.747  53.119  1.00  0.00    -0.241 NA
HETATM    8  C15 UNL     1      24.832   2.508  53.212  1.00  0.00     0.075 A 
HETATM    9  C16 UNL     1      26.079   2.354  53.778  1.00  0.00     0.072 A 
HETATM   10  C17 UNL     1      26.631   1.074  53.894  1.00  0.00     0.103 A 
ENDROOT
BRANCH   4  11
HETATM   11  N1  UNL     1      22.130   0.506  51.723  1.00  0.00    -0.340 N 
HETATM   12  H9  UNL     1      22.536  -0.165  51.058  1.00  0.00     0.167 HD
BRANCH  11  13
HETATM   13  C8  UNL     1      20.805   0.098  52.022  1.00  0.00     0.035 A 
HETATM   14  C9  UNL     1      20.388  -0.500  53.197  1.00  0.00     0.032 A 
HETATM   15  C10 UNL     1      19.112  -0.880  53.464  1.00  0.00     0.046 A 
HETATM   16  C11 UNL     1      18.127  -0.687  52.552  1.00  0.00     0.138 A 
HETATM   17  F1  UNL     1      16.883  -1.085  52.874  1.00  0.00    -0.204 F 
HETATM   18  C12 UNL     1      18.467  -0.090  51.345  1.00  0.00     0.074 A 
HETATM   19 CL1  UNL     1      17.164   0.136  50.206  1.00  0.00    -0.081 Cl
HETATM   20  C13 UNL     1      19.776   0.272  51.134  1.00  0.00     0.056 A 
ENDBRANCH  11  13
ENDBRANCH   4  11
BRANCH   1  21
HETATM   21  O1  UNL     1      26.663  -1.169  53.656  1.00  0.00    -0.348 OA
BRANCH  21  22
HETATM   22  C3  UNL     1      27.136  -2.033  52.706  1.00  0.00     0.175 C 
BRANCH  22  23
HETATM   23  C2  UNL     1      28.458  -2.687  53.010  1.00  0.00     0.022 C 
HETATM   24  C1  UNL     1      29.511  -1.610  53.229  1.00  0.00     0.007 C 
ENDBRANCH  22  23
ENDBRANCH  21  22
ENDBRANCH   1  21
BRANCH  10  25
HETATM   25  O2  UNL     1      27.902   1.031  54.482  1.00  0.00    -0.353 OA
HETATM   26  C18 UNL     1      28.886   1.958  54.118  1.00  0.00     0.210 C 
ENDBRANCH  10  25
TORSDOF 6
ENDMDL
MODEL 6
REMARK VINA RESULT:      -7.5      4.441      7.857
REMARK  6 active torsions:
REMARK  status: ('A' for Active; 'I' for Inactive)
REMARK    1  A    between atoms: C2_2  and  C3_3 
REMARK    2  A    between atoms: C3_3  and  O1_4 
REMARK    3  A    between atoms: O1_4  and  C4_5 
REMARK    4  A    between atoms: C7_8  and  N1_9 
REMARK    5  A    between atoms: N1_9  and  C8_10 
REMARK    6  A    between atoms: C17_23  and  O2_24 
ROOT
HETATM    1  C4  UNL     1      26.356   1.717  52.085  1.00  0.00     0.103 A 
HETATM    2  C5  UNL     1      25.095   1.252  52.302  1.00  0.00     0.057 A 
HETATM    3  C6  UNL     1      24.674   0.384  53.271  1.00  0.00     0.042 A 
HETATM    4  C7  UNL     1      23.375  -0.034  53.418  1.00  0.00     0.142 A 
HETATM    5  N2  UNL     1      23.158  -0.882  54.420  1.00  0.00    -0.224 NA
HETATM    6  C14 UNL     1      24.089  -1.336  55.261  1.00  0.00     0.236 A 
HETATM    7  N3  UNL     1      25.352  -0.920  55.106  1.00  0.00    -0.241 NA
HETATM    8  C15 UNL     1      25.653  -0.067  54.121  1.00  0.00     0.075 A 
HETATM    9  C16 UNL     1      26.966   0.335  53.997  1.00  0.00     0.072 A 
HETATM   10  C17 UNL     1      27.320   1.227  52.980  1.00  0.00     0.103 A 
ENDROOT
BRANCH   4  11
HETATM   11  N1  UNL     1      22.373   0.442  52.538  1.00  0.00    -0.340 N 
HETATM   12  H9  UNL     1      22.582   1.136  51.808  1.00  0.00     0.167 HD
BRANCH  11  13
HETATM   13  C8  UNL     1      20.995   0.111  52.463  1.00  0.00     0.035 A 
HETATM   14  C9  UNL     1      20.274  -0.571  53.426  1.00  0.00     0.032 A 
HETATM   15  C10 UNL     1      18.954  -0.875  53.335  1.00  0.00     0.046 A 
HETATM   16  C11 UNL     1      18.233  -0.511  52.246  1.00  0.00     0.138 A 
HETATM   17  F1  UNL     1      16.929  -0.841  52.214  1.00  0.00    -0.204 F 
HETATM   18  C12 UNL     1      18.888   0.179  51.234  1.00  0.00     0.074 A 
HETATM   19 CL1  UNL     1      17.916   0.624  49.854  1.00  0.00    -0.081 Cl
HETATM   20  C13 UNL     1      20.226   0.457  51.385  1.00  0.00     0.056 A 
ENDBRANCH  11  13
ENDBRANCH   4  11
BRANCH   1  21
HETATM   21  O1  UNL     1      26.936   2.559  51.200  1.00  0.00    -0.348 OA
BRANCH  21  22
HETATM   22  C3  UNL     1      26.511   2.824  49.926  1.00  0.00     0.175 C 
BRANCH  22  23
HETATM   23  C2  UNL     1      26.215   4.267  49.616  1.00  0.00     0.022 C 
HETATM   24  C1  UNL     1      27.330   4.833  48.749  1.00  0.00     0.007 C 
ENDBRANCH  22  23
ENDBRANCH  21  22
ENDBRANCH   1  21
BRANCH  10  25
HETATM   25  O2  UNL     1      28.679   1.570  52.944  1.00  0.00    -0.353 OA
HETATM   26  C18 UNL     1      29.600   0.915  53.770  1.00  0.00     0.210 C 
ENDBRANCH  10  25
TORSDOF 6
ENDMDL
MODEL 7
REMARK VINA RESULT:      -7.5      1.898      4.010
REMARK  6 active torsions:
REMARK  status: ('A' for Active; 'I' for Inactive)
REMARK    1  A    between atoms: C2_2  and  C3_3 
REMARK    2  A    between atoms: C3_3  and  O1_4 
REMARK    3  A    between atoms: O1_4  and  C4_5 
REMARK    4  A    between atoms: C7_8  and  N1_9 
REMARK    5  A    between atoms: N1_9  and  C8_10 
REMARK    6  A    between atoms: C17_23  and  O2_24 
ROOT
HETATM    1  C4  UNL     1      23.186   2.428  50.097  1.00  0.00     0.103 A 
HETATM    2  C5  UNL     1      23.877   2.010  51.192  1.00  0.00     0.057 A 
HETATM    3  C6  UNL     1      23.524   1.041  52.090  1.00  0.00     0.042 A 
HETATM    4  C7  UNL     1      24.285   0.680  53.174  1.00  0.00     0.142 A 
HETATM    5  N2  UNL     1      23.775  -0.283  53.935  1.00  0.00    -0.224 NA
HETATM    6  C14 UNL     1      22.612  -0.901  53.721  1.00  0.00     0.236 A 
HETATM    7  N3  UNL     1      21.880  -0.540  52.660  1.00  0.00    -0.241 NA
HETATM    8  C15 UNL     1      22.322   0.423  51.845  1.00  0.00     0.075 A 
HETATM    9  C16 UNL     1      21.536   0.765  50.765  1.00  0.00     0.072 A 
HETATM   10  C17 UNL     1      21.965   1.767  49.889  1.00  0.00     0.103 A 
ENDROOT
BRANCH   4  11
HETATM   11  N1  UNL     1      25.525   1.321  53.413  1.00  0.00    -0.340 N 
HETATM   12  H9  UNL     1      25.587   2.337  53.561  1.00  0.00     0.167 HD
BRANCH  11  13
HETATM   13  C8  UNL     1      26.831   0.774  53.496  1.00  0.00     0.035 A 
HETATM   14  C9  UNL     1      27.979   1.468  53.834  1.00  0.00     0.032 A 
HETATM   15  C10 UNL     1      29.220   0.924  53.911  1.00  0.00     0.046 A 
HETATM   16  C11 UNL     1      29.417  -0.391  53.648  1.00  0.00     0.138 A 
HETATM   17  F1  UNL     1      30.670  -0.873  53.740  1.00  0.00    -0.204 F 
HETATM   18  C12 UNL     1      28.311  -1.157  53.300  1.00  0.00     0.074 A 
HETATM   19 CL1  UNL     1      28.616  -2.843  52.971  1.00  0.00    -0.081 Cl
HETATM   20  C13 UNL     1      27.080  -0.547  53.240  1.00  0.00     0.056 A 
ENDBRANCH  11  13
ENDBRANCH   4  11
BRANCH   1  21
HETATM   21  O1  UNL     1      23.382   3.347  49.124  1.00  0.00    -0.348 OA
BRANCH  21  22
HETATM   22  C3  UNL     1      23.369   4.708  49.271  1.00  0.00     0.175 C 
BRANCH  22  23
HETATM   23  C2  UNL     1      24.607   5.432  48.813  1.00  0.00     0.022 C 
HETATM   24  C1  UNL     1      25.836   4.710  49.347  1.00  0.00     0.007 C 
ENDBRANCH  22  23
ENDBRANCH  21  22
ENDBRANCH   1  21
BRANCH  10  25
HETATM   25  O2  UNL     1      21.091   2.034  48.827  1.00  0.00    -0.353 OA
HETATM   26  C18 UNL     1      19.874   2.688  49.053  1.00  0.00     0.210 C 
ENDBRANCH  10  25
TORSDOF 6
ENDMDL
MODEL 8
REMARK VINA RESULT:      -7.4      3.694      6.310
REMARK  6 active torsions:
REMARK  status: ('A' for Active; 'I' for Inactive)
REMARK    1  A    between atoms: C2_2  and  C3_3 
REMARK    2  A    between atoms: C3_3  and  O1_4 
REMARK    3  A    between atoms: O1_4  and  C4_5 
REMARK    4  A    between atoms: C7_8  and  N1_9 
REMARK    5  A    between atoms: N1_9  and  C8_10 
REMARK    6  A    between atoms: C17_23  and  O2_24 
ROOT
HETATM    1  C4  UNL     1      25.415  -0.239  53.728  1.00  0.00     0.103 A 
HETATM    2  C5  UNL     1      24.640   0.704  53.126  1.00  0.00     0.057 A 
HETATM    3  C6  UNL     1      25.005   1.601  52.161  1.00  0.00     0.042 A 
HETATM    4  C7  UNL     1      24.154   2.524  51.605  1.00  0.00     0.142 A 
HETATM    5  N2  UNL     1      24.692   3.313  50.680  1.00  0.00    -0.224 NA
HETATM    6  C14 UNL     1      25.962   3.269  50.272  1.00  0.00     0.236 A 
HETATM    7  N3  UNL     1      26.781   2.364  50.823  1.00  0.00    -0.241 NA
HETATM    8  C15 UNL     1      26.317   1.532  51.761  1.00  0.00     0.075 A 
HETATM    9  C16 UNL     1      27.195   0.618  52.302  1.00  0.00     0.072 A 
HETATM   10  C17 UNL     1      26.747  -0.270  53.286  1.00  0.00     0.103 A 
ENDROOT
BRANCH   4  11
HETATM   11  N1  UNL     1      22.802   2.582  52.023  1.00  0.00    -0.340 N 
HETATM   12  H9  UNL     1      22.515   3.125  52.847  1.00  0.00     0.167 HD
BRANCH  11  13
HETATM   13  C8  UNL     1      21.650   1.970  51.464  1.00  0.00     0.035 A 
HETATM   14  C9  UNL     1      21.216   2.105  50.157  1.00  0.00     0.032 A 
HETATM   15  C10 UNL     1      20.112   1.508  49.642  1.00  0.00     0.046 A 
HETATM   16  C11 UNL     1      19.333   0.709  50.412  1.00  0.00     0.138 A 
HETATM   17  F1  UNL     1      18.251   0.145  49.845  1.00  0.00    -0.204 F 
HETATM   18  C12 UNL     1      19.703   0.524  51.738  1.00  0.00     0.074 A 
HETATM   19 CL1  UNL     1      18.669  -0.512  52.687  1.00  0.00    -0.081 Cl
HETATM   20  C13 UNL     1      20.833   1.156  52.201  1.00  0.00     0.056 A 
ENDBRANCH  11  13
ENDBRANCH   4  11
BRANCH   1  21
HETATM   21  O1  UNL     1      25.223  -1.186  54.674  1.00  0.00    -0.348 OA
BRANCH  21  22
HETATM   22  C3  UNL     1      24.285  -1.168  55.671  1.00  0.00     0.175 C 
BRANCH  22  23
HETATM   23  C2  UNL     1      22.974  -1.838  55.355  1.00  0.00     0.022 C 
HETATM   24  C1  UNL     1      21.944  -0.778  54.990  1.00  0.00     0.007 C 
ENDBRANCH  22  23
ENDBRANCH  21  22
ENDBRANCH   1  21
BRANCH  10  25
HETATM   25  O2  UNL     1      27.720  -1.157  53.766  1.00  0.00    -0.353 OA
HETATM   26  C18 UNL     1      29.067  -0.778  53.815  1.00  0.00     0.210 C 
ENDBRANCH  10  25
TORSDOF 6
ENDMDL
MODEL 9
REMARK VINA RESULT:      -7.3      4.266      7.518
REMARK  6 active torsions:
REMARK  status: ('A' for Active; 'I' for Inactive)
REMARK    1  A    between atoms: C2_2  and  C3_3 
REMARK    2  A    between atoms: C3_3  and  O1_4 
REMARK    3  A    between atoms: O1_4  and  C4_5 
REMARK    4  A    between atoms: C7_8  and  N1_9 
REMARK    5  A    between atoms: N1_9  and  C8_10 
REMARK    6  A    between atoms: C17_23  and  O2_24 
ROOT
HETATM    1  C4  UNL     1      26.290   0.939  52.404  1.00  0.00     0.103 A 
HETATM    2  C5  UNL     1      25.001   0.515  52.497  1.00  0.00     0.057 A 
HETATM    3  C6  UNL     1      24.415  -0.183  53.516  1.00  0.00     0.042 A 
HETATM    4  C7  UNL     1      23.099  -0.573  53.527  1.00  0.00     0.142 A 
HETATM    5  N2  UNL     1      22.712  -1.245  54.607  1.00  0.00    -0.224 NA
HETATM    6  C14 UNL     1      23.492  -1.554  55.645  1.00  0.00     0.236 A 
HETATM    7  N3  UNL     1      24.773  -1.167  55.621  1.00  0.00    -0.241 NA
HETATM    8  C15 UNL     1      25.242  -0.487  54.570  1.00  0.00     0.075 A 
HETATM    9  C16 UNL     1      26.568  -0.109  54.586  1.00  0.00     0.072 A 
HETATM   10  C17 UNL     1      27.095   0.604  53.505  1.00  0.00     0.103 A 
ENDROOT
BRANCH   4  11
HETATM   11  N1  UNL     1      22.256  -0.249  52.437  1.00  0.00    -0.340 N 
HETATM   12  H9  UNL     1      22.194  -0.851  51.606  1.00  0.00     0.167 HD
BRANCH  11  13
HETATM   13  C8  UNL     1      21.391   0.861  52.254  1.00  0.00     0.035 A 
HETATM   14  C9  UNL     1      20.014   0.803  52.140  1.00  0.00     0.032 A 
HETATM   15  C10 UNL     1      19.205   1.879  51.968  1.00  0.00     0.046 A 
HETATM   16  C11 UNL     1      19.722   3.130  51.894  1.00  0.00     0.138 A 
HETATM   17  F1  UNL     1      18.869   4.157  51.723  1.00  0.00    -0.204 F 
HETATM   18  C12 UNL     1      21.100   3.271  52.000  1.00  0.00     0.074 A 
HETATM   19 CL1  UNL     1      21.716   4.900  51.898  1.00  0.00    -0.081 Cl
HETATM   20  C13 UNL     1      21.866   2.142  52.173  1.00  0.00     0.056 A 
ENDBRANCH  11  13
ENDBRANCH   4  11
BRANCH   1  21
HETATM   21  O1  UNL     1      27.019   1.625  51.494  1.00  0.00    -0.348 OA
BRANCH  21  22
HETATM   22  C3  UNL     1      26.786   2.900  51.055  1.00  0.00     0.175 C 
BRANCH  22  23
HETATM   23  C2  UNL     1      26.171   3.023  49.686  1.00  0.00     0.022 C 
HETATM   24  C1  UNL     1      24.686   3.326  49.830  1.00  0.00     0.007 C 
ENDBRANCH  22  23
ENDBRANCH  21  22
ENDBRANCH   1  21
BRANCH  10  25
HETATM   25  O2  UNL     1      28.451   0.938  53.625  1.00  0.00    -0.353 OA
HETATM   26  C18 UNL     1      29.409  -0.053  53.872  1.00  0.00     0.210 C 
ENDBRANCH  10  25
TORSDOF 6
ENDMDL
