MODEL 1
REMARK VINA RESULT:      -8.4      0.000      0.000
REMARK  2 active torsions:
REMARK  status: ('A' for Active; 'I' for Inactive)
REMARK    1  A    between atoms: O1_2  and  C2_3 
REMARK    2  A    between atoms: C7_8  and  C8_9 
ROOT
HETATM    1  C8  UNL     1      19.415   0.800  51.579  1.00  0.00     0.001 C 
HETATM    2  C9  UNL     1      19.257   2.084  51.646  1.00  0.00     0.147 C 
HETATM    3  O2  UNL     1      18.694   3.286  51.346  1.00  0.00    -0.354 OA
HETATM    4  C10 UNL     1      17.408   3.633  51.889  1.00  0.00     0.165 C 
HETATM    5  C11 UNL     1      16.185   3.235  51.605  1.00  0.00     0.060 C 
HETATM    6  C12 UNL     1      14.687   2.999  51.535  1.00  0.00     0.159 C 
HETATM    7  O3  UNL     1      14.171   3.096  52.784  1.00  0.00    -0.381 OA
HETATM    8  C13 UNL     1      13.479   4.314  52.968  1.00  0.00     0.169 C 
HETATM    9  C14 UNL     1      12.979   4.357  54.380  1.00  0.00     0.030 C 
HETATM   10  C15 UNL     1      11.834   3.384  54.573  1.00  0.00     0.030 C 
HETATM   11  C16 UNL     1      12.226   2.100  53.951  1.00  0.00    -0.010 C 
HETATM   12  C17 UNL     1      12.571   0.945  53.473  1.00  0.00     0.079 C 
HETATM   13  N1  UNL     1      12.853   0.352  52.231  1.00  0.00    -0.395 N 
HETATM   14  C18 UNL     1      13.150   1.014  50.999  1.00  0.00     0.156 C 
HETATM   15  C19 UNL     1      14.389   1.735  50.857  1.00  0.00    -0.021 C 
HETATM   16  C20 UNL     1      15.389   1.365  49.960  1.00  0.00     0.022 C 
HETATM   17  C21 UNL     1      16.659   1.650  49.331  1.00  0.00     0.101 C 
HETATM   18  C22 UNL     1      17.473   0.527  49.881  1.00  0.00     0.017 C 
HETATM   19  C23 UNL     1      18.453   0.315  50.689  1.00  0.00     0.039 C 
HETATM   20  N2  UNL     1      16.642  -0.518  49.265  1.00  0.00    -0.327 N 
HETATM   21  C24 UNL     1      15.239  -0.003  49.296  1.00  0.00     0.252 C 
HETATM   22  O4  UNL     1      14.324  -0.764  48.806  1.00  0.00    -0.268 OA
HETATM   23  H20 UNL     1      12.777  -0.688  52.474  1.00  0.00     0.159 HD
HETATM   24  H26 UNL     1      16.890  -1.482  48.858  1.00  0.00     0.169 HD
ENDROOT
BRANCH   1  25
HETATM   25  C7  UNL     1      20.431   0.231  52.380  1.00  0.00     0.009 A 
HETATM   26  C2  UNL     1      20.143  -0.583  53.457  1.00  0.00     0.079 A 
HETATM   27  C3  UNL     1      21.076  -1.107  54.323  1.00  0.00     0.037 A 
HETATM   28  C4  UNL     1      22.423  -0.829  54.140  1.00  0.00     0.003 A 
HETATM   29  C5  UNL     1      22.707  -0.007  53.046  1.00  0.00     0.001 A 
HETATM   30  C6  UNL     1      21.777   0.481  52.235  1.00  0.00     0.015 A 
BRANCH  26  31
HETATM   31  O1  UNL     1      18.865  -0.938  53.746  1.00  0.00    -0.355 OA
HETATM   32  C1  UNL     1      18.167  -2.110  53.509  1.00  0.00     0.210 C 
ENDBRANCH  26  31
ENDBRANCH   1  25
TORSDOF 2
ENDMDL
MODEL 2
REMARK VINA RESULT:      -8.4      7.020      9.564
REMARK  2 active torsions:
REMARK  status: ('A' for Active; 'I' for Inactive)
REMARK    1  A    between atoms: O1_2  and  C2_3 
REMARK    2  A    between atoms: C7_8  and  C8_9 
ROOT
HETATM    1  C8  UNL     1      25.740   6.593  48.862  1.00  0.00     0.001 C 
HETATM    2  C9  UNL     1      25.406   6.675  50.111  1.00  0.00     0.147 C 
HETATM    3  O2  UNL     1      24.555   6.780  51.168  1.00  0.00    -0.354 OA
HETATM    4  C10 UNL     1      23.783   5.641  51.584  1.00  0.00     0.165 C 
HETATM    5  C11 UNL     1      22.725   5.046  51.070  1.00  0.00     0.060 C 
HETATM    6  C12 UNL     1      21.542   4.149  50.756  1.00  0.00     0.159 C 
HETATM    7  O3  UNL     1      21.835   2.886  51.149  1.00  0.00    -0.381 OA
HETATM    8  C13 UNL     1      21.160   2.540  52.339  1.00  0.00     0.169 C 
HETATM    9  C14 UNL     1      21.570   1.151  52.723  1.00  0.00     0.030 C 
HETATM   10  C15 UNL     1      20.960   0.133  51.781  1.00  0.00     0.030 C 
HETATM   11  C16 UNL     1      21.159   0.624  50.399  1.00  0.00    -0.010 C 
HETATM   12  C17 UNL     1      21.378   0.997  49.178  1.00  0.00     0.079 C 
HETATM   13  N1  UNL     1      20.997   2.025  48.297  1.00  0.00    -0.395 N 
HETATM   14  C18 UNL     1      20.394   3.277  48.631  1.00  0.00     0.156 C 
HETATM   15  C19 UNL     1      21.156   4.268  49.348  1.00  0.00    -0.021 C 
HETATM   16  C20 UNL     1      21.502   5.504  48.805  1.00  0.00     0.022 C 
HETATM   17  C21 UNL     1      22.091   6.812  48.976  1.00  0.00     0.101 C 
HETATM   18  C22 UNL     1      23.270   6.681  48.071  1.00  0.00     0.017 C 
HETATM   19  C23 UNL     1      24.555   6.612  48.120  1.00  0.00     0.039 C 
HETATM   20  N2  UNL     1      22.456   6.466  46.866  1.00  0.00    -0.327 N 
HETATM   21  C24 UNL     1      21.262   5.683  47.306  1.00  0.00     0.252 C 
HETATM   22  O4  UNL     1      20.400   5.371  46.404  1.00  0.00    -0.268 OA
HETATM   23  H20 UNL     1      21.278   1.605  47.353  1.00  0.00     0.159 HD
HETATM   24  H26 UNL     1      22.603   6.760  45.841  1.00  0.00     0.169 HD
ENDROOT
BRANCH   1  25
HETATM   25  C7  UNL     1      27.118   6.489  48.566  1.00  0.00     0.009 A 
HETATM   26  C2  UNL     1      27.873   7.586  48.204  1.00  0.00     0.079 A 
HETATM   27  C3  UNL     1      29.197   7.546  47.830  1.00  0.00     0.037 A 
HETATM   28  C4  UNL     1      29.871   6.332  47.799  1.00  0.00     0.003 A 
HETATM   29  C5  UNL     1      29.100   5.226  48.169  1.00  0.00     0.001 A 
HETATM   30  C6  UNL     1      27.823   5.307  48.522  1.00  0.00     0.015 A 
BRANCH  26  31
HETATM   31  O1  UNL     1      27.338   8.834  48.197  1.00  0.00    -0.355 OA
HETATM   32  C1  UNL     1      27.527   9.914  49.043  1.00  0.00     0.210 C 
ENDBRANCH  26  31
ENDBRANCH   1  25
TORSDOF 2
ENDMDL
MODEL 3
REMARK VINA RESULT:      -8.2      5.994      8.213
REMARK  2 active torsions:
REMARK  status: ('A' for Active; 'I' for Inactive)
REMARK    1  A    between atoms: O1_2  and  C2_3 
REMARK    2  A    between atoms: C7_8  and  C8_9 
ROOT
HETATM    1  C8  UNL     1      23.778   2.133  52.682  1.00  0.00     0.001 C 
HETATM    2  C9  UNL     1      22.528   1.801  52.612  1.00  0.00     0.147 C 
HETATM    3  O2  UNL     1      21.188   2.012  52.495  1.00  0.00    -0.354 OA
HETATM    4  C10 UNL     1      20.623   2.351  51.217  1.00  0.00     0.165 C 
HETATM    5  C11 UNL     1      20.640   3.456  50.500  1.00  0.00     0.060 C 
HETATM    6  C12 UNL     1      20.468   4.538  49.449  1.00  0.00     0.159 C 
HETATM    7  O3  UNL     1      20.459   3.959  48.224  1.00  0.00    -0.381 OA
HETATM    8  C13 UNL     1      19.156   3.907  47.683  1.00  0.00     0.169 C 
HETATM    9  C14 UNL     1      19.230   3.219  46.353  1.00  0.00     0.030 C 
HETATM   10  C15 UNL     1      19.896   4.111  45.325  1.00  0.00     0.030 C 
HETATM   11  C16 UNL     1      21.110   4.684  45.947  1.00  0.00    -0.010 C 
HETATM   12  C17 UNL     1      22.214   5.148  46.444  1.00  0.00     0.079 C 
HETATM   13  N1  UNL     1      22.636   6.022  47.461  1.00  0.00    -0.395 N 
HETATM   14  C18 UNL     1      21.870   6.500  48.569  1.00  0.00     0.156 C 
HETATM   15  C19 UNL     1      21.477   5.588  49.612  1.00  0.00    -0.021 C 
HETATM   16  C20 UNL     1      21.930   5.690  50.926  1.00  0.00     0.022 C 
HETATM   17  C21 UNL     1      21.875   5.232  52.295  1.00  0.00     0.101 C 
HETATM   18  C22 UNL     1      23.247   4.660  52.428  1.00  0.00     0.017 C 
HETATM   19  C23 UNL     1      23.839   3.525  52.565  1.00  0.00     0.039 C 
HETATM   20  N2  UNL     1      23.921   5.942  52.177  1.00  0.00    -0.327 N 
HETATM   21  C24 UNL     1      23.078   6.666  51.179  1.00  0.00     0.252 C 
HETATM   22  O4  UNL     1      23.483   7.827  50.801  1.00  0.00    -0.268 OA
HETATM   23  H20 UNL     1      23.648   6.211  47.166  1.00  0.00     0.159 HD
HETATM   24  H26 UNL     1      24.832   6.360  52.569  1.00  0.00     0.169 HD
ENDROOT
BRANCH   1  25
HETATM   25  C7  UNL     1      24.718   1.088  52.826  1.00  0.00     0.009 A 
HETATM   26  C2  UNL     1      25.769   0.924  51.947  1.00  0.00     0.079 A 
HETATM   27  C3  UNL     1      26.674  -0.112  51.982  1.00  0.00     0.037 A 
HETATM   28  C4  UNL     1      26.566  -1.093  52.959  1.00  0.00     0.003 A 
HETATM   29  C5  UNL     1      25.501  -0.919  53.847  1.00  0.00     0.001 A 
HETATM   30  C6  UNL     1      24.647   0.095  53.778  1.00  0.00     0.015 A 
BRANCH  26  31
HETATM   31  O1  UNL     1      25.993   1.814  50.947  1.00  0.00    -0.355 OA
HETATM   32  C1  UNL     1      26.821   2.922  50.879  1.00  0.00     0.210 C 
ENDBRANCH  26  31
ENDBRANCH   1  25
TORSDOF 2
ENDMDL
MODEL 4
REMARK VINA RESULT:      -7.9      5.816      8.007
REMARK  2 active torsions:
REMARK  status: ('A' for Active; 'I' for Inactive)
REMARK    1  A    between atoms: O1_2  and  C2_3 
REMARK    2  A    between atoms: C7_8  and  C8_9 
ROOT
HETATM    1  C8  UNL     1      23.103   1.949  51.809  1.00  0.00     0.001 C 
HETATM    2  C9  UNL     1      22.131   1.356  51.191  1.00  0.00     0.147 C 
HETATM    3  O2  UNL     1      20.910   1.256  50.599  1.00  0.00    -0.354 OA
HETATM    4  C10 UNL     1      20.698   1.813  49.290  1.00  0.00     0.165 C 
HETATM    5  C11 UNL     1      20.564   3.051  48.860  1.00  0.00     0.060 C 
HETATM    6  C12 UNL     1      20.376   4.322  48.051  1.00  0.00     0.159 C 
HETATM    7  O3  UNL     1      20.952   4.155  46.837  1.00  0.00    -0.381 OA
HETATM    8  C13 UNL     1      19.987   3.949  45.826  1.00  0.00     0.169 C 
HETATM    9  C14 UNL     1      20.706   3.734  44.530  1.00  0.00     0.030 C 
HETATM   10  C15 UNL     1      21.318   5.029  44.035  1.00  0.00     0.030 C 
HETATM   11  C16 UNL     1      22.002   5.669  45.181  1.00  0.00    -0.010 C 
HETATM   12  C17 UNL     1      22.665   6.218  46.150  1.00  0.00     0.079 C 
HETATM   13  N1  UNL     1      22.420   6.821  47.395  1.00  0.00    -0.395 N 
HETATM   14  C18 UNL     1      21.229   6.740  48.181  1.00  0.00     0.156 C 
HETATM   15  C19 UNL     1      20.861   5.488  48.793  1.00  0.00    -0.021 C 
HETATM   16  C20 UNL     1      20.812   5.299  50.172  1.00  0.00     0.022 C 
HETATM   17  C21 UNL     1      20.486   4.452  51.297  1.00  0.00     0.101 C 
HETATM   18  C22 UNL     1      21.854   4.222  51.848  1.00  0.00     0.017 C 
HETATM   19  C23 UNL     1      22.721   3.281  51.991  1.00  0.00     0.039 C 
HETATM   20  N2  UNL     1      22.095   5.645  52.130  1.00  0.00    -0.327 N 
HETATM   21  C24 UNL     1      21.418   6.405  51.036  1.00  0.00     0.252 C 
HETATM   22  O4  UNL     1      21.500   7.688  51.075  1.00  0.00    -0.268 OA
HETATM   23  H20 UNL     1      23.345   7.334  47.564  1.00  0.00     0.159 HD
HETATM   24  H26 UNL     1      22.636   6.136  52.920  1.00  0.00     0.169 HD
ENDROOT
BRANCH   1  25
HETATM   25  C7  UNL     1      24.246   1.174  52.111  1.00  0.00     0.009 A 
HETATM   26  C2  UNL     1      24.254   0.254  53.140  1.00  0.00     0.079 A 
HETATM   27  C3  UNL     1      25.350  -0.477  53.538  1.00  0.00     0.037 A 
HETATM   28  C4  UNL     1      26.564  -0.316  52.883  1.00  0.00     0.003 A 
HETATM   29  C5  UNL     1      26.547   0.614  51.840  1.00  0.00     0.001 A 
HETATM   30  C6  UNL     1      25.468   1.302  51.489  1.00  0.00     0.015 A 
BRANCH  26  31
HETATM   31  O1  UNL     1      23.132  -0.003  53.859  1.00  0.00    -0.355 OA
HETATM   32  C1  UNL     1      22.708  -1.149  54.511  1.00  0.00     0.210 C 
ENDBRANCH  26  31
ENDBRANCH   1  25
TORSDOF 2
ENDMDL
MODEL 5
REMARK VINA RESULT:      -7.8     13.723     16.599
REMARK  2 active torsions:
REMARK  status: ('A' for Active; 'I' for Inactive)
REMARK    1  A    between atoms: O1_2  and  C2_3 
REMARK    2  A    between atoms: C7_8  and  C8_9 
ROOT
HETATM    1  C8  UNL     1      31.908   6.751  47.410  1.00  0.00     0.001 C 
HETATM    2  C9  UNL     1      31.769   7.194  46.202  1.00  0.00     0.147 C 
HETATM    3  O2  UNL     1      31.094   7.673  45.121  1.00  0.00    -0.354 OA
HETATM    4  C10 UNL     1      30.634   9.035  45.107  1.00  0.00     0.165 C 
HETATM    5  C11 UNL     1      29.644   9.648  45.724  1.00  0.00     0.060 C 
HETATM    6  C12 UNL     1      28.623  10.634  46.262  1.00  0.00     0.159 C 
HETATM    7  O3  UNL     1      29.215  11.844  46.398  1.00  0.00    -0.381 OA
HETATM    8  C13 UNL     1      28.819  12.736  45.378  1.00  0.00     0.169 C 
HETATM    9  C14 UNL     1      29.547  14.030  45.579  1.00  0.00     0.030 C 
HETATM   10  C15 UNL     1      29.004  14.769  46.786  1.00  0.00     0.030 C 
HETATM   11  C16 UNL     1      28.881  13.793  47.891  1.00  0.00    -0.010 C 
HETATM   12  C17 UNL     1      28.825  12.975  48.895  1.00  0.00     0.079 C 
HETATM   13  N1  UNL     1      28.116  11.827  49.291  1.00  0.00    -0.395 N 
HETATM   14  C18 UNL     1      27.342  10.955  48.464  1.00  0.00     0.156 C 
HETATM   15  C19 UNL     1      28.002  10.125  47.487  1.00  0.00    -0.021 C 
HETATM   16  C20 UNL     1      28.009   8.734  47.549  1.00  0.00     0.022 C 
HETATM   17  C21 UNL     1      28.352   7.467  46.943  1.00  0.00     0.101 C 
HETATM   18  C22 UNL     1      29.375   6.986  47.918  1.00  0.00     0.017 C 
HETATM   19  C23 UNL     1      30.639   6.758  47.997  1.00  0.00     0.039 C 
HETATM   20  N2  UNL     1      28.436   6.954  49.049  1.00  0.00    -0.327 N 
HETATM   21  C24 UNL     1      27.503   8.104  48.847  1.00  0.00     0.252 C 
HETATM   22  O4  UNL     1      26.585   8.277  49.731  1.00  0.00    -0.268 OA
HETATM   23  H20 UNL     1      28.318  11.810  50.342  1.00  0.00     0.159 HD
HETATM   24  H26 UNL     1      28.357   6.295  49.895  1.00  0.00     0.169 HD
ENDROOT
BRANCH   1  25
HETATM   25  C7  UNL     1      33.215   6.411  47.829  1.00  0.00     0.009 A 
HETATM   26  C2  UNL     1      33.594   5.103  48.052  1.00  0.00     0.079 A 
HETATM   27  C3  UNL     1      34.822   4.708  48.531  1.00  0.00     0.037 A 
HETATM   28  C4  UNL     1      35.789   5.659  48.827  1.00  0.00     0.003 A 
HETATM   29  C5  UNL     1      35.398   6.981  48.596  1.00  0.00     0.001 A 
HETATM   30  C6  UNL     1      34.202   7.322  48.134  1.00  0.00     0.015 A 
BRANCH  26  31
HETATM   31  O1  UNL     1      32.746   4.074  47.799  1.00  0.00    -0.355 OA
HETATM   32  C1  UNL     1      32.674   3.191  46.736  1.00  0.00     0.210 C 
ENDBRANCH  26  31
ENDBRANCH   1  25
TORSDOF 2
ENDMDL
MODEL 6
REMARK VINA RESULT:      -7.8     13.322     17.260
REMARK  2 active torsions:
REMARK  status: ('A' for Active; 'I' for Inactive)
REMARK    1  A    between atoms: O1_2  and  C2_3 
REMARK    2  A    between atoms: C7_8  and  C8_9 
ROOT
HETATM    1  C8  UNL     1      28.682   6.607  48.317  1.00  0.00     0.001 C 
HETATM    2  C9  UNL     1      29.304   7.643  48.783  1.00  0.00     0.147 C 
HETATM    3  O2  UNL     1      30.384   8.387  49.147  1.00  0.00    -0.354 OA
HETATM    4  C10 UNL     1      31.199   9.011  48.140  1.00  0.00     0.165 C 
HETATM    5  C11 UNL     1      32.087   8.535  47.291  1.00  0.00     0.060 C 
HETATM    6  C12 UNL     1      33.135   8.322  46.214  1.00  0.00     0.159 C 
HETATM    7  O3  UNL     1      32.905   9.194  45.203  1.00  0.00    -0.381 OA
HETATM    8  C13 UNL     1      33.833  10.259  45.213  1.00  0.00     0.169 C 
HETATM    9  C14 UNL     1      33.483  11.192  44.094  1.00  0.00     0.030 C 
HETATM   10  C15 UNL     1      33.822  10.573  42.753  1.00  0.00     0.030 C 
HETATM   11  C16 UNL     1      33.317   9.182  42.761  1.00  0.00    -0.010 C 
HETATM   12  C17 UNL     1      32.826   7.983  42.716  1.00  0.00     0.079 C 
HETATM   13  N1  UNL     1      33.018   6.734  43.330  1.00  0.00    -0.395 N 
HETATM   14  C18 UNL     1      33.720   6.461  44.545  1.00  0.00     0.156 C 
HETATM   15  C19 UNL     1      33.179   6.918  45.800  1.00  0.00    -0.021 C 
HETATM   16  C20 UNL     1      32.752   6.054  46.806  1.00  0.00     0.022 C 
HETATM   17  C21 UNL     1      32.259   5.864  48.151  1.00  0.00     0.101 C 
HETATM   18  C22 UNL     1      30.896   5.336  47.851  1.00  0.00     0.017 C 
HETATM   19  C23 UNL     1      29.658   5.676  47.948  1.00  0.00     0.039 C 
HETATM   20  N2  UNL     1      31.395   4.146  47.148  1.00  0.00    -0.327 N 
HETATM   21  C24 UNL     1      32.635   4.576  46.433  1.00  0.00     0.252 C 
HETATM   22  O4  UNL     1      33.250   3.686  45.737  1.00  0.00    -0.268 OA
HETATM   23  H20 UNL     1      32.510   6.085  42.647  1.00  0.00     0.159 HD
HETATM   24  H26 UNL     1      31.018   3.140  47.087  1.00  0.00     0.169 HD
ENDROOT
BRANCH   1  25
HETATM   25  C7  UNL     1      27.271   6.665  48.273  1.00  0.00     0.009 A 
HETATM   26  C2  UNL     1      26.481   5.660  48.794  1.00  0.00     0.079 A 
HETATM   27  C3  UNL     1      25.108   5.615  48.718  1.00  0.00     0.037 A 
HETATM   28  C4  UNL     1      24.416   6.636  48.080  1.00  0.00     0.003 A 
HETATM   29  C5  UNL     1      25.222   7.651  47.557  1.00  0.00     0.001 A 
HETATM   30  C6  UNL     1      26.546   7.657  47.650  1.00  0.00     0.015 A 
BRANCH  26  31
HETATM   31  O1  UNL     1      27.030   4.604  49.447  1.00  0.00    -0.355 OA
HETATM   32  C1  UNL     1      26.542   3.334  49.700  1.00  0.00     0.210 C 
ENDBRANCH  26  31
ENDBRANCH   1  25
TORSDOF 2
ENDMDL
MODEL 7
REMARK VINA RESULT:      -7.8      3.304      5.198
REMARK  2 active torsions:
REMARK  status: ('A' for Active; 'I' for Inactive)
REMARK    1  A    between atoms: O1_2  and  C2_3 
REMARK    2  A    between atoms: C7_8  and  C8_9 
ROOT
HETATM    1  C8  UNL     1      23.793   2.298  51.340  1.00  0.00     0.001 C 
HETATM    2  C9  UNL     1      23.264   3.194  52.110  1.00  0.00     0.147 C 
HETATM    3  O2  UNL     1      22.550   4.313  52.411  1.00  0.00    -0.354 OA
HETATM    4  C10 UNL     1      21.114   4.289  52.341  1.00  0.00     0.165 C 
HETATM    5  C11 UNL     1      20.271   4.286  51.328  1.00  0.00     0.060 C 
HETATM    6  C12 UNL     1      19.058   4.275  50.415  1.00  0.00     0.159 C 
HETATM    7  O3  UNL     1      18.085   3.529  50.992  1.00  0.00    -0.381 OA
HETATM    8  C13 UNL     1      17.062   4.336  51.536  1.00  0.00     0.169 C 
HETATM    9  C14 UNL     1      16.054   3.439  52.185  1.00  0.00     0.030 C 
HETATM   10  C15 UNL     1      15.254   2.686  51.141  1.00  0.00     0.030 C 
HETATM   11  C16 UNL     1      16.208   2.152  50.144  1.00  0.00    -0.010 C 
HETATM   12  C17 UNL     1      17.026   1.617  49.293  1.00  0.00     0.079 C 
HETATM   13  N1  UNL     1      17.933   2.017  48.296  1.00  0.00    -0.395 N 
HETATM   14  C18 UNL     1      18.492   3.318  48.101  1.00  0.00     0.156 C 
HETATM   15  C19 UNL     1      19.426   3.846  49.064  1.00  0.00    -0.021 C 
HETATM   16  C20 UNL     1      20.759   4.117  48.765  1.00  0.00     0.022 C 
HETATM   17  C21 UNL     1      22.036   4.660  49.171  1.00  0.00     0.101 C 
HETATM   18  C22 UNL     1      22.849   3.408  49.194  1.00  0.00     0.017 C 
HETATM   19  C23 UNL     1      23.444   2.628  50.028  1.00  0.00     0.039 C 
HETATM   20  N2  UNL     1      22.663   3.134  47.762  1.00  0.00    -0.327 N 
HETATM   21  C24 UNL     1      21.280   3.591  47.428  1.00  0.00     0.252 C 
HETATM   22  O4  UNL     1      20.892   3.443  46.210  1.00  0.00    -0.268 OA
HETATM   23  H20 UNL     1      18.066   1.102  47.756  1.00  0.00     0.159 HD
HETATM   24  H26 UNL     1      23.315   2.695  47.027  1.00  0.00     0.169 HD
ENDROOT
BRANCH   1  25
HETATM   25  C7  UNL     1      24.525   1.261  51.962  1.00  0.00     0.009 A 
HETATM   26  C2  UNL     1      23.939   0.386  52.854  1.00  0.00     0.079 A 
HETATM   27  C3  UNL     1      24.605  -0.596  53.552  1.00  0.00     0.037 A 
HETATM   28  C4  UNL     1      25.973  -0.761  53.379  1.00  0.00     0.003 A 
HETATM   29  C5  UNL     1      26.559   0.127  52.473  1.00  0.00     0.001 A 
HETATM   30  C6  UNL     1      25.880   1.063  51.820  1.00  0.00     0.015 A 
BRANCH  26  31
HETATM   31  O1  UNL     1      22.607   0.435  53.112  1.00  0.00    -0.355 OA
HETATM   32  C1  UNL     1      21.642  -0.558  53.123  1.00  0.00     0.210 C 
ENDBRANCH  26  31
ENDBRANCH   1  25
TORSDOF 2
ENDMDL
MODEL 8
REMARK VINA RESULT:      -7.8     13.154     16.230
REMARK  2 active torsions:
REMARK  status: ('A' for Active; 'I' for Inactive)
REMARK    1  A    between atoms: O1_2  and  C2_3 
REMARK    2  A    between atoms: C7_8  and  C8_9 
ROOT
HETATM    1  C8  UNL     1      32.095   6.196  47.316  1.00  0.00     0.001 C 
HETATM    2  C9  UNL     1      31.072   5.608  47.850  1.00  0.00     0.147 C 
HETATM    3  O2  UNL     1      29.937   5.518  48.597  1.00  0.00    -0.354 OA
HETATM    4  C10 UNL     1      28.701   6.050  48.092  1.00  0.00     0.165 C 
HETATM    5  C11 UNL     1      28.251   7.280  47.952  1.00  0.00     0.060 C 
HETATM    6  C12 UNL     1      27.449   8.536  47.662  1.00  0.00     0.159 C 
HETATM    7  O3  UNL     1      26.703   8.330  46.550  1.00  0.00    -0.381 OA
HETATM    8  C13 UNL     1      25.343   8.120  46.866  1.00  0.00     0.169 C 
HETATM    9  C14 UNL     1      24.601   7.861  45.589  1.00  0.00     0.030 C 
HETATM   10  C15 UNL     1      24.478   9.133  44.774  1.00  0.00     0.030 C 
HETATM   11  C16 UNL     1      25.806   9.785  44.756  1.00  0.00    -0.010 C 
HETATM   12  C17 UNL     1      26.973  10.343  44.668  1.00  0.00     0.079 C 
HETATM   13  N1  UNL     1      27.911  10.979  45.500  1.00  0.00    -0.395 N 
HETATM   14  C18 UNL     1      27.974  10.939  46.927  1.00  0.00     0.156 C 
HETATM   15  C19 UNL     1      28.323   9.709  47.593  1.00  0.00    -0.021 C 
HETATM   16  C20 UNL     1      29.483   9.551  48.347  1.00  0.00     0.022 C 
HETATM   17  C21 UNL     1      30.289   8.737  49.227  1.00  0.00     0.101 C 
HETATM   18  C22 UNL     1      31.467   8.493  48.343  1.00  0.00     0.017 C 
HETATM   19  C23 UNL     1      32.042   7.539  47.699  1.00  0.00     0.039 C 
HETATM   20  N2  UNL     1      31.818   9.917  48.240  1.00  0.00    -0.327 N 
HETATM   21  C24 UNL     1      30.525  10.665  48.239  1.00  0.00     0.252 C 
HETATM   22  O4  UNL     1      30.588  11.947  48.151  1.00  0.00    -0.268 OA
HETATM   23  H20 UNL     1      28.525  11.476  44.778  1.00  0.00     0.159 HD
HETATM   24  H26 UNL     1      32.769  10.416  48.167  1.00  0.00     0.169 HD
ENDROOT
BRANCH   1  25
HETATM   25  C7  UNL     1      32.948   5.405  46.512  1.00  0.00     0.009 A 
HETATM   26  C2  UNL     1      34.062   4.775  47.028  1.00  0.00     0.079 A 
HETATM   27  C3  UNL     1      34.975   4.055  46.292  1.00  0.00     0.037 A 
HETATM   28  C4  UNL     1      34.807   3.921  44.921  1.00  0.00     0.003 A 
HETATM   29  C5  UNL     1      33.675   4.559  44.406  1.00  0.00     0.001 A 
HETATM   30  C6  UNL     1      32.818   5.247  45.150  1.00  0.00     0.015 A 
BRANCH  26  31
HETATM   31  O1  UNL     1      34.342   4.822  48.356  1.00  0.00    -0.355 OA
HETATM   32  C1  UNL     1      35.310   5.518  49.061  1.00  0.00     0.210 C 
ENDBRANCH  26  31
ENDBRANCH   1  25
TORSDOF 2
ENDMDL
MODEL 9
REMARK VINA RESULT:      -7.6      1.990      7.047
REMARK  2 active torsions:
REMARK  status: ('A' for Active; 'I' for Inactive)
REMARK    1  A    between atoms: O1_2  and  C2_3 
REMARK    2  A    between atoms: C7_8  and  C8_9 
ROOT
HETATM    1  C8  UNL     1      14.110   0.609  52.575  1.00  0.00     0.001 C 
HETATM    2  C9  UNL     1      14.829  -0.435  52.836  1.00  0.00     0.147 C 
HETATM    3  O2  UNL     1      15.760  -1.399  52.595  1.00  0.00    -0.354 OA
HETATM    4  C10 UNL     1      17.160  -1.075  52.654  1.00  0.00     0.165 C 
HETATM    5  C11 UNL     1      17.955  -0.408  51.843  1.00  0.00     0.060 C 
HETATM    6  C12 UNL     1      19.115   0.284  51.150  1.00  0.00     0.159 C 
HETATM    7  O3  UNL     1      19.936   0.808  52.091  1.00  0.00    -0.381 OA
HETATM    8  C13 UNL     1      21.115   0.044  52.238  1.00  0.00     0.169 C 
HETATM    9  C14 UNL     1      21.943   0.666  53.321  1.00  0.00     0.030 C 
HETATM   10  C15 UNL     1      22.546   1.974  52.850  1.00  0.00     0.030 C 
HETATM   11  C16 UNL     1      21.476   2.746  52.180  1.00  0.00    -0.010 C 
HETATM   12  C17 UNL     1      20.543   3.472  51.648  1.00  0.00     0.079 C 
HETATM   13  N1  UNL     1      19.706   3.463  50.519  1.00  0.00    -0.395 N 
HETATM   14  C18 UNL     1      19.411   2.357  49.664  1.00  0.00     0.156 C 
HETATM   15  C19 UNL     1      18.630   1.254  50.165  1.00  0.00    -0.021 C 
HETATM   16  C20 UNL     1      17.369   0.926  49.672  1.00  0.00     0.022 C 
HETATM   17  C21 UNL     1      16.238   0.026  49.659  1.00  0.00     0.101 C 
HETATM   18  C22 UNL     1      15.194   0.921  50.238  1.00  0.00     0.017 C 
HETATM   19  C23 UNL     1      14.479   1.052  51.302  1.00  0.00     0.039 C 
HETATM   20  N2  UNL     1      15.279   1.903  49.149  1.00  0.00    -0.327 N 
HETATM   21  C24 UNL     1      16.715   1.943  48.737  1.00  0.00     0.252 C 
HETATM   22  O4  UNL     1      17.031   2.749  47.786  1.00  0.00    -0.268 OA
HETATM   23  H20 UNL     1      19.378   4.482  50.496  1.00  0.00     0.159 HD
HETATM   24  H26 UNL     1      14.532   2.521  48.682  1.00  0.00     0.169 HD
ENDROOT
BRANCH   1  25
HETATM   25  C7  UNL     1      13.205   1.038  53.572  1.00  0.00     0.009 A 
HETATM   26  C2  UNL     1      12.970   2.376  53.820  1.00  0.00     0.079 A 
HETATM   27  C3  UNL     1      12.163   2.863  54.822  1.00  0.00     0.037 A 
HETATM   28  C4  UNL     1      11.510   1.984  55.675  1.00  0.00     0.003 A 
HETATM   29  C5  UNL     1      11.750   0.632  55.417  1.00  0.00     0.001 A 
HETATM   30  C6  UNL     1      12.539   0.201  54.439  1.00  0.00     0.015 A 
BRANCH  26  31
HETATM   31  O1  UNL     1      13.542   3.341  53.057  1.00  0.00    -0.355 OA
HETATM   32  C1  UNL     1      14.549   4.249  53.336  1.00  0.00     0.210 C 
ENDBRANCH  26  31
ENDBRANCH   1  25
TORSDOF 2
ENDMDL
