MODEL 1
REMARK VINA RESULT:      -8.1      0.000      0.000
REMARK  8 active torsions:
REMARK  status: ('A' for Active; 'I' for Inactive)
REMARK    1  A    between atoms: C4_4  and  C5_5 
REMARK    2  A    between atoms: C5_5  and  C6_6 
REMARK    3  A    between atoms: C6_6  and  C7_7 
REMARK    4  A    between atoms: C10_12  and  N3_13 
REMARK    5  A    between atoms: N3_13  and  C11_14 
REMARK    6  A    between atoms: C11_14  and  C12_15 
REMARK    7  A    between atoms: C11_14  and  C13_17 
REMARK    8  A    between atoms: C12_15  and  O1_16 
ROOT
HETATM    1  C1  UNL     1      22.877   2.201  47.973  1.00  0.00     0.017 C 
HETATM    2  C2  UNL     1      21.788   1.883  48.429  1.00  0.00    -0.090 C 
HETATM    3  C3  UNL     1      20.517   1.488  48.970  1.00  0.00     0.059 C 
HETATM    4  C4  UNL     1      20.586   0.754  50.086  1.00  0.00    -0.016 C 
ENDROOT
BRANCH   4   5
HETATM    5  C5  UNL     1      21.876   0.378  50.715  1.00  0.00     0.051 C 
BRANCH   5   6
HETATM    6  C6  UNL     1      21.984   1.028  52.047  1.00  0.00     0.037 C 
HETATM    7  C19 UNL     1      20.532   0.979  52.551  1.00  0.00    -0.007 C 
HETATM    8  C20 UNL     1      20.118   0.292  53.615  1.00  0.00    -0.002 C 
HETATM    9  C21 UNL     1      21.105  -0.492  54.392  1.00  0.00     0.012 C 
HETATM   10  C22 UNL     1      22.087  -0.824  53.558  1.00  0.00    -0.022 C 
HETATM   11  C23 UNL     1      22.702   0.265  53.093  1.00  0.00    -0.055 C 
HETATM   12  C24 UNL     1      24.010   0.442  53.800  1.00  0.00     0.046 C 
BRANCH   6  13
HETATM   13  C7  UNL     1      22.270   2.475  52.067  1.00  0.00     0.022 A 
HETATM   14  C8  UNL     1      21.409   3.476  52.482  1.00  0.00     0.130 A 
HETATM   15  N1  UNL     1      21.639   4.798  52.522  1.00  0.00    -0.253 NA
HETATM   16  C9  UNL     1      22.850   5.217  52.113  1.00  0.00     0.234 A 
HETATM   17  N2  UNL     1      23.735   4.296  51.696  1.00  0.00    -0.224 NA
HETATM   18  C10 UNL     1      23.510   2.975  51.655  1.00  0.00     0.134 A 
BRANCH  18  19
HETATM   19  N3  UNL     1      24.559   2.136  51.188  1.00  0.00    -0.363 N 
HETATM   20  H8  UNL     1      24.546   1.214  50.779  1.00  0.00     0.162 HD
BRANCH  19  21
HETATM   21  C11 UNL     1      25.940   2.582  51.266  1.00  0.00     0.140 C 
BRANCH  21  22
HETATM   22  C12 UNL     1      26.507   2.954  49.908  1.00  0.00     0.194 C 
BRANCH  22  23
HETATM   23  O1  UNL     1      27.311   4.086  49.947  1.00  0.00    -0.399 OA
HETATM   24  H12 UNL     1      27.385   4.467  50.842  1.00  0.00     0.209 HD
ENDBRANCH  22  23
ENDBRANCH  21  22
BRANCH  21  25
HETATM   25  C13 UNL     1      26.833   1.726  52.038  1.00  0.00    -0.034 A 
HETATM   26  C14 UNL     1      26.621   0.356  51.854  1.00  0.00     0.009 A 
HETATM   27  C15 UNL     1      27.412  -0.572  52.537  1.00  0.00     0.001 A 
HETATM   28  C16 UNL     1      28.402  -0.165  53.393  1.00  0.00     0.000 A 
HETATM   29  C17 UNL     1      28.614   1.182  53.578  1.00  0.00     0.001 A 
HETATM   30  C18 UNL     1      27.844   2.087  52.911  1.00  0.00     0.009 A 
ENDBRANCH  21  25
ENDBRANCH  19  21
ENDBRANCH  18  19
ENDBRANCH   6  13
ENDBRANCH   5   6
ENDBRANCH   4   5
TORSDOF 8
ENDMDL
MODEL 2
REMARK VINA RESULT:      -7.8      2.007      4.435
REMARK  8 active torsions:
REMARK  status: ('A' for Active; 'I' for Inactive)
REMARK    1  A    between atoms: C4_4  and  C5_5 
REMARK    2  A    between atoms: C5_5  and  C6_6 
REMARK    3  A    between atoms: C6_6  and  C7_7 
REMARK    4  A    between atoms: C10_12  and  N3_13 
REMARK    5  A    between atoms: N3_13  and  C11_14 
REMARK    6  A    between atoms: C11_14  and  C12_15 
REMARK    7  A    between atoms: C11_14  and  C13_17 
REMARK    8  A    between atoms: C12_15  and  O1_16 
ROOT
HETATM    1  C1  UNL     1      19.896   1.307  50.143  1.00  0.00     0.017 C 
HETATM    2  C2  UNL     1      20.414   1.720  49.116  1.00  0.00    -0.090 C 
HETATM    3  C3  UNL     1      21.033   2.223  47.920  1.00  0.00     0.059 C 
HETATM    4  C4  UNL     1      22.283   2.670  48.081  1.00  0.00    -0.016 C 
ENDROOT
BRANCH   4   5
HETATM    5  C5  UNL     1      22.976   2.646  49.392  1.00  0.00     0.051 C 
BRANCH   5   6
HETATM    6  C6  UNL     1      23.404   4.024  49.749  1.00  0.00     0.037 C 
HETATM    7  C19 UNL     1      22.635   4.878  48.728  1.00  0.00    -0.007 C 
HETATM    8  C20 UNL     1      21.690   5.765  49.035  1.00  0.00    -0.002 C 
HETATM    9  C21 UNL     1      21.330   5.968  50.457  1.00  0.00     0.012 C 
HETATM   10  C22 UNL     1      21.600   4.833  51.096  1.00  0.00    -0.022 C 
HETATM   11  C23 UNL     1      22.903   4.554  51.038  1.00  0.00    -0.055 C 
HETATM   12  C24 UNL     1      23.546   4.884  52.350  1.00  0.00     0.046 C 
BRANCH   6  13
HETATM   13  C7  UNL     1      24.805   4.386  49.464  1.00  0.00     0.022 A 
HETATM   14  C8  UNL     1      25.247   5.565  48.890  1.00  0.00     0.130 A 
HETATM   15  N1  UNL     1      26.512   5.931  48.624  1.00  0.00    -0.253 NA
HETATM   16  C9  UNL     1      27.480   5.054  48.952  1.00  0.00     0.234 A 
HETATM   17  N2  UNL     1      27.118   3.888  49.514  1.00  0.00    -0.224 NA
HETATM   18  C10 UNL     1      25.857   3.519  49.780  1.00  0.00     0.134 A 
BRANCH  18  19
HETATM   19  N3  UNL     1      25.649   2.248  50.382  1.00  0.00    -0.363 N 
HETATM   20  H8  UNL     1      25.401   1.353  49.987  1.00  0.00     0.162 HD
BRANCH  19  21
HETATM   21  C11 UNL     1      25.791   2.088  51.819  1.00  0.00     0.140 C 
BRANCH  21  22
HETATM   22  C12 UNL     1      27.214   1.757  52.230  1.00  0.00     0.194 C 
BRANCH  22  23
HETATM   23  O1  UNL     1      28.015   2.883  52.368  1.00  0.00    -0.399 OA
HETATM   24  H12 UNL     1      28.620   2.826  53.132  1.00  0.00     0.209 HD
ENDBRANCH  22  23
ENDBRANCH  21  22
BRANCH  21  25
HETATM   25  C13 UNL     1      24.803   1.225  52.455  1.00  0.00    -0.034 A 
HETATM   26  C14 UNL     1      25.334   0.335  53.395  1.00  0.00     0.009 A 
HETATM   27  C15 UNL     1      24.492  -0.547  54.076  1.00  0.00     0.001 A 
HETATM   28  C16 UNL     1      23.141  -0.562  53.843  1.00  0.00     0.000 A 
HETATM   29  C17 UNL     1      22.614   0.311  52.918  1.00  0.00     0.001 A 
HETATM   30  C18 UNL     1      23.435   1.173  52.254  1.00  0.00     0.009 A 
ENDBRANCH  21  25
ENDBRANCH  19  21
ENDBRANCH  18  19
ENDBRANCH   6  13
ENDBRANCH   5   6
ENDBRANCH   4   5
TORSDOF 8
ENDMDL
MODEL 3
REMARK VINA RESULT:      -7.2      3.351      6.027
REMARK  8 active torsions:
REMARK  status: ('A' for Active; 'I' for Inactive)
REMARK    1  A    between atoms: C4_4  and  C5_5 
REMARK    2  A    between atoms: C5_5  and  C6_6 
REMARK    3  A    between atoms: C6_6  and  C7_7 
REMARK    4  A    between atoms: C10_12  and  N3_13 
REMARK    5  A    between atoms: N3_13  and  C11_14 
REMARK    6  A    between atoms: C11_14  and  C12_15 
REMARK    7  A    between atoms: C11_14  and  C13_17 
REMARK    8  A    between atoms: C12_15  and  O1_16 
ROOT
HETATM    1  C1  UNL     1      24.635   2.402  53.089  1.00  0.00     0.017 C 
HETATM    2  C2  UNL     1      24.092   3.486  52.932  1.00  0.00    -0.090 C 
HETATM    3  C3  UNL     1      23.444   4.753  52.727  1.00  0.00     0.059 C 
HETATM    4  C4  UNL     1      22.193   4.674  52.263  1.00  0.00    -0.016 C 
ENDROOT
BRANCH   4   5
HETATM    5  C5  UNL     1      21.527   3.379  51.982  1.00  0.00     0.051 C 
BRANCH   5   6
HETATM    6  C6  UNL     1      21.138   3.324  50.548  1.00  0.00     0.037 C 
HETATM    7  C19 UNL     1      21.624   4.687  50.028  1.00  0.00    -0.007 C 
HETATM    8  C20 UNL     1      22.581   4.856  49.116  1.00  0.00    -0.002 C 
HETATM    9  C21 UNL     1      23.243   3.664  48.541  1.00  0.00     0.012 C 
HETATM   10  C22 UNL     1      23.168   2.696  49.449  1.00  0.00    -0.022 C 
HETATM   11  C23 UNL     1      21.896   2.378  49.699  1.00  0.00    -0.055 C 
HETATM   12  C24 UNL     1      21.554   1.096  49.004  1.00  0.00     0.046 C 
BRANCH   6  13
HETATM   13  C7  UNL     1      19.696   3.372  50.242  1.00  0.00     0.022 A 
HETATM   14  C8  UNL     1      19.101   4.066  49.203  1.00  0.00     0.130 A 
HETATM   15  N1  UNL     1      17.796   4.124  48.890  1.00  0.00    -0.253 NA
HETATM   16  C9  UNL     1      16.951   3.427  49.672  1.00  0.00     0.234 A 
HETATM   17  N2  UNL     1      17.465   2.731  50.700  1.00  0.00    -0.224 NA
HETATM   18  C10 UNL     1      18.766   2.670  51.017  1.00  0.00     0.134 A 
BRANCH  18  19
HETATM   19  N3  UNL     1      19.142   1.881  52.138  1.00  0.00    -0.363 N 
HETATM   20  H8  UNL     1      19.232   2.110  53.117  1.00  0.00     0.162 HD
BRANCH  19  21
HETATM   21  C11 UNL     1      19.480   0.478  51.965  1.00  0.00     0.140 C 
BRANCH  21  22
HETATM   22  C12 UNL     1      18.280  -0.435  52.140  1.00  0.00     0.194 C 
BRANCH  22  23
HETATM   23  O1  UNL     1      17.282  -0.206  51.202  1.00  0.00    -0.399 OA
HETATM   24  H12 UNL     1      16.434   0.054  51.607  1.00  0.00     0.209 HD
ENDBRANCH  22  23
ENDBRANCH  21  22
BRANCH  21  25
HETATM   25  C13 UNL     1      20.652   0.020  52.700  1.00  0.00    -0.034 A 
HETATM   26  C14 UNL     1      20.463  -0.082  54.083  1.00  0.00     0.009 A 
HETATM   27  C15 UNL     1      21.510  -0.511  54.902  1.00  0.00     0.001 A 
HETATM   28  C16 UNL     1      22.734  -0.838  54.377  1.00  0.00     0.000 A 
HETATM   29  C17 UNL     1      22.925  -0.738  53.017  1.00  0.00     0.001 A 
HETATM   30  C18 UNL     1      21.904  -0.321  52.217  1.00  0.00     0.009 A 
ENDBRANCH  21  25
ENDBRANCH  19  21
ENDBRANCH  18  19
ENDBRANCH   6  13
ENDBRANCH   5   6
ENDBRANCH   4   5
TORSDOF 8
ENDMDL
MODEL 4
REMARK VINA RESULT:      -7.1      8.860     11.906
REMARK  8 active torsions:
REMARK  status: ('A' for Active; 'I' for Inactive)
REMARK    1  A    between atoms: C4_4  and  C5_5 
REMARK    2  A    between atoms: C5_5  and  C6_6 
REMARK    3  A    between atoms: C6_6  and  C7_7 
REMARK    4  A    between atoms: C10_12  and  N3_13 
REMARK    5  A    between atoms: N3_13  and  C11_14 
REMARK    6  A    between atoms: C11_14  and  C12_15 
REMARK    7  A    between atoms: C11_14  and  C13_17 
REMARK    8  A    between atoms: C12_15  and  O1_16 
ROOT
HETATM    1  C1  UNL     1      28.387   5.486  48.416  1.00  0.00     0.017 C 
HETATM    2  C2  UNL     1      28.316   6.508  47.750  1.00  0.00    -0.090 C 
HETATM    3  C3  UNL     1      28.254   7.716  46.974  1.00  0.00     0.059 C 
HETATM    4  C4  UNL     1      29.390   8.039  46.348  1.00  0.00    -0.016 C 
ENDROOT
BRANCH   4   5
HETATM    5  C5  UNL     1      30.619   7.213  46.448  1.00  0.00     0.051 C 
BRANCH   5   6
HETATM    6  C6  UNL     1      31.714   8.027  47.038  1.00  0.00     0.037 C 
HETATM    7  C19 UNL     1      30.944   9.202  47.665  1.00  0.00    -0.007 C 
HETATM    8  C20 UNL     1      30.891   9.467  48.969  1.00  0.00    -0.002 C 
HETATM    9  C21 UNL     1      31.616   8.585  49.912  1.00  0.00     0.012 C 
HETATM   10  C22 UNL     1      31.699   7.386  49.343  1.00  0.00    -0.022 C 
HETATM   11  C23 UNL     1      32.404   7.446  48.212  1.00  0.00    -0.055 C 
HETATM   12  C24 UNL     1      33.779   6.899  48.448  1.00  0.00     0.046 C 
BRANCH   6  13
HETATM   13  C7  UNL     1      32.619   8.715  46.099  1.00  0.00     0.022 A 
HETATM   14  C8  UNL     1      32.992  10.047  46.146  1.00  0.00     0.130 A 
HETATM   15  N1  UNL     1      33.818  10.703  45.315  1.00  0.00    -0.253 NA
HETATM   16  C9  UNL     1      34.359   9.992  44.309  1.00  0.00     0.234 A 
HETATM   17  N2  UNL     1      34.038   8.691  44.205  1.00  0.00    -0.224 NA
HETATM   18  C10 UNL     1      33.214   8.032  45.032  1.00  0.00     0.134 A 
BRANCH  18  19
HETATM   19  N3  UNL     1      32.984   6.652  44.782  1.00  0.00    -0.363 N 
HETATM   20  H8  UNL     1      32.148   6.149  44.524  1.00  0.00     0.162 HD
BRANCH  19  21
HETATM   21  C11 UNL     1      34.076   5.698  44.886  1.00  0.00     0.140 C 
BRANCH  21  22
HETATM   22  C12 UNL     1      34.596   5.259  43.529  1.00  0.00     0.194 C 
BRANCH  22  23
HETATM   23  O1  UNL     1      35.628   6.059  43.058  1.00  0.00    -0.399 OA
HETATM   24  H12 UNL     1      35.432   7.013  43.132  1.00  0.00     0.209 HD
ENDBRANCH  22  23
ENDBRANCH  21  22
BRANCH  21  25
HETATM   25  C13 UNL     1      33.849   4.581  45.795  1.00  0.00    -0.034 A 
HETATM   26  C14 UNL     1      32.514   4.169  45.881  1.00  0.00     0.009 A 
HETATM   27  C15 UNL     1      32.163   3.107  46.717  1.00  0.00     0.001 A 
HETATM   28  C16 UNL     1      33.106   2.451  47.465  1.00  0.00     0.000 A 
HETATM   29  C17 UNL     1      34.420   2.853  47.385  1.00  0.00     0.001 A 
HETATM   30  C18 UNL     1      34.764   3.888  46.568  1.00  0.00     0.009 A 
ENDBRANCH  21  25
ENDBRANCH  19  21
ENDBRANCH  18  19
ENDBRANCH   6  13
ENDBRANCH   5   6
ENDBRANCH   4   5
TORSDOF 8
ENDMDL
MODEL 5
REMARK VINA RESULT:      -7.1      2.717      6.320
REMARK  8 active torsions:
REMARK  status: ('A' for Active; 'I' for Inactive)
REMARK    1  A    between atoms: C4_4  and  C5_5 
REMARK    2  A    between atoms: C5_5  and  C6_6 
REMARK    3  A    between atoms: C6_6  and  C7_7 
REMARK    4  A    between atoms: C10_12  and  N3_13 
REMARK    5  A    between atoms: N3_13  and  C11_14 
REMARK    6  A    between atoms: C11_14  and  C12_15 
REMARK    7  A    between atoms: C11_14  and  C13_17 
REMARK    8  A    between atoms: C12_15  and  O1_16 
ROOT
HETATM    1  C1  UNL     1      19.490   3.235  47.841  1.00  0.00     0.017 C 
HETATM    2  C2  UNL     1      20.634   2.973  47.504  1.00  0.00    -0.090 C 
HETATM    3  C3  UNL     1      21.989   2.672  47.129  1.00  0.00     0.059 C 
HETATM    4  C4  UNL     1      22.740   2.154  48.106  1.00  0.00    -0.016 C 
ENDROOT
BRANCH   4   5
HETATM    5  C5  UNL     1      22.214   1.910  49.472  1.00  0.00     0.051 C 
BRANCH   5   6
HETATM    6  C6  UNL     1      23.019   2.681  50.456  1.00  0.00     0.037 C 
HETATM    7  C19 UNL     1      24.176   3.205  49.589  1.00  0.00    -0.007 C 
HETATM    8  C20 UNL     1      24.412   4.491  49.331  1.00  0.00    -0.002 C 
HETATM    9  C21 UNL     1      23.512   5.516  49.907  1.00  0.00     0.012 C 
HETATM   10  C22 UNL     1      22.326   4.941  50.086  1.00  0.00    -0.022 C 
HETATM   11  C23 UNL     1      22.414   3.935  50.959  1.00  0.00    -0.055 C 
HETATM   12  C24 UNL     1      21.867   4.371  52.283  1.00  0.00     0.046 C 
BRANCH   6  13
HETATM   13  C7  UNL     1      23.731   1.909  51.491  1.00  0.00     0.022 A 
HETATM   14  C8  UNL     1      25.009   2.154  51.963  1.00  0.00     0.130 A 
HETATM   15  N1  UNL     1      25.684   1.480  52.908  1.00  0.00    -0.253 NA
HETATM   16  C9  UNL     1      25.053   0.436  53.477  1.00  0.00     0.234 A 
HETATM   17  N2  UNL     1      23.808   0.143  53.064  1.00  0.00    -0.224 NA
HETATM   18  C10 UNL     1      23.131   0.814  52.121  1.00  0.00     0.134 A 
BRANCH  18  19
HETATM   19  N3  UNL     1      21.817   0.372  51.805  1.00  0.00    -0.363 N 
HETATM   20  H8  UNL     1      21.472  -0.229  51.071  1.00  0.00     0.162 HD
BRANCH  19  21
HETATM   21  C11 UNL     1      20.688   0.799  52.614  1.00  0.00     0.140 C 
BRANCH  21  22
HETATM   22  C12 UNL     1      20.350  -0.194  53.711  1.00  0.00     0.194 C 
BRANCH  22  23
HETATM   23  O1  UNL     1      20.683   0.262  54.978  1.00  0.00    -0.399 OA
HETATM   24  H12 UNL     1      21.078   1.155  54.968  1.00  0.00     0.209 HD
ENDBRANCH  22  23
ENDBRANCH  21  22
BRANCH  21  25
HETATM   25  C13 UNL     1      19.515   1.243  51.870  1.00  0.00    -0.034 A 
HETATM   26  C14 UNL     1      18.915   0.248  51.092  1.00  0.00     0.009 A 
HETATM   27  C15 UNL     1      17.782   0.545  50.331  1.00  0.00     0.001 A 
HETATM   28  C16 UNL     1      17.238   1.803  50.328  1.00  0.00     0.000 A 
HETATM   29  C17 UNL     1      17.825   2.786  51.092  1.00  0.00     0.001 A 
HETATM   30  C18 UNL     1      18.930   2.497  51.835  1.00  0.00     0.009 A 
ENDBRANCH  21  25
ENDBRANCH  19  21
ENDBRANCH  18  19
ENDBRANCH   6  13
ENDBRANCH   5   6
ENDBRANCH   4   5
TORSDOF 8
ENDMDL
MODEL 6
REMARK VINA RESULT:      -7.0      8.437     11.897
REMARK  8 active torsions:
REMARK  status: ('A' for Active; 'I' for Inactive)
REMARK    1  A    between atoms: C4_4  and  C5_5 
REMARK    2  A    between atoms: C5_5  and  C6_6 
REMARK    3  A    between atoms: C6_6  and  C7_7 
REMARK    4  A    between atoms: C10_12  and  N3_13 
REMARK    5  A    between atoms: N3_13  and  C11_14 
REMARK    6  A    between atoms: C11_14  and  C12_15 
REMARK    7  A    between atoms: C11_14  and  C13_17 
REMARK    8  A    between atoms: C12_15  and  O1_16 
ROOT
HETATM    1  C1  UNL     1      31.712   0.512  46.278  1.00  0.00     0.017 C 
HETATM    2  C2  UNL     1      32.308   1.165  47.121  1.00  0.00    -0.090 C 
HETATM    3  C3  UNL     1      33.018   1.947  48.096  1.00  0.00     0.059 C 
HETATM    4  C4  UNL     1      33.013   3.265  47.870  1.00  0.00    -0.016 C 
ENDROOT
BRANCH   4   5
HETATM    5  C5  UNL     1      32.327   3.870  46.702  1.00  0.00     0.051 C 
BRANCH   5   6
HETATM    6  C6  UNL     1      33.143   4.998  46.180  1.00  0.00     0.037 C 
HETATM    7  C19 UNL     1      34.547   4.376  46.108  1.00  0.00    -0.007 C 
HETATM    8  C20 UNL     1      35.236   4.179  44.984  1.00  0.00    -0.002 C 
HETATM    9  C21 UNL     1      34.632   4.579  43.693  1.00  0.00     0.012 C 
HETATM   10  C22 UNL     1      33.312   4.521  43.842  1.00  0.00    -0.022 C 
HETATM   11  C23 UNL     1      32.902   5.385  44.771  1.00  0.00    -0.055 C 
HETATM   12  C24 UNL     1      32.293   6.583  44.109  1.00  0.00     0.046 C 
BRANCH   6  13
HETATM   13  C7  UNL     1      33.358   6.144  47.082  1.00  0.00     0.022 A 
HETATM   14  C8  UNL     1      34.574   6.585  47.573  1.00  0.00     0.130 A 
HETATM   15  N1  UNL     1      34.807   7.628  48.387  1.00  0.00    -0.253 NA
HETATM   16  C9  UNL     1      33.737   8.343  48.780  1.00  0.00     0.234 A 
HETATM   17  N2  UNL     1      32.524   7.968  48.339  1.00  0.00    -0.224 NA
HETATM   18  C10 UNL     1      32.287   6.928  47.527  1.00  0.00     0.134 A 
BRANCH  18  19
HETATM   19  N3  UNL     1      30.940   6.671  47.152  1.00  0.00    -0.363 N 
HETATM   20  H8  UNL     1      30.515   6.514  46.250  1.00  0.00     0.162 HD
BRANCH  19  21
HETATM   21  C11 UNL     1      29.901   6.600  48.165  1.00  0.00     0.140 C 
BRANCH  21  22
HETATM   22  C12 UNL     1      29.164   5.272  48.150  1.00  0.00     0.194 C 
BRANCH  22  23
HETATM   23  O1  UNL     1      28.383   5.072  49.280  1.00  0.00    -0.399 OA
HETATM   24  H12 UNL     1      27.738   4.348  49.172  1.00  0.00     0.209 HD
ENDBRANCH  22  23
ENDBRANCH  21  22
BRANCH  21  25
HETATM   25  C13 UNL     1      29.002   7.746  48.223  1.00  0.00    -0.034 A 
HETATM   26  C14 UNL     1      28.035   7.773  47.212  1.00  0.00     0.009 A 
HETATM   27  C15 UNL     1      27.111   8.819  47.156  1.00  0.00     0.001 A 
HETATM   28  C16 UNL     1      27.130   9.833  48.079  1.00  0.00     0.000 A 
HETATM   29  C17 UNL     1      28.080   9.811  49.075  1.00  0.00     0.001 A 
HETATM   30  C18 UNL     1      28.981   8.790  49.131  1.00  0.00     0.009 A 
ENDBRANCH  21  25
ENDBRANCH  19  21
ENDBRANCH  18  19
ENDBRANCH   6  13
ENDBRANCH   5   6
ENDBRANCH   4   5
TORSDOF 8
ENDMDL
MODEL 7
REMARK VINA RESULT:      -7.0      2.953      5.049
REMARK  8 active torsions:
REMARK  status: ('A' for Active; 'I' for Inactive)
REMARK    1  A    between atoms: C4_4  and  C5_5 
REMARK    2  A    between atoms: C5_5  and  C6_6 
REMARK    3  A    between atoms: C6_6  and  C7_7 
REMARK    4  A    between atoms: C10_12  and  N3_13 
REMARK    5  A    between atoms: N3_13  and  C11_14 
REMARK    6  A    between atoms: C11_14  and  C12_15 
REMARK    7  A    between atoms: C11_14  and  C13_17 
REMARK    8  A    between atoms: C12_15  and  O1_16 
ROOT
HETATM    1  C1  UNL     1      21.607   6.720  50.965  1.00  0.00     0.017 C 
HETATM    2  C2  UNL     1      22.258   5.739  51.290  1.00  0.00    -0.090 C 
HETATM    3  C3  UNL     1      23.008   4.580  51.691  1.00  0.00     0.059 C 
HETATM    4  C4  UNL     1      22.267   3.550  52.114  1.00  0.00    -0.016 C 
ENDROOT
BRANCH   4   5
HETATM    5  C5  UNL     1      20.785   3.602  52.165  1.00  0.00     0.051 C 
BRANCH   5   6
HETATM    6  C6  UNL     1      20.223   2.586  51.238  1.00  0.00     0.037 C 
HETATM    7  C19 UNL     1      19.027   3.333  50.625  1.00  0.00    -0.007 C 
HETATM    8  C20 UNL     1      18.911   3.659  49.338  1.00  0.00    -0.002 C 
HETATM    9  C21 UNL     1      19.997   3.289  48.403  1.00  0.00     0.012 C 
HETATM   10  C22 UNL     1      21.120   3.220  49.113  1.00  0.00    -0.022 C 
HETATM   11  C23 UNL     1      21.036   2.267  50.042  1.00  0.00    -0.055 C 
HETATM   12  C24 UNL     1      21.810   1.064  49.598  1.00  0.00     0.046 C 
BRANCH   6  13
HETATM   13  C7  UNL     1      19.575   1.409  51.846  1.00  0.00     0.022 A 
HETATM   14  C8  UNL     1      18.288   0.962  51.600  1.00  0.00     0.130 A 
HETATM   15  N1  UNL     1      17.670  -0.107  52.127  1.00  0.00    -0.253 NA
HETATM   16  C9  UNL     1      18.377  -0.847  53.002  1.00  0.00     0.234 A 
HETATM   17  N2  UNL     1      19.634  -0.468  53.285  1.00  0.00    -0.224 NA
HETATM   18  C10 UNL     1      20.255   0.599  52.762  1.00  0.00     0.134 A 
BRANCH  18  19
HETATM   19  N3  UNL     1      21.592   0.857  53.169  1.00  0.00    -0.363 N 
HETATM   20  H8  UNL     1      22.101   1.720  53.286  1.00  0.00     0.162 HD
BRANCH  19  21
HETATM   21  C11 UNL     1      22.481  -0.245  53.498  1.00  0.00     0.140 C 
BRANCH  21  22
HETATM   22  C12 UNL     1      22.307  -0.724  54.929  1.00  0.00     0.194 C 
BRANCH  22  23
HETATM   23  O1  UNL     1      21.591  -1.910  55.021  1.00  0.00    -0.399 OA
HETATM   24  H12 UNL     1      21.926  -2.603  54.421  1.00  0.00     0.209 HD
ENDBRANCH  22  23
ENDBRANCH  21  22
BRANCH  21  25
HETATM   25  C13 UNL     1      23.879  -0.057  53.130  1.00  0.00    -0.034 A 
HETATM   26  C14 UNL     1      24.110   1.034  52.285  1.00  0.00     0.009 A 
HETATM   27  C15 UNL     1      25.408   1.324  51.858  1.00  0.00     0.001 A 
HETATM   28  C16 UNL     1      26.473   0.556  52.253  1.00  0.00     0.000 A 
HETATM   29  C17 UNL     1      26.250  -0.519  53.083  1.00  0.00     0.001 A 
HETATM   30  C18 UNL     1      24.985  -0.802  53.501  1.00  0.00     0.009 A 
ENDBRANCH  21  25
ENDBRANCH  19  21
ENDBRANCH  18  19
ENDBRANCH   6  13
ENDBRANCH   5   6
ENDBRANCH   4   5
TORSDOF 8
ENDMDL
MODEL 8
REMARK VINA RESULT:      -6.8      2.982      5.450
REMARK  8 active torsions:
REMARK  status: ('A' for Active; 'I' for Inactive)
REMARK    1  A    between atoms: C4_4  and  C5_5 
REMARK    2  A    between atoms: C5_5  and  C6_6 
REMARK    3  A    between atoms: C6_6  and  C7_7 
REMARK    4  A    between atoms: C10_12  and  N3_13 
REMARK    5  A    between atoms: N3_13  and  C11_14 
REMARK    6  A    between atoms: C11_14  and  C12_15 
REMARK    7  A    between atoms: C11_14  and  C13_17 
REMARK    8  A    between atoms: C12_15  and  O1_16 
ROOT
HETATM    1  C1  UNL     1      24.879   6.342  50.585  1.00  0.00     0.017 C 
HETATM    2  C2  UNL     1      23.726   6.742  50.646  1.00  0.00    -0.090 C 
HETATM    3  C3  UNL     1      22.362   7.193  50.708  1.00  0.00     0.059 C 
HETATM    4  C4  UNL     1      21.468   6.240  50.990  1.00  0.00    -0.016 C 
ENDROOT
BRANCH   4   5
HETATM    5  C5  UNL     1      21.856   4.827  51.222  1.00  0.00     0.051 C 
BRANCH   5   6
HETATM    6  C6  UNL     1      21.213   3.964  50.196  1.00  0.00     0.037 C 
HETATM    7  C19 UNL     1      20.795   4.987  49.127  1.00  0.00    -0.007 C 
HETATM    8  C20 UNL     1      21.276   5.031  47.885  1.00  0.00    -0.002 C 
HETATM    9  C21 UNL     1      22.290   4.034  47.472  1.00  0.00     0.012 C 
HETATM   10  C22 UNL     1      22.941   3.659  48.569  1.00  0.00    -0.022 C 
HETATM   11  C23 UNL     1      22.113   3.069  49.434  1.00  0.00    -0.055 C 
HETATM   12  C24 UNL     1      22.313   1.585  49.387  1.00  0.00     0.046 C 
BRANCH   6  13
HETATM   13  C7  UNL     1      19.923   3.344  50.553  1.00  0.00     0.022 A 
HETATM   14  C8  UNL     1      18.760   3.382  49.805  1.00  0.00     0.130 A 
HETATM   15  N1  UNL     1      17.573   2.823  50.094  1.00  0.00    -0.253 NA
HETATM   16  C9  UNL     1      17.491   2.136  51.249  1.00  0.00     0.234 A 
HETATM   17  N2  UNL     1      18.586   2.060  52.024  1.00  0.00    -0.224 NA
HETATM   18  C10 UNL     1      19.772   2.617  51.739  1.00  0.00     0.134 A 
BRANCH  18  19
HETATM   19  N3  UNL     1      20.832   2.437  52.669  1.00  0.00    -0.363 N 
HETATM   20  H8  UNL     1      21.350   3.097  53.229  1.00  0.00     0.162 HD
BRANCH  19  21
HETATM   21  C11 UNL     1      21.345   1.105  52.942  1.00  0.00     0.140 C 
BRANCH  21  22
HETATM   22  C12 UNL     1      20.674   0.457  54.139  1.00  0.00     0.194 C 
BRANCH  22  23
HETATM   23  O1  UNL     1      19.578  -0.321  53.792  1.00  0.00    -0.399 OA
HETATM   24  H12 UNL     1      19.172  -0.048  52.948  1.00  0.00     0.209 HD
ENDBRANCH  22  23
ENDBRANCH  21  22
BRANCH  21  25
HETATM   25  C13 UNL     1      22.798   0.987  52.974  1.00  0.00    -0.034 A 
HETATM   26  C14 UNL     1      23.479   2.203  52.852  1.00  0.00     0.009 A 
HETATM   27  C15 UNL     1      24.875   2.228  52.869  1.00  0.00     0.001 A 
HETATM   28  C16 UNL     1      25.604   1.074  53.003  1.00  0.00     0.000 A 
HETATM   29  C17 UNL     1      24.939  -0.125  53.123  1.00  0.00     0.001 A 
HETATM   30  C18 UNL     1      23.577  -0.150  53.108  1.00  0.00     0.009 A 
ENDBRANCH  21  25
ENDBRANCH  19  21
ENDBRANCH  18  19
ENDBRANCH   6  13
ENDBRANCH   5   6
ENDBRANCH   4   5
TORSDOF 8
ENDMDL
MODEL 9
REMARK VINA RESULT:      -6.8      1.874      3.744
REMARK  8 active torsions:
REMARK  status: ('A' for Active; 'I' for Inactive)
REMARK    1  A    between atoms: C4_4  and  C5_5 
REMARK    2  A    between atoms: C5_5  and  C6_6 
REMARK    3  A    between atoms: C6_6  and  C7_7 
REMARK    4  A    between atoms: C10_12  and  N3_13 
REMARK    5  A    between atoms: N3_13  and  C11_14 
REMARK    6  A    between atoms: C11_14  and  C12_15 
REMARK    7  A    between atoms: C11_14  and  C13_17 
REMARK    8  A    between atoms: C12_15  and  O1_16 
ROOT
HETATM    1  C1  UNL     1      22.145   6.610  48.712  1.00  0.00     0.017 C 
HETATM    2  C2  UNL     1      21.960   6.496  49.915  1.00  0.00    -0.090 C 
HETATM    3  C3  UNL     1      21.733   6.340  51.326  1.00  0.00     0.059 C 
HETATM    4  C4  UNL     1      21.980   5.115  51.802  1.00  0.00    -0.016 C 
ENDROOT
BRANCH   4   5
HETATM    5  C5  UNL     1      22.452   4.004  50.939  1.00  0.00     0.051 C 
BRANCH   5   6
HETATM    6  C6  UNL     1      21.468   2.891  50.985  1.00  0.00     0.037 C 
HETATM    7  C19 UNL     1      20.193   3.605  51.464  1.00  0.00    -0.007 C 
HETATM    8  C20 UNL     1      19.076   3.730  50.748  1.00  0.00    -0.002 C 
HETATM    9  C21 UNL     1      19.026   3.150  49.387  1.00  0.00     0.012 C 
HETATM   10  C22 UNL     1      20.273   3.125  48.925  1.00  0.00    -0.022 C 
HETATM   11  C23 UNL     1      21.042   2.337  49.679  1.00  0.00    -0.055 C 
HETATM   12  C24 UNL     1      21.266   1.033  48.977  1.00  0.00     0.046 C 
BRANCH   6  13
HETATM   13  C7  UNL     1      21.661   1.868  52.028  1.00  0.00     0.022 A 
HETATM   14  C8  UNL     1      20.725   1.462  52.963  1.00  0.00     0.130 A 
HETATM   15  N1  UNL     1      20.863   0.529  53.919  1.00  0.00    -0.253 NA
HETATM   16  C9  UNL     1      22.052  -0.098  53.989  1.00  0.00     0.234 A 
HETATM   17  N2  UNL     1      23.007   0.248  53.110  1.00  0.00    -0.224 NA
HETATM   18  C10 UNL     1      22.873   1.179  52.154  1.00  0.00     0.134 A 
BRANCH  18  19
HETATM   19  N3  UNL     1      23.985   1.422  51.302  1.00  0.00    -0.363 N 
HETATM   20  H8  UNL     1      24.114   1.275  50.312  1.00  0.00     0.162 HD
BRANCH  19  21
HETATM   21  C11 UNL     1      25.212   1.980  51.844  1.00  0.00     0.140 C 
BRANCH  21  22
HETATM   22  C12 UNL     1      25.937   2.868  50.848  1.00  0.00     0.194 C 
BRANCH  22  23
HETATM   23  O1  UNL     1      27.205   3.239  51.275  1.00  0.00    -0.399 OA
HETATM   24  H12 UNL     1      27.866   2.530  51.162  1.00  0.00     0.209 HD
ENDBRANCH  22  23
ENDBRANCH  21  22
BRANCH  21  25
HETATM   25  C13 UNL     1      26.098   1.028  52.503  1.00  0.00    -0.034 A 
HETATM   26  C14 UNL     1      26.405   1.348  53.830  1.00  0.00     0.009 A 
HETATM   27  C15 UNL     1      27.244   0.515  54.574  1.00  0.00     0.001 A 
HETATM   28  C16 UNL     1      27.780  -0.622  54.028  1.00  0.00     0.000 A 
HETATM   29  C17 UNL     1      27.482  -0.941  52.723  1.00  0.00     0.001 A 
HETATM   30  C18 UNL     1      26.663  -0.130  51.997  1.00  0.00     0.009 A 
ENDBRANCH  21  25
ENDBRANCH  19  21
ENDBRANCH  18  19
ENDBRANCH   6  13
ENDBRANCH   5   6
ENDBRANCH   4   5
TORSDOF 8
ENDMDL
