MODEL 1
REMARK VINA RESULT:      -8.4      0.000      0.000
REMARK  6 active torsions:
REMARK  status: ('A' for Active; 'I' for Inactive)
REMARK    1  A    between atoms: C4_5  and  C5_6 
REMARK    2  A    between atoms: C7_8  and  N1_9 
REMARK    3  A    between atoms: N1_9  and  C8_10 
REMARK    4  A    between atoms: C11_13  and  C12_14 
REMARK    5  A    between atoms: C12_14  and  S1_15 
REMARK    6  A    between atoms: C13_16  and  N2_17 
ROOT
HETATM    1  C8  UNL     1      21.784  -0.096  53.632  1.00  0.00     0.033 A 
HETATM    2  C9  UNL     1      22.915  -0.646  54.211  1.00  0.00     0.030 A 
HETATM    3  C10 UNL     1      24.186  -0.334  53.771  1.00  0.00     0.010 A 
HETATM    4  C11 UNL     1      24.329   0.547  52.708  1.00  0.00    -0.049 A 
HETATM    5  C18 UNL     1      23.171   1.060  52.160  1.00  0.00     0.010 A 
HETATM    6  C19 UNL     1      21.900   0.797  52.561  1.00  0.00     0.030 A 
ENDROOT
BRANCH   1   7
HETATM    7  N1  UNL     1      20.467  -0.357  54.090  1.00  0.00    -0.341 N 
HETATM    8  H9  UNL     1      20.219  -0.205  55.116  1.00  0.00     0.167 HD
BRANCH   7   9
HETATM    9  C7  UNL     1      19.266  -0.809  53.542  1.00  0.00     0.131 A 
HETATM   10  C6  UNL     1      18.796  -2.001  53.933  1.00  0.00     0.078 A 
HETATM   11  C5  UNL     1      17.765  -2.800  53.663  1.00  0.00     0.049 A 
HETATM   12  N4  UNL     1      17.075  -2.063  52.692  1.00  0.00    -0.246 NA
HETATM   13  C20 UNL     1      17.387  -0.878  52.190  1.00  0.00     0.235 A 
HETATM   14  N3  UNL     1      18.513  -0.207  52.609  1.00  0.00    -0.224 NA
BRANCH  11  15
HETATM   15  C4  UNL     1      16.695  -3.664  53.409  1.00  0.00     0.080 A 
HETATM   16  C2  UNL     1      16.052  -4.735  53.732  1.00  0.00    -0.070 A 
HETATM   17  O1  UNL     1      15.602  -3.975  52.634  1.00  0.00     0.000 OA
HETATM   18  C3  UNL     1      15.653  -5.968  54.443  1.00  0.00     0.044 C 
HETATM   19  C1  UNL     1      14.856  -4.486  51.570  1.00  0.00     0.000 C 
ENDBRANCH  11  15
ENDBRANCH   7   9
ENDBRANCH   1   7
BRANCH   4  20
HETATM   20  C12 UNL     1      25.599   1.018  52.167  1.00  0.00     0.108 C 
BRANCH  20  21
HETATM   21  S1  UNL     1      27.130   0.253  52.794  1.00  0.00    -0.166 SA
HETATM   22  C13 UNL     1      27.453  -1.319  52.676  1.00  0.00     0.053 C 
HETATM   23  C14 UNL     1      28.768  -1.648  53.252  1.00  0.00     0.031 C 
HETATM   24  C15 UNL     1      29.657  -0.804  53.818  1.00  0.00    -0.023 C 
HETATM   25  C16 UNL     1      29.427   0.652  53.934  1.00  0.00     0.037 C 
HETATM   26  C17 UNL     1      27.974   0.988  54.264  1.00  0.00     0.074 C 
BRANCH  22  27
HETATM   27  N2  UNL     1      26.658  -2.369  52.106  1.00  0.00    -0.394 N 
HETATM   28  H14 UNL     1      26.739  -2.931  51.237  1.00  0.00     0.156 HD
HETATM   29  H15 UNL     1      25.778  -2.695  52.588  1.00  0.00     0.156 HD
ENDBRANCH  22  27
ENDBRANCH  20  21
ENDBRANCH   4  20
TORSDOF 6
ENDMDL
MODEL 2
REMARK VINA RESULT:      -8.2      7.224     11.192
REMARK  6 active torsions:
REMARK  status: ('A' for Active; 'I' for Inactive)
REMARK    1  A    between atoms: C4_5  and  C5_6 
REMARK    2  A    between atoms: C7_8  and  N1_9 
REMARK    3  A    between atoms: N1_9  and  C8_10 
REMARK    4  A    between atoms: C11_13  and  C12_14 
REMARK    5  A    between atoms: C12_14  and  S1_15 
REMARK    6  A    between atoms: C13_16  and  N2_17 
ROOT
HETATM    1  C8  UNL     1      25.287   3.615  50.226  1.00  0.00     0.033 A 
HETATM    2  C9  UNL     1      24.148   3.074  50.797  1.00  0.00     0.030 A 
HETATM    3  C10 UNL     1      24.197   1.957  51.609  1.00  0.00     0.010 A 
HETATM    4  C11 UNL     1      25.425   1.356  51.845  1.00  0.00    -0.049 A 
HETATM    5  C18 UNL     1      26.529   1.927  51.246  1.00  0.00     0.010 A 
HETATM    6  C19 UNL     1      26.539   3.029  50.451  1.00  0.00     0.030 A 
ENDROOT
BRANCH   1   7
HETATM    7  N1  UNL     1      25.279   4.787  49.428  1.00  0.00    -0.341 N 
HETATM    8  H9  UNL     1      24.633   4.852  48.582  1.00  0.00     0.167 HD
BRANCH   7   9
HETATM    9  C7  UNL     1      25.939   6.017  49.412  1.00  0.00     0.131 A 
HETATM   10  C6  UNL     1      27.058   6.130  48.683  1.00  0.00     0.078 A 
HETATM   11  C5  UNL     1      27.982   7.052  48.417  1.00  0.00     0.049 A 
HETATM   12  N4  UNL     1      27.530   8.140  49.174  1.00  0.00    -0.246 NA
HETATM   13  C20 UNL     1      26.456   8.210  49.946  1.00  0.00     0.235 A 
HETATM   14  N3  UNL     1      25.616   7.129  50.089  1.00  0.00    -0.224 NA
BRANCH  11  15
HETATM   15  C4  UNL     1      28.969   7.994  48.112  1.00  0.00     0.080 A 
HETATM   16  C2  UNL     1      30.130   8.487  48.379  1.00  0.00    -0.070 A 
HETATM   17  O1  UNL     1      29.376   9.049  47.330  1.00  0.00     0.000 OA
HETATM   18  C3  UNL     1      31.449   8.702  49.012  1.00  0.00     0.044 C 
HETATM   19  C1  UNL     1      29.512  10.361  46.872  1.00  0.00     0.000 C 
ENDBRANCH  11  15
ENDBRANCH   7   9
ENDBRANCH   1   7
BRANCH   4  20
HETATM   20  C12 UNL     1      25.649   0.210  52.720  1.00  0.00     0.108 C 
BRANCH  20  21
HETATM   21  S1  UNL     1      27.370  -0.234  53.123  1.00  0.00    -0.166 SA
HETATM   22  C13 UNL     1      27.952  -1.730  53.016  1.00  0.00     0.053 C 
HETATM   23  C14 UNL     1      29.376  -1.787  53.387  1.00  0.00     0.031 C 
HETATM   24  C15 UNL     1      30.171  -0.766  53.770  1.00  0.00    -0.023 C 
HETATM   25  C16 UNL     1      29.700   0.633  53.866  1.00  0.00     0.037 C 
HETATM   26  C17 UNL     1      28.277   0.733  54.411  1.00  0.00     0.074 C 
BRANCH  22  27
HETATM   27  N2  UNL     1      27.285  -2.937  52.620  1.00  0.00    -0.394 N 
HETATM   28  H14 UNL     1      26.435  -3.425  52.961  1.00  0.00     0.156 HD
HETATM   29  H15 UNL     1      27.673  -3.531  51.839  1.00  0.00     0.156 HD
ENDBRANCH  22  27
ENDBRANCH  20  21
ENDBRANCH   4  20
TORSDOF 6
ENDMDL
MODEL 3
REMARK VINA RESULT:      -8.2      7.049      9.835
REMARK  6 active torsions:
REMARK  status: ('A' for Active; 'I' for Inactive)
REMARK    1  A    between atoms: C4_5  and  C5_6 
REMARK    2  A    between atoms: C7_8  and  N1_9 
REMARK    3  A    between atoms: N1_9  and  C8_10 
REMARK    4  A    between atoms: C11_13  and  C12_14 
REMARK    5  A    between atoms: C12_14  and  S1_15 
REMARK    6  A    between atoms: C13_16  and  N2_17 
ROOT
HETATM    1  C8  UNL     1      26.669   5.363  48.889  1.00  0.00     0.033 A 
HETATM    2  C9  UNL     1      27.859   4.762  48.514  1.00  0.00     0.030 A 
HETATM    3  C10 UNL     1      28.980   5.501  48.192  1.00  0.00     0.010 A 
HETATM    4  C11 UNL     1      28.904   6.886  48.232  1.00  0.00    -0.049 A 
HETATM    5  C18 UNL     1      27.694   7.436  48.601  1.00  0.00     0.010 A 
HETATM    6  C19 UNL     1      26.566   6.759  48.940  1.00  0.00     0.030 A 
ENDROOT
BRANCH   1   7
HETATM    7  N1  UNL     1      25.513   4.636  49.272  1.00  0.00    -0.341 N 
HETATM    8  H9  UNL     1      24.562   4.892  48.864  1.00  0.00     0.167 HD
BRANCH   7   9
HETATM    9  C7  UNL     1      25.212   3.570  50.122  1.00  0.00     0.131 A 
HETATM   10  C6  UNL     1      26.218   2.975  50.777  1.00  0.00     0.078 A 
HETATM   11  C5  UNL     1      26.392   1.956  51.617  1.00  0.00     0.049 A 
HETATM   12  N4  UNL     1      25.084   1.474  51.760  1.00  0.00    -0.246 NA
HETATM   13  C20 UNL     1      23.977   1.933  51.196  1.00  0.00     0.235 A 
HETATM   14  N3  UNL     1      24.013   3.014  50.344  1.00  0.00    -0.224 NA
BRANCH  11  15
HETATM   15  C4  UNL     1      26.613   0.895  52.501  1.00  0.00     0.080 A 
HETATM   16  C2  UNL     1      26.730  -0.377  52.677  1.00  0.00    -0.070 A 
HETATM   17  O1  UNL     1      26.840   0.477  53.791  1.00  0.00     0.000 OA
HETATM   18  C3  UNL     1      26.800  -1.828  52.403  1.00  0.00     0.044 C 
HETATM   19  C1  UNL     1      26.577   0.098  55.109  1.00  0.00     0.000 C 
ENDBRANCH  11  15
ENDBRANCH   7   9
ENDBRANCH   1   7
BRANCH   4  20
HETATM   20  C12 UNL     1      30.012   7.799  47.976  1.00  0.00     0.108 C 
BRANCH  20  21
HETATM   21  S1  UNL     1      31.694   7.102  47.899  1.00  0.00    -0.166 SA
HETATM   22  C13 UNL     1      32.350   6.229  49.080  1.00  0.00     0.053 C 
HETATM   23  C14 UNL     1      33.711   5.784  48.736  1.00  0.00     0.031 C 
HETATM   24  C15 UNL     1      34.395   6.024  47.597  1.00  0.00    -0.023 C 
HETATM   25  C16 UNL     1      33.837   6.799  46.468  1.00  0.00     0.037 C 
HETATM   26  C17 UNL     1      32.998   7.987  46.936  1.00  0.00     0.074 C 
BRANCH  22  27
HETATM   27  N2  UNL     1      31.793   5.853  50.349  1.00  0.00    -0.394 N 
HETATM   28  H14 UNL     1      30.863   5.995  50.788  1.00  0.00     0.156 HD
HETATM   29  H15 UNL     1      32.379   5.337  51.058  1.00  0.00     0.156 HD
ENDBRANCH  22  27
ENDBRANCH  20  21
ENDBRANCH   4  20
TORSDOF 6
ENDMDL
MODEL 4
REMARK VINA RESULT:      -8.1      6.835      9.161
REMARK  6 active torsions:
REMARK  status: ('A' for Active; 'I' for Inactive)
REMARK    1  A    between atoms: C4_5  and  C5_6 
REMARK    2  A    between atoms: C7_8  and  N1_9 
REMARK    3  A    between atoms: N1_9  and  C8_10 
REMARK    4  A    between atoms: C11_13  and  C12_14 
REMARK    5  A    between atoms: C12_14  and  S1_15 
REMARK    6  A    between atoms: C13_16  and  N2_17 
ROOT
HETATM    1  C8  UNL     1      26.338   4.116  49.588  1.00  0.00     0.033 A 
HETATM    2  C9  UNL     1      25.218   4.931  49.590  1.00  0.00     0.030 A 
HETATM    3  C10 UNL     1      25.224   6.182  49.004  1.00  0.00     0.010 A 
HETATM    4  C11 UNL     1      26.392   6.636  48.408  1.00  0.00    -0.049 A 
HETATM    5  C18 UNL     1      27.482   5.791  48.442  1.00  0.00     0.010 A 
HETATM    6  C19 UNL     1      27.528   4.550  48.992  1.00  0.00     0.030 A 
ENDROOT
BRANCH   1   7
HETATM    7  N1  UNL     1      26.353   2.809  50.138  1.00  0.00    -0.341 N 
HETATM    8  H9  UNL     1      26.707   1.989  49.555  1.00  0.00     0.167 HD
BRANCH   7   9
HETATM    9  C7  UNL     1      26.000   2.204  51.345  1.00  0.00     0.131 A 
HETATM   10  C6  UNL     1      24.809   1.595  51.429  1.00  0.00     0.078 A 
HETATM   11  C5  UNL     1      24.084   0.953  52.342  1.00  0.00     0.049 A 
HETATM   12  N4  UNL     1      24.918   1.010  53.466  1.00  0.00    -0.246 NA
HETATM   13  C20 UNL     1      26.117   1.563  53.567  1.00  0.00     0.235 A 
HETATM   14  N3  UNL     1      26.701   2.188  52.489  1.00  0.00    -0.224 NA
BRANCH  11  15
HETATM   15  C4  UNL     1      23.294   0.271  53.273  1.00  0.00     0.080 A 
HETATM   16  C2  UNL     1      22.149   0.146  53.855  1.00  0.00    -0.070 A 
HETATM   17  O1  UNL     1      23.197  -0.723  54.218  1.00  0.00     0.000 OA
HETATM   18  C3  UNL     1      20.734   0.364  54.222  1.00  0.00     0.044 C 
HETATM   19  C1  UNL     1      23.297  -1.369  55.452  1.00  0.00     0.000 C 
ENDBRANCH  11  15
ENDBRANCH   7   9
ENDBRANCH   1   7
BRANCH   4  20
HETATM   20  C12 UNL     1      26.541   7.903  47.702  1.00  0.00     0.108 C 
BRANCH  20  21
HETATM   21  S1  UNL     1      28.055   8.874  47.999  1.00  0.00    -0.166 SA
HETATM   22  C13 UNL     1      28.482   9.437  49.444  1.00  0.00     0.053 C 
HETATM   23  C14 UNL     1      29.758  10.169  49.386  1.00  0.00     0.031 C 
HETATM   24  C15 UNL     1      30.541  10.382  48.307  1.00  0.00    -0.023 C 
HETATM   25  C16 UNL     1      30.213   9.871  46.959  1.00  0.00     0.037 C 
HETATM   26  C17 UNL     1      28.718   9.951  46.653  1.00  0.00     0.074 C 
BRANCH  22  27
HETATM   27  N2  UNL     1      27.806   9.310  50.704  1.00  0.00    -0.394 N 
HETATM   28  H14 UNL     1      27.935   8.682  51.521  1.00  0.00     0.156 HD
HETATM   29  H15 UNL     1      26.984   9.929  50.934  1.00  0.00     0.156 HD
ENDBRANCH  22  27
ENDBRANCH  20  21
ENDBRANCH   4  20
TORSDOF 6
ENDMDL
MODEL 5
REMARK VINA RESULT:      -8.0      7.752     10.592
REMARK  6 active torsions:
REMARK  status: ('A' for Active; 'I' for Inactive)
REMARK    1  A    between atoms: C4_5  and  C5_6 
REMARK    2  A    between atoms: C7_8  and  N1_9 
REMARK    3  A    between atoms: N1_9  and  C8_10 
REMARK    4  A    between atoms: C11_13  and  C12_14 
REMARK    5  A    between atoms: C12_14  and  S1_15 
REMARK    6  A    between atoms: C13_16  and  N2_17 
ROOT
HETATM    1  C8  UNL     1      26.030   5.364  49.002  1.00  0.00     0.033 A 
HETATM    2  C9  UNL     1      25.592   6.583  48.513  1.00  0.00     0.030 A 
HETATM    3  C10 UNL     1      26.436   7.448  47.845  1.00  0.00     0.010 A 
HETATM    4  C11 UNL     1      27.765   7.087  47.674  1.00  0.00    -0.049 A 
HETATM    5  C18 UNL     1      28.155   5.867  48.188  1.00  0.00     0.010 A 
HETATM    6  C19 UNL     1      27.365   4.974  48.840  1.00  0.00     0.030 A 
ENDROOT
BRANCH   1   7
HETATM    7  N1  UNL     1      25.180   4.431  49.648  1.00  0.00    -0.341 N 
HETATM    8  H9  UNL     1      24.193   4.263  49.279  1.00  0.00     0.167 HD
BRANCH   7   9
HETATM    9  C7  UNL     1      25.251   3.574  50.748  1.00  0.00     0.131 A 
HETATM   10  C6  UNL     1      26.255   2.688  50.800  1.00  0.00     0.078 A 
HETATM   11  C5  UNL     1      26.675   1.707  51.597  1.00  0.00     0.049 A 
HETATM   12  N4  UNL     1      25.706   1.724  52.609  1.00  0.00    -0.246 NA
HETATM   13  C20 UNL     1      24.655   2.522  52.722  1.00  0.00     0.235 A 
HETATM   14  N3  UNL     1      24.395   3.486  51.775  1.00  0.00    -0.224 NA
BRANCH  11  15
HETATM   15  C4  UNL     1      27.147   0.673  52.411  1.00  0.00     0.080 A 
HETATM   16  C2  UNL     1      27.163  -0.589  52.678  1.00  0.00    -0.070 A 
HETATM   17  O1  UNL     1      27.905   0.290  53.493  1.00  0.00     0.000 OA
HETATM   18  C3  UNL     1      26.900  -2.041  52.597  1.00  0.00     0.044 C 
HETATM   19  C1  UNL     1      28.254   0.034  54.820  1.00  0.00     0.000 C 
ENDBRANCH  11  15
ENDBRANCH   7   9
ENDBRANCH   1   7
BRANCH   4  20
HETATM   20  C12 UNL     1      28.763   7.863  46.945  1.00  0.00     0.108 C 
BRANCH  20  21
HETATM   21  S1  UNL     1      29.437   9.355  47.747  1.00  0.00    -0.166 SA
HETATM   22  C13 UNL     1      30.435   9.314  49.007  1.00  0.00     0.053 C 
HETATM   23  C14 UNL     1      30.829  10.668  49.432  1.00  0.00     0.031 C 
HETATM   24  C15 UNL     1      30.457  11.846  48.888  1.00  0.00    -0.023 C 
HETATM   25  C16 UNL     1      29.561  11.946  47.716  1.00  0.00     0.037 C 
HETATM   26  C17 UNL     1      28.439  10.910  47.749  1.00  0.00     0.074 C 
BRANCH  22  27
HETATM   27  N2  UNL     1      30.957   8.181  49.717  1.00  0.00    -0.394 N 
HETATM   28  H14 UNL     1      30.682   7.180  49.760  1.00  0.00     0.156 HD
HETATM   29  H15 UNL     1      31.779   8.290  50.368  1.00  0.00     0.156 HD
ENDBRANCH  22  27
ENDBRANCH  20  21
ENDBRANCH   4  20
TORSDOF 6
ENDMDL
MODEL 6
REMARK VINA RESULT:      -8.0      7.181     10.851
REMARK  6 active torsions:
REMARK  status: ('A' for Active; 'I' for Inactive)
REMARK    1  A    between atoms: C4_5  and  C5_6 
REMARK    2  A    between atoms: C7_8  and  N1_9 
REMARK    3  A    between atoms: N1_9  and  C8_10 
REMARK    4  A    between atoms: C11_13  and  C12_14 
REMARK    5  A    between atoms: C12_14  and  S1_15 
REMARK    6  A    between atoms: C13_16  and  N2_17 
ROOT
HETATM    1  C8  UNL     1      24.716   3.865  51.133  1.00  0.00     0.033 A 
HETATM    2  C9  UNL     1      24.023   3.815  52.331  1.00  0.00     0.030 A 
HETATM    3  C10 UNL     1      24.120   2.734  53.185  1.00  0.00     0.010 A 
HETATM    4  C11 UNL     1      24.925   1.663  52.822  1.00  0.00    -0.049 A 
HETATM    5  C18 UNL     1      25.586   1.758  51.615  1.00  0.00     0.010 A 
HETATM    6  C19 UNL     1      25.537   2.800  50.744  1.00  0.00     0.030 A 
ENDROOT
BRANCH   1   7
HETATM    7  N1  UNL     1      24.677   4.979  50.256  1.00  0.00    -0.341 N 
HETATM    8  H9  UNL     1      23.799   5.177  49.684  1.00  0.00     0.167 HD
BRANCH   7   9
HETATM    9  C7  UNL     1      25.541   6.005  49.868  1.00  0.00     0.131 A 
HETATM   10  C6  UNL     1      26.464   5.741  48.934  1.00  0.00     0.078 A 
HETATM   11  C5  UNL     1      27.464   6.371  48.319  1.00  0.00     0.049 A 
HETATM   12  N4  UNL     1      27.415   7.638  48.913  1.00  0.00    -0.246 NA
HETATM   13  C20 UNL     1      26.578   8.075  49.842  1.00  0.00     0.235 A 
HETATM   14  N3  UNL     1      25.600   7.253  50.355  1.00  0.00    -0.224 NA
BRANCH  11  15
HETATM   15  C4  UNL     1      28.519   7.000  47.651  1.00  0.00     0.080 A 
HETATM   16  C2  UNL     1      28.915   7.688  46.634  1.00  0.00    -0.070 A 
HETATM   17  O1  UNL     1      29.859   7.305  47.607  1.00  0.00     0.000 OA
HETATM   18  C3  UNL     1      28.900   8.450  45.367  1.00  0.00     0.044 C 
HETATM   19  C1  UNL     1      31.227   7.157  47.367  1.00  0.00     0.000 C 
ENDBRANCH  11  15
ENDBRANCH   7   9
ENDBRANCH   1   7
BRANCH   4  20
HETATM   20  C12 UNL     1      25.174   0.480  53.638  1.00  0.00     0.108 C 
BRANCH  20  21
HETATM   21  S1  UNL     1      26.812  -0.310  53.518  1.00  0.00    -0.166 SA
HETATM   22  C13 UNL     1      28.196   0.462  53.796  1.00  0.00     0.053 C 
HETATM   23  C14 UNL     1      29.357  -0.430  53.642  1.00  0.00     0.031 C 
HETATM   24  C15 UNL     1      29.354  -1.741  53.320  1.00  0.00    -0.023 C 
HETATM   25  C16 UNL     1      28.115  -2.510  53.076  1.00  0.00     0.037 C 
HETATM   26  C17 UNL     1      27.063  -1.697  52.323  1.00  0.00     0.074 C 
BRANCH  22  27
HETATM   27  N2  UNL     1      28.413   1.834  54.160  1.00  0.00    -0.394 N 
HETATM   28  H14 UNL     1      28.576   2.313  55.066  1.00  0.00     0.156 HD
HETATM   29  H15 UNL     1      28.407   2.589  53.423  1.00  0.00     0.156 HD
ENDBRANCH  22  27
ENDBRANCH  20  21
ENDBRANCH   4  20
TORSDOF 6
ENDMDL
MODEL 7
REMARK VINA RESULT:      -7.9      7.775     13.025
REMARK  6 active torsions:
REMARK  status: ('A' for Active; 'I' for Inactive)
REMARK    1  A    between atoms: C4_5  and  C5_6 
REMARK    2  A    between atoms: C7_8  and  N1_9 
REMARK    3  A    between atoms: N1_9  and  C8_10 
REMARK    4  A    between atoms: C11_13  and  C12_14 
REMARK    5  A    between atoms: C12_14  and  S1_15 
REMARK    6  A    between atoms: C13_16  and  N2_17 
ROOT
HETATM    1  C8  UNL     1      27.110   5.501  48.822  1.00  0.00     0.033 A 
HETATM    2  C9  UNL     1      27.256   4.129  48.933  1.00  0.00     0.030 A 
HETATM    3  C10 UNL     1      26.340   3.350  49.612  1.00  0.00     0.010 A 
HETATM    4  C11 UNL     1      25.251   3.966  50.212  1.00  0.00    -0.049 A 
HETATM    5  C18 UNL     1      25.157   5.336  50.082  1.00  0.00     0.010 A 
HETATM    6  C19 UNL     1      26.020   6.147  49.415  1.00  0.00     0.030 A 
ENDROOT
BRANCH   1   7
HETATM    7  N1  UNL     1      28.004   6.325  48.092  1.00  0.00    -0.341 N 
HETATM    8  H9  UNL     1      27.651   6.889  47.258  1.00  0.00     0.167 HD
BRANCH   7   9
HETATM    9  C7  UNL     1      29.360   6.653  48.138  1.00  0.00     0.131 A 
HETATM   10  C6  UNL     1      30.258   5.674  47.958  1.00  0.00     0.078 A 
HETATM   11  C5  UNL     1      31.582   5.529  47.954  1.00  0.00     0.049 A 
HETATM   12  N4  UNL     1      32.017   6.832  48.227  1.00  0.00    -0.246 NA
HETATM   13  C20 UNL     1      31.280   7.914  48.429  1.00  0.00     0.235 A 
HETATM   14  N3  UNL     1      29.906   7.851  48.390  1.00  0.00    -0.224 NA
BRANCH  11  15
HETATM   15  C4  UNL     1      32.968   5.338  47.940  1.00  0.00     0.080 A 
HETATM   16  C2  UNL     1      33.959   4.530  47.772  1.00  0.00    -0.070 A 
HETATM   17  O1  UNL     1      34.223   5.872  48.108  1.00  0.00     0.000 OA
HETATM   18  C3  UNL     1      34.734   3.303  47.487  1.00  0.00     0.044 C 
HETATM   19  C1  UNL     1      35.381   6.314  48.751  1.00  0.00     0.000 C 
ENDBRANCH  11  15
ENDBRANCH   7   9
ENDBRANCH   1   7
BRANCH   4  20
HETATM   20  C12 UNL     1      24.173   3.278  50.914  1.00  0.00     0.108 C 
BRANCH  20  21
HETATM   21  S1  UNL     1      24.581   1.747  51.814  1.00  0.00    -0.166 SA
HETATM   22  C13 UNL     1      23.522   0.935  52.714  1.00  0.00     0.053 C 
HETATM   23  C14 UNL     1      24.126  -0.270  53.307  1.00  0.00     0.031 C 
HETATM   24  C15 UNL     1      25.391  -0.718  53.162  1.00  0.00    -0.023 C 
HETATM   25  C16 UNL     1      26.401  -0.028  52.331  1.00  0.00     0.037 C 
HETATM   26  C17 UNL     1      26.302   1.493  52.435  1.00  0.00     0.074 C 
BRANCH  22  27
HETATM   27  N2  UNL     1      22.144   1.230  52.982  1.00  0.00    -0.394 N 
HETATM   28  H14 UNL     1      21.531   2.037  52.755  1.00  0.00     0.156 HD
HETATM   29  H15 UNL     1      21.551   0.555  53.535  1.00  0.00     0.156 HD
ENDBRANCH  22  27
ENDBRANCH  20  21
ENDBRANCH   4  20
TORSDOF 6
ENDMDL
MODEL 8
REMARK VINA RESULT:      -7.8      5.630      8.754
REMARK  6 active torsions:
REMARK  status: ('A' for Active; 'I' for Inactive)
REMARK    1  A    between atoms: C4_5  and  C5_6 
REMARK    2  A    between atoms: C7_8  and  N1_9 
REMARK    3  A    between atoms: N1_9  and  C8_10 
REMARK    4  A    between atoms: C11_13  and  C12_14 
REMARK    5  A    between atoms: C12_14  and  S1_15 
REMARK    6  A    between atoms: C13_16  and  N2_17 
ROOT
HETATM    1  C8  UNL     1      23.265   2.089  51.858  1.00  0.00     0.033 A 
HETATM    2  C9  UNL     1      22.649   1.079  52.577  1.00  0.00     0.030 A 
HETATM    3  C10 UNL     1      23.358   0.006  53.082  1.00  0.00     0.010 A 
HETATM    4  C11 UNL     1      24.724  -0.065  52.846  1.00  0.00    -0.049 A 
HETATM    5  C18 UNL     1      25.287   0.961  52.116  1.00  0.00     0.010 A 
HETATM    6  C19 UNL     1      24.642   2.044  51.609  1.00  0.00     0.030 A 
ENDROOT
BRANCH   1   7
HETATM    7  N1  UNL     1      22.577   3.228  51.367  1.00  0.00    -0.341 N 
HETATM    8  H9  UNL     1      21.516   3.206  51.260  1.00  0.00     0.167 HD
BRANCH   7   9
HETATM    9  C7  UNL     1      22.908   4.512  50.929  1.00  0.00     0.131 A 
HETATM   10  C6  UNL     1      23.671   4.634  49.834  1.00  0.00     0.078 A 
HETATM   11  C5  UNL     1      24.230   5.606  49.115  1.00  0.00     0.049 A 
HETATM   12  N4  UNL     1      23.826   6.750  49.815  1.00  0.00    -0.246 NA
HETATM   13  C20 UNL     1      23.078   6.821  50.906  1.00  0.00     0.235 A 
HETATM   14  N3  UNL     1      22.591   5.681  51.504  1.00  0.00    -0.224 NA
BRANCH  11  15
HETATM   15  C4  UNL     1      24.829   6.599  48.335  1.00  0.00     0.080 A 
HETATM   16  C2  UNL     1      24.716   7.455  47.376  1.00  0.00    -0.070 A 
HETATM   17  O1  UNL     1      25.952   7.337  48.042  1.00  0.00     0.000 OA
HETATM   18  C3  UNL     1      24.139   8.261  46.280  1.00  0.00     0.044 C 
HETATM   19  C1  UNL     1      27.187   7.673  47.483  1.00  0.00     0.000 C 
ENDBRANCH  11  15
ENDBRANCH   7   9
ENDBRANCH   1   7
BRANCH   4  20
HETATM   20  C12 UNL     1      25.615  -1.099  53.358  1.00  0.00     0.108 C 
BRANCH  20  21
HETATM   21  S1  UNL     1      27.395  -0.719  53.461  1.00  0.00    -0.166 SA
HETATM   22  C13 UNL     1      28.552  -1.825  53.306  1.00  0.00     0.053 C 
HETATM   23  C14 UNL     1      29.894  -1.228  53.417  1.00  0.00     0.031 C 
HETATM   24  C15 UNL     1      30.206   0.071  53.613  1.00  0.00    -0.023 C 
HETATM   25  C16 UNL     1      29.188   1.136  53.740  1.00  0.00     0.037 C 
HETATM   26  C17 UNL     1      27.962   0.679  54.528  1.00  0.00     0.074 C 
BRANCH  22  27
HETATM   27  N2  UNL     1      28.434  -3.238  53.081  1.00  0.00    -0.394 N 
HETATM   28  H14 UNL     1      27.741  -3.823  52.576  1.00  0.00     0.156 HD
HETATM   29  H15 UNL     1      29.142  -3.905  53.489  1.00  0.00     0.156 HD
ENDBRANCH  22  27
ENDBRANCH  20  21
ENDBRANCH   4  20
TORSDOF 6
ENDMDL
MODEL 9
REMARK VINA RESULT:      -7.7      7.295      9.763
REMARK  6 active torsions:
REMARK  status: ('A' for Active; 'I' for Inactive)
REMARK    1  A    between atoms: C4_5  and  C5_6 
REMARK    2  A    between atoms: C7_8  and  N1_9 
REMARK    3  A    between atoms: N1_9  and  C8_10 
REMARK    4  A    between atoms: C11_13  and  C12_14 
REMARK    5  A    between atoms: C12_14  and  S1_15 
REMARK    6  A    between atoms: C13_16  and  N2_17 
ROOT
HETATM    1  C8  UNL     1      27.278   6.208  48.487  1.00  0.00     0.033 A 
HETATM    2  C9  UNL     1      28.124   5.113  48.450  1.00  0.00     0.030 A 
HETATM    3  C10 UNL     1      29.453   5.229  48.091  1.00  0.00     0.010 A 
HETATM    4  C11 UNL     1      29.946   6.478  47.744  1.00  0.00    -0.049 A 
HETATM    5  C18 UNL     1      29.061   7.535  47.787  1.00  0.00     0.010 A 
HETATM    6  C19 UNL     1      27.751   7.480  48.145  1.00  0.00     0.030 A 
ENDROOT
BRANCH   1   7
HETATM    7  N1  UNL     1      25.923   6.134  48.898  1.00  0.00    -0.341 N 
HETATM    8  H9  UNL     1      25.161   6.596  48.311  1.00  0.00     0.167 HD
BRANCH   7   9
HETATM    9  C7  UNL     1      25.205   5.579  49.959  1.00  0.00     0.131 A 
HETATM   10  C6  UNL     1      25.312   4.262  50.180  1.00  0.00     0.078 A 
HETATM   11  C5  UNL     1      24.810   3.350  51.011  1.00  0.00     0.049 A 
HETATM   12  N4  UNL     1      23.958   4.124  51.808  1.00  0.00    -0.246 NA
HETATM   13  C20 UNL     1      23.729   5.427  51.736  1.00  0.00     0.235 A 
HETATM   14  N3  UNL     1      24.359   6.203  50.791  1.00  0.00    -0.224 NA
BRANCH  11  15
HETATM   15  C4  UNL     1      24.307   2.365  51.867  1.00  0.00     0.080 A 
HETATM   16  C2  UNL     1      24.512   1.266  52.511  1.00  0.00    -0.070 A 
HETATM   17  O1  UNL     1      23.247   1.880  52.596  1.00  0.00     0.000 OA
HETATM   18  C3  UNL     1      25.182   0.065  53.054  1.00  0.00     0.044 C 
HETATM   19  C1  UNL     1      22.059   1.208  52.889  1.00  0.00     0.000 C 
ENDBRANCH  11  15
ENDBRANCH   7   9
ENDBRANCH   1   7
BRANCH   4  20
HETATM   20  C12 UNL     1      31.332   6.772  47.398  1.00  0.00     0.108 C 
BRANCH  20  21
HETATM   21  S1  UNL     1      32.556   5.430  47.561  1.00  0.00    -0.166 SA
HETATM   22  C13 UNL     1      34.064   5.659  48.074  1.00  0.00     0.053 C 
HETATM   23  C14 UNL     1      34.819   4.395  48.121  1.00  0.00     0.031 C 
HETATM   24  C15 UNL     1      34.381   3.159  47.803  1.00  0.00    -0.023 C 
HETATM   25  C16 UNL     1      33.001   2.883  47.348  1.00  0.00     0.037 C 
HETATM   26  C17 UNL     1      32.462   3.976  46.426  1.00  0.00     0.074 C 
BRANCH  22  27
HETATM   27  N2  UNL     1      34.714   6.876  48.471  1.00  0.00    -0.394 N 
HETATM   28  H14 UNL     1      34.764   7.825  48.053  1.00  0.00     0.156 HD
HETATM   29  H15 UNL     1      35.300   6.907  49.347  1.00  0.00     0.156 HD
ENDBRANCH  22  27
ENDBRANCH  20  21
ENDBRANCH   4  20
TORSDOF 6
ENDMDL
