MODEL 1
REMARK VINA RESULT:     -10.0      0.000      0.000
REMARK  4 active torsions:
REMARK  status: ('A' for Active; 'I' for Inactive)
REMARK    1  A    between atoms: C8_10  and  O2_11 
REMARK    2  A    between atoms: N2_19  and  C14_20 
REMARK    3  A    between atoms: C14_20  and  C15_21 
REMARK    4  A    between atoms: C18_24  and  O3_25 
ROOT
HETATM    1  O1  UNL     1      24.953   2.669  51.562  1.00  0.00    -0.118 OA
HETATM    2  C1  UNL     1      24.711   2.484  52.771  1.00  0.00     0.457 A 
HETATM    3  N1  UNL     1      23.363   2.873  52.798  1.00  0.00    -0.324 N 
HETATM    4  C2  UNL     1      22.152   3.348  52.246  1.00  0.00     0.045 A 
HETATM    5  C3  UNL     1      21.170   2.422  52.451  1.00  0.00     0.030 A 
HETATM    6  C4  UNL     1      19.879   2.608  52.003  1.00  0.00     0.002 A 
HETATM    7  C5  UNL     1      19.649   3.786  51.336  1.00  0.00     0.001 A 
HETATM    8  C6  UNL     1      20.689   4.709  51.148  1.00  0.00     0.016 A 
HETATM    9  C7  UNL     1      22.015   4.539  51.598  1.00  0.00     0.025 A 
HETATM   10  C8  UNL     1      22.667   5.756  51.135  1.00  0.00     0.097 C 
HETATM   11  C9  UNL     1      23.820   5.760  50.409  1.00  0.00     0.062 A 
HETATM   12 CL1  UNL     1      24.410   7.385  49.946  1.00  0.00    -0.158 Cl
HETATM   13  C10 UNL     1      25.109   5.601  49.658  1.00  0.00     0.248 A 
HETATM   14  C11 UNL     1      25.813   4.456  49.664  1.00  0.00     0.061 A 
HETATM   15 CL2  UNL     1      26.445   5.815  48.695  1.00  0.00    -0.186 Cl
HETATM   16  C12 UNL     1      26.563   3.180  49.733  1.00  0.00     0.024 C 
HETATM   17  C13 UNL     1      26.578   2.322  50.735  1.00  0.00     0.242 C 
HETATM   18  N2  UNL     1      25.955   2.287  52.042  1.00  0.00     0.139 N 
HETATM   19  H1  UNL     1      23.488   2.607  53.797  1.00  0.00     0.165 HD
ENDROOT
BRANCH  18  20
HETATM   20  C14 UNL     1      26.905   1.902  53.086  1.00  0.00     0.325 C 
BRANCH  20  21
HETATM   21  C15 UNL     1      27.253   0.455  53.028  1.00  0.00    -0.029 A 
HETATM   22  C16 UNL     1      26.441  -0.575  52.606  1.00  0.00     0.012 A 
HETATM   23  C17 UNL     1      26.906  -1.887  52.605  1.00  0.00     0.037 A 
HETATM   24  C18 UNL     1      28.183  -2.205  53.021  1.00  0.00     0.065 A 
HETATM   25  C19 UNL     1      29.019  -1.206  53.447  1.00  0.00     0.037 A 
HETATM   26  C20 UNL     1      28.534   0.093  53.440  1.00  0.00     0.012 A 
BRANCH  24  27
HETATM   27  O3  UNL     1      28.562  -3.539  52.986  1.00  0.00    -0.361 OA
HETATM   28  H14 UNL     1      29.369  -3.870  52.452  1.00  0.00     0.217 HD
ENDBRANCH  24  27
ENDBRANCH  20  21
ENDBRANCH  18  20
BRANCH  10  29
HETATM   29  O2  UNL     1      22.123   7.025  51.426  1.00  0.00    -0.358 OA
HETATM   30  H6  UNL     1      21.674   7.152  52.329  1.00  0.00     0.217 HD
ENDBRANCH  10  29
TORSDOF 4
ENDMDL
MODEL 2
REMARK VINA RESULT:      -9.0      2.801      4.949
REMARK  4 active torsions:
REMARK  status: ('A' for Active; 'I' for Inactive)
REMARK    1  A    between atoms: C8_10  and  O2_11 
REMARK    2  A    between atoms: N2_19  and  C14_20 
REMARK    3  A    between atoms: C14_20  and  C15_21 
REMARK    4  A    between atoms: C18_24  and  O3_25 
ROOT
HETATM    1  O1  UNL     1      25.827   3.231  51.522  1.00  0.00    -0.118 OA
HETATM    2  C1  UNL     1      26.393   2.482  50.702  1.00  0.00     0.457 A 
HETATM    3  N1  UNL     1      26.650   3.411  49.682  1.00  0.00    -0.324 N 
HETATM    4  C2  UNL     1      26.628   4.684  49.069  1.00  0.00     0.045 A 
HETATM    5  C3  UNL     1      27.908   5.074  48.794  1.00  0.00     0.030 A 
HETATM    6  C4  UNL     1      28.197   6.287  48.208  1.00  0.00     0.002 A 
HETATM    7  C5  UNL     1      27.112   7.077  47.918  1.00  0.00     0.001 A 
HETATM    8  C6  UNL     1      25.814   6.635  48.217  1.00  0.00     0.016 A 
HETATM    9  C7  UNL     1      25.496   5.399  48.816  1.00  0.00     0.025 A 
HETATM   10  C8  UNL     1      24.044   5.455  48.912  1.00  0.00     0.097 C 
HETATM   11  C9  UNL     1      23.358   5.219  50.065  1.00  0.00     0.062 A 
HETATM   12 CL1  UNL     1      21.580   5.367  49.925  1.00  0.00    -0.158 Cl
HETATM   13  C10 UNL     1      22.748   4.890  51.395  1.00  0.00     0.248 A 
HETATM   14  C11 UNL     1      23.433   4.273  52.373  1.00  0.00     0.061 A 
HETATM   15 CL2  UNL     1      21.742   4.732  52.708  1.00  0.00    -0.186 Cl
HETATM   16  C12 UNL     1      24.229   3.563  53.403  1.00  0.00     0.024 C 
HETATM   17  C13 UNL     1      25.214   2.711  53.195  1.00  0.00     0.242 C 
HETATM   18  N2  UNL     1      25.841   2.163  52.010  1.00  0.00     0.139 N 
HETATM   19  H1  UNL     1      27.074   2.561  49.256  1.00  0.00     0.165 HD
ENDROOT
BRANCH  18  20
HETATM   20  C14 UNL     1      26.020   0.715  52.112  1.00  0.00     0.325 C 
BRANCH  20  21
HETATM   21  C15 UNL     1      25.020   0.083  53.017  1.00  0.00    -0.029 A 
HETATM   22  C16 UNL     1      25.266  -0.517  54.232  1.00  0.00     0.012 A 
HETATM   23  C17 UNL     1      24.223  -1.066  54.974  1.00  0.00     0.037 A 
HETATM   24  C18 UNL     1      22.918  -1.030  54.528  1.00  0.00     0.065 A 
HETATM   25  C19 UNL     1      22.635  -0.441  53.323  1.00  0.00     0.037 A 
HETATM   26  C20 UNL     1      23.690   0.099  52.602  1.00  0.00     0.012 A 
BRANCH  24  27
HETATM   27  O3  UNL     1      21.943  -1.602  55.332  1.00  0.00    -0.361 OA
HETATM   28  H14 UNL     1      22.128  -2.406  55.938  1.00  0.00     0.217 HD
ENDBRANCH  24  27
ENDBRANCH  20  21
ENDBRANCH  18  20
BRANCH  10  29
HETATM   29  O2  UNL     1      23.255   5.762  47.783  1.00  0.00    -0.358 OA
HETATM   30  H6  UNL     1      23.164   6.739  47.520  1.00  0.00     0.217 HD
ENDBRANCH  10  29
TORSDOF 4
ENDMDL
MODEL 3
REMARK VINA RESULT:      -8.9      2.244      3.549
REMARK  4 active torsions:
REMARK  status: ('A' for Active; 'I' for Inactive)
REMARK    1  A    between atoms: C8_10  and  O2_11 
REMARK    2  A    between atoms: N2_19  and  C14_20 
REMARK    3  A    between atoms: C14_20  and  C15_21 
REMARK    4  A    between atoms: C18_24  and  O3_25 
ROOT
HETATM    1  O1  UNL     1      23.934   4.665  51.020  1.00  0.00    -0.118 OA
HETATM    2  C1  UNL     1      23.460   5.096  52.090  1.00  0.00     0.457 A 
HETATM    3  N1  UNL     1      22.940   6.317  51.635  1.00  0.00    -0.324 N 
HETATM    4  C2  UNL     1      22.658   7.316  50.676  1.00  0.00     0.045 A 
HETATM    5  C3  UNL     1      21.308   7.513  50.615  1.00  0.00     0.030 A 
HETATM    6  C4  UNL     1      20.736   8.422  49.749  1.00  0.00     0.002 A 
HETATM    7  C5  UNL     1      21.616   9.115  48.954  1.00  0.00     0.001 A 
HETATM    8  C6  UNL     1      22.996   8.880  49.052  1.00  0.00     0.016 A 
HETATM    9  C7  UNL     1      23.601   7.956  49.929  1.00  0.00     0.025 A 
HETATM   10  C8  UNL     1      25.017   8.099  49.616  1.00  0.00     0.097 C 
HETATM   11  C9  UNL     1      25.829   7.048  49.318  1.00  0.00     0.062 A 
HETATM   12 CL1  UNL     1      27.525   7.490  48.952  1.00  0.00    -0.158 Cl
HETATM   13  C10 UNL     1      26.601   5.789  49.053  1.00  0.00     0.248 A 
HETATM   14  C11 UNL     1      26.135   4.572  49.383  1.00  0.00     0.061 A 
HETATM   15 CL2  UNL     1      27.725   4.663  48.576  1.00  0.00    -0.186 Cl
HETATM   16  C12 UNL     1      25.585   3.260  49.797  1.00  0.00     0.024 C 
HETATM   17  C13 UNL     1      24.774   3.024  50.810  1.00  0.00     0.242 C 
HETATM   18  N2  UNL     1      24.172   3.853  51.834  1.00  0.00     0.139 N 
HETATM   19  H1  UNL     1      22.659   6.369  52.636  1.00  0.00     0.165 HD
ENDROOT
BRANCH  18  20
HETATM   20  C14 UNL     1      24.292   3.249  53.161  1.00  0.00     0.325 C 
BRANCH  20  21
HETATM   21  C15 UNL     1      25.104   2.000  53.142  1.00  0.00    -0.029 A 
HETATM   22  C16 UNL     1      26.477   1.907  53.100  1.00  0.00     0.012 A 
HETATM   23  C17 UNL     1      27.102   0.662  53.090  1.00  0.00     0.037 A 
HETATM   24  C18 UNL     1      26.379  -0.513  53.122  1.00  0.00     0.065 A 
HETATM   25  C19 UNL     1      25.010  -0.459  53.163  1.00  0.00     0.037 A 
HETATM   26  C20 UNL     1      24.411   0.792  53.173  1.00  0.00     0.012 A 
BRANCH  24  27
HETATM   27  O3  UNL     1      27.084  -1.708  53.108  1.00  0.00    -0.361 OA
HETATM   28  H14 UNL     1      28.100  -1.748  52.998  1.00  0.00     0.217 HD
ENDBRANCH  24  27
ENDBRANCH  20  21
ENDBRANCH  18  20
BRANCH  10  29
HETATM   29  O2  UNL     1      25.632   9.369  49.610  1.00  0.00    -0.358 OA
HETATM   30  H6  UNL     1      26.556   9.450  50.025  1.00  0.00     0.217 HD
ENDBRANCH  10  29
TORSDOF 4
ENDMDL
MODEL 4
REMARK VINA RESULT:      -8.8      3.538      5.984
REMARK  4 active torsions:
REMARK  status: ('A' for Active; 'I' for Inactive)
REMARK    1  A    between atoms: C8_10  and  O2_11 
REMARK    2  A    between atoms: N2_19  and  C14_20 
REMARK    3  A    between atoms: C14_20  and  C15_21 
REMARK    4  A    between atoms: C18_24  and  O3_25 
ROOT
HETATM    1  O1  UNL     1      22.130   3.267  51.118  1.00  0.00    -0.118 OA
HETATM    2  C1  UNL     1      21.728   2.913  49.992  1.00  0.00     0.457 A 
HETATM    3  N1  UNL     1      20.907   1.839  50.370  1.00  0.00    -0.324 N 
HETATM    4  C2  UNL     1      20.293   0.950  51.281  1.00  0.00     0.045 A 
HETATM    5  C3  UNL     1      18.937   1.038  51.153  1.00  0.00     0.030 A 
HETATM    6  C4  UNL     1      18.075   0.295  51.930  1.00  0.00     0.002 A 
HETATM    7  C5  UNL     1      18.672  -0.542  52.841  1.00  0.00     0.001 A 
HETATM    8  C6  UNL     1      20.071  -0.601  52.937  1.00  0.00     0.016 A 
HETATM    9  C7  UNL     1      20.970   0.150  52.153  1.00  0.00     0.025 A 
HETATM   10  C8  UNL     1      22.268  -0.274  52.660  1.00  0.00     0.097 C 
HETATM   11  C9  UNL     1      23.234   0.595  53.069  1.00  0.00     0.062 A 
HETATM   12 CL1  UNL     1      24.734  -0.178  53.668  1.00  0.00    -0.158 Cl
HETATM   13  C10 UNL     1      24.209   1.673  53.438  1.00  0.00     0.248 A 
HETATM   14  C11 UNL     1      24.058   2.951  53.046  1.00  0.00     0.061 A 
HETATM   15 CL2  UNL     1      25.468   2.556  54.067  1.00  0.00    -0.186 Cl
HETATM   16  C12 UNL     1      23.857   4.335  52.559  1.00  0.00     0.024 C 
HETATM   17  C13 UNL     1      23.259   4.704  51.442  1.00  0.00     0.242 C 
HETATM   18  N2  UNL     1      22.642   3.988  50.345  1.00  0.00     0.139 N 
HETATM   19  H1  UNL     1      20.760   1.817  49.340  1.00  0.00     0.165 HD
ENDROOT
BRANCH  18  20
HETATM   20  C14 UNL     1      23.066   4.514  49.047  1.00  0.00     0.325 C 
BRANCH  20  21
HETATM   21  C15 UNL     1      24.532   4.776  48.995  1.00  0.00    -0.029 A 
HETATM   22  C16 UNL     1      25.149   5.965  48.675  1.00  0.00     0.012 A 
HETATM   23  C17 UNL     1      26.538   6.063  48.670  1.00  0.00     0.037 A 
HETATM   24  C18 UNL     1      27.342   4.986  48.982  1.00  0.00     0.065 A 
HETATM   25  C19 UNL     1      26.763   3.786  49.305  1.00  0.00     0.037 A 
HETATM   26  C20 UNL     1      25.378   3.713  49.304  1.00  0.00     0.012 A 
BRANCH  24  27
HETATM   27  O3  UNL     1      28.716   5.173  48.951  1.00  0.00    -0.361 OA
HETATM   28  H14 UNL     1      29.377   4.398  48.849  1.00  0.00     0.217 HD
ENDBRANCH  24  27
ENDBRANCH  20  21
ENDBRANCH  18  20
BRANCH  10  29
HETATM   29  O2  UNL     1      22.597  -1.643  52.753  1.00  0.00    -0.358 OA
HETATM   30  H6  UNL     1      21.910  -2.269  53.165  1.00  0.00     0.217 HD
ENDBRANCH  10  29
TORSDOF 4
ENDMDL
MODEL 5
REMARK VINA RESULT:      -8.7      3.361      8.005
REMARK  4 active torsions:
REMARK  status: ('A' for Active; 'I' for Inactive)
REMARK    1  A    between atoms: C8_10  and  O2_11 
REMARK    2  A    between atoms: N2_19  and  C14_20 
REMARK    3  A    between atoms: C14_20  and  C15_21 
REMARK    4  A    between atoms: C18_24  and  O3_25 
ROOT
HETATM    1  O1  UNL     1      24.226   2.421  52.559  1.00  0.00    -0.118 OA
HETATM    2  C1  UNL     1      24.738   3.345  53.220  1.00  0.00     0.457 A 
HETATM    3  N1  UNL     1      25.868   2.676  53.714  1.00  0.00    -0.324 N 
HETATM    4  C2  UNL     1      26.734   1.572  53.887  1.00  0.00     0.045 A 
HETATM    5  C3  UNL     1      27.983   1.906  53.448  1.00  0.00     0.030 A 
HETATM    6  C4  UNL     1      29.035   1.016  53.477  1.00  0.00     0.002 A 
HETATM    7  C5  UNL     1      28.742  -0.229  53.979  1.00  0.00     0.001 A 
HETATM    8  C6  UNL     1      27.444  -0.527  54.420  1.00  0.00     0.016 A 
HETATM    9  C7  UNL     1      26.354   0.367  54.399  1.00  0.00     0.025 A 
HETATM   10  C8  UNL     1      25.269  -0.439  54.940  1.00  0.00     0.097 C 
HETATM   11  C9  UNL     1      24.062  -0.582  54.326  1.00  0.00     0.062 A 
HETATM   12 CL1  UNL     1      22.903  -1.640  55.187  1.00  0.00    -0.158 Cl
HETATM   13  C10 UNL     1      22.776  -0.605  53.554  1.00  0.00     0.248 A 
HETATM   14  C11 UNL     1      22.493   0.292  52.593  1.00  0.00     0.061 A 
HETATM   15 CL2  UNL     1      21.286  -0.981  52.923  1.00  0.00    -0.186 Cl
HETATM   16  C12 UNL     1      22.223   1.326  51.566  1.00  0.00     0.024 C 
HETATM   17  C13 UNL     1      22.675   2.564  51.550  1.00  0.00     0.242 C 
HETATM   18  N2  UNL     1      23.511   3.345  52.439  1.00  0.00     0.139 N 
HETATM   19  H1  UNL     1      26.027   3.616  54.131  1.00  0.00     0.165 HD
ENDROOT
BRANCH  18  20
HETATM   20  C14 UNL     1      22.950   4.674  52.683  1.00  0.00     0.325 C 
BRANCH  20  21
HETATM   21  C15 UNL     1      22.894   5.499  51.444  1.00  0.00    -0.029 A 
HETATM   22  C16 UNL     1      23.928   5.747  50.567  1.00  0.00     0.012 A 
HETATM   23  C17 UNL     1      23.725   6.541  49.441  1.00  0.00     0.037 A 
HETATM   24  C18 UNL     1      22.497   7.104  49.162  1.00  0.00     0.065 A 
HETATM   25  C19 UNL     1      21.445   6.880  50.012  1.00  0.00     0.037 A 
HETATM   26  C20 UNL     1      21.671   6.086  51.126  1.00  0.00     0.012 A 
BRANCH  24  27
HETATM   27  O3  UNL     1      22.386   7.882  48.019  1.00  0.00    -0.361 OA
HETATM   28  H14 UNL     1      22.411   7.485  47.076  1.00  0.00     0.217 HD
ENDBRANCH  24  27
ENDBRANCH  20  21
ENDBRANCH  18  20
BRANCH  10  29
HETATM   29  O2  UNL     1      25.419  -1.128  56.163  1.00  0.00    -0.358 OA
HETATM   30  H6  UNL     1      24.575  -1.434  56.641  1.00  0.00     0.217 HD
ENDBRANCH  10  29
TORSDOF 4
ENDMDL
MODEL 6
REMARK VINA RESULT:      -8.5      3.422      7.067
REMARK  4 active torsions:
REMARK  status: ('A' for Active; 'I' for Inactive)
REMARK    1  A    between atoms: C8_10  and  O2_11 
REMARK    2  A    between atoms: N2_19  and  C14_20 
REMARK    3  A    between atoms: C14_20  and  C15_21 
REMARK    4  A    between atoms: C18_24  and  O3_25 
ROOT
HETATM    1  O1  UNL     1      24.302   3.241  50.666  1.00  0.00    -0.118 OA
HETATM    2  C1  UNL     1      24.616   4.039  51.570  1.00  0.00     0.457 A 
HETATM    3  N1  UNL     1      24.921   3.124  52.589  1.00  0.00    -0.324 N 
HETATM    4  C2  UNL     1      25.068   1.840  53.160  1.00  0.00     0.045 A 
HETATM    5  C3  UNL     1      26.356   1.679  53.583  1.00  0.00     0.030 A 
HETATM    6  C4  UNL     1      26.798   0.512  54.168  1.00  0.00     0.002 A 
HETATM    7  C5  UNL     1      25.855  -0.478  54.298  1.00  0.00     0.001 A 
HETATM    8  C6  UNL     1      24.542  -0.268  53.850  1.00  0.00     0.016 A 
HETATM    9  C7  UNL     1      24.069   0.916  53.249  1.00  0.00     0.025 A 
HETATM   10  C8  UNL     1      22.675   0.599  52.971  1.00  0.00     0.097 C 
HETATM   11  C9  UNL     1      22.099   0.762  51.747  1.00  0.00     0.062 A 
HETATM   12 CL1  UNL     1      20.377   0.282  51.659  1.00  0.00    -0.158 Cl
HETATM   13  C10 UNL     1      21.599   1.038  50.360  1.00  0.00     0.248 A 
HETATM   14  C11 UNL     1      22.266   1.820  49.493  1.00  0.00     0.061 A 
HETATM   15 CL2  UNL     1      20.744   1.073  48.937  1.00  0.00    -0.186 Cl
HETATM   16  C12 UNL     1      23.029   2.715  48.591  1.00  0.00     0.024 C 
HETATM   17  C13 UNL     1      23.804   3.722  48.944  1.00  0.00     0.242 C 
HETATM   18  N2  UNL     1      24.171   4.316  50.213  1.00  0.00     0.139 N 
HETATM   19  H1  UNL     1      25.123   4.015  53.088  1.00  0.00     0.165 HD
ENDROOT
BRANCH  18  20
HETATM   20  C14 UNL     1      24.084   5.776  50.173  1.00  0.00     0.325 C 
BRANCH  20  21
HETATM   21  C15 UNL     1      25.061   6.375  49.221  1.00  0.00    -0.029 A 
HETATM   22  C16 UNL     1      26.407   6.098  49.132  1.00  0.00     0.012 A 
HETATM   23  C17 UNL     1      27.201   6.738  48.184  1.00  0.00     0.037 A 
HETATM   24  C18 UNL     1      26.676   7.663  47.305  1.00  0.00     0.065 A 
HETATM   25  C19 UNL     1      25.341   7.965  47.363  1.00  0.00     0.037 A 
HETATM   26  C20 UNL     1      24.571   7.314  48.316  1.00  0.00     0.012 A 
BRANCH  24  27
HETATM   27  O3  UNL     1      27.541   8.252  46.393  1.00  0.00    -0.361 OA
HETATM   28  H14 UNL     1      28.378   8.767  46.679  1.00  0.00     0.217 HD
ENDBRANCH  24  27
ENDBRANCH  20  21
ENDBRANCH  18  20
BRANCH  10  29
HETATM   29  O2  UNL     1      21.831   0.096  53.983  1.00  0.00    -0.358 OA
HETATM   30  H6  UNL     1      21.387   0.765  54.606  1.00  0.00     0.217 HD
ENDBRANCH  10  29
TORSDOF 4
ENDMDL
MODEL 7
REMARK VINA RESULT:      -8.3      4.215      5.600
REMARK  4 active torsions:
REMARK  status: ('A' for Active; 'I' for Inactive)
REMARK    1  A    between atoms: C8_10  and  O2_11 
REMARK    2  A    between atoms: N2_19  and  C14_20 
REMARK    3  A    between atoms: C14_20  and  C15_21 
REMARK    4  A    between atoms: C18_24  and  O3_25 
ROOT
HETATM    1  O1  UNL     1      21.025   0.348  51.846  1.00  0.00    -0.118 OA
HETATM    2  C1  UNL     1      21.063   0.432  53.089  1.00  0.00     0.457 A 
HETATM    3  N1  UNL     1      19.853  -0.207  53.399  1.00  0.00    -0.324 N 
HETATM    4  C2  UNL     1      18.641  -0.874  53.109  1.00  0.00     0.045 A 
HETATM    5  C3  UNL     1      18.640  -2.094  53.721  1.00  0.00     0.030 A 
HETATM    6  C4  UNL     1      17.588  -2.977  53.600  1.00  0.00     0.002 A 
HETATM    7  C5  UNL     1      16.541  -2.546  52.823  1.00  0.00     0.001 A 
HETATM    8  C6  UNL     1      16.585  -1.282  52.214  1.00  0.00     0.016 A 
HETATM    9  C7  UNL     1      17.649  -0.365  52.324  1.00  0.00     0.025 A 
HETATM   10  C8  UNL     1      17.197   0.750  51.504  1.00  0.00     0.097 C 
HETATM   11  C9  UNL     1      17.948   1.306  50.513  1.00  0.00     0.062 A 
HETATM   12 CL1  UNL     1      17.158   2.653  49.639  1.00  0.00    -0.158 Cl
HETATM   13  C10 UNL     1      18.908   1.837  49.490  1.00  0.00     0.248 A 
HETATM   14  C11 UNL     1      20.221   1.544  49.510  1.00  0.00     0.061 A 
HETATM   15 CL2  UNL     1      19.621   2.585  48.190  1.00  0.00    -0.186 Cl
HETATM   16  C12 UNL     1      21.662   1.213  49.600  1.00  0.00     0.024 C 
HETATM   17  C13 UNL     1      22.349   0.955  50.696  1.00  0.00     0.242 C 
HETATM   18  N2  UNL     1      22.021   0.913  52.106  1.00  0.00     0.139 N 
HETATM   19  H1  UNL     1      20.189   0.006  54.361  1.00  0.00     0.165 HD
ENDROOT
BRANCH  18  20
HETATM   20  C14 UNL     1      23.017   1.616  52.916  1.00  0.00     0.325 C 
BRANCH  20  21
HETATM   21  C15 UNL     1      24.324   0.904  52.948  1.00  0.00    -0.029 A 
HETATM   22  C16 UNL     1      24.547  -0.399  53.339  1.00  0.00     0.012 A 
HETATM   23  C17 UNL     1      25.832  -0.935  53.314  1.00  0.00     0.037 A 
HETATM   24  C18 UNL     1      26.920  -0.192  52.901  1.00  0.00     0.065 A 
HETATM   25  C19 UNL     1      26.736   1.107  52.506  1.00  0.00     0.037 A 
HETATM   26  C20 UNL     1      25.448   1.619  52.539  1.00  0.00     0.012 A 
BRANCH  24  27
HETATM   27  O3  UNL     1      28.164  -0.807  52.909  1.00  0.00    -0.361 OA
HETATM   28  H14 UNL     1      28.616  -1.149  52.058  1.00  0.00     0.217 HD
ENDBRANCH  24  27
ENDBRANCH  20  21
ENDBRANCH  18  20
BRANCH  10  29
HETATM   29  O2  UNL     1      15.924   1.326  51.703  1.00  0.00    -0.358 OA
HETATM   30  H6  UNL     1      15.754   2.248  51.310  1.00  0.00     0.217 HD
ENDBRANCH  10  29
TORSDOF 4
ENDMDL
MODEL 8
REMARK VINA RESULT:      -8.3      2.333      3.046
REMARK  4 active torsions:
REMARK  status: ('A' for Active; 'I' for Inactive)
REMARK    1  A    between atoms: C8_10  and  O2_11 
REMARK    2  A    between atoms: N2_19  and  C14_20 
REMARK    3  A    between atoms: C14_20  and  C15_21 
REMARK    4  A    between atoms: C18_24  and  O3_25 
ROOT
HETATM    1  O1  UNL     1      23.303   1.660  52.032  1.00  0.00    -0.118 OA
HETATM    2  C1  UNL     1      23.254   1.492  53.267  1.00  0.00     0.457 A 
HETATM    3  N1  UNL     1      21.915   1.092  53.391  1.00  0.00    -0.324 N 
HETATM    4  C2  UNL     1      20.618   0.783  52.923  1.00  0.00     0.045 A 
HETATM    5  C3  UNL     1      20.308  -0.502  53.270  1.00  0.00     0.030 A 
HETATM    6  C4  UNL     1      19.107  -1.086  52.929  1.00  0.00     0.002 A 
HETATM    7  C5  UNL     1      18.243  -0.290  52.218  1.00  0.00     0.001 A 
HETATM    8  C6  UNL     1      18.603   1.025  51.885  1.00  0.00     0.016 A 
HETATM    9  C7  UNL     1      19.825   1.642  52.223  1.00  0.00     0.025 A 
HETATM   10  C8  UNL     1      19.688   2.967  51.633  1.00  0.00     0.097 C 
HETATM   11  C9  UNL     1      20.619   3.521  50.808  1.00  0.00     0.062 A 
HETATM   12 CL1  UNL     1      20.207   5.153  50.201  1.00  0.00    -0.158 Cl
HETATM   13  C10 UNL     1      21.751   4.010  49.955  1.00  0.00     0.248 A 
HETATM   14  C11 UNL     1      22.966   3.433  49.964  1.00  0.00     0.061 A 
HETATM   15 CL2  UNL     1      22.711   4.816  48.865  1.00  0.00    -0.186 Cl
HETATM   16  C12 UNL     1      24.292   2.777  50.040  1.00  0.00     0.024 C 
HETATM   17  C13 UNL     1      24.816   2.165  51.084  1.00  0.00     0.242 C 
HETATM   18  N2  UNL     1      24.370   1.927  52.442  1.00  0.00     0.139 N 
HETATM   19  H1  UNL     1      22.207   1.035  54.389  1.00  0.00     0.165 HD
ENDROOT
BRANCH  18  20
HETATM   20  C14 UNL     1      25.422   2.220  53.416  1.00  0.00     0.325 C 
BRANCH  20  21
HETATM   21  C15 UNL     1      26.525   1.220  53.375  1.00  0.00    -0.029 A 
HETATM   22  C16 UNL     1      26.417  -0.120  53.076  1.00  0.00     0.012 A 
HETATM   23  C17 UNL     1      27.544  -0.938  53.073  1.00  0.00     0.037 A 
HETATM   24  C18 UNL     1      28.799  -0.444  53.365  1.00  0.00     0.065 A 
HETATM   25  C19 UNL     1      28.946   0.885  53.667  1.00  0.00     0.037 A 
HETATM   26  C20 UNL     1      27.809   1.679  53.663  1.00  0.00     0.012 A 
BRANCH  24  27
HETATM   27  O3  UNL     1      29.866  -1.331  53.339  1.00  0.00    -0.361 OA
HETATM   28  H14 UNL     1      29.899  -2.137  52.710  1.00  0.00     0.217 HD
ENDBRANCH  24  27
ENDBRANCH  20  21
ENDBRANCH  18  20
BRANCH  10  29
HETATM   29  O2  UNL     1      18.553   3.763  51.898  1.00  0.00    -0.358 OA
HETATM   30  H6  UNL     1      18.694   4.762  52.021  1.00  0.00     0.217 HD
ENDBRANCH  10  29
TORSDOF 4
ENDMDL
MODEL 9
REMARK VINA RESULT:      -8.3      3.209      7.569
REMARK  4 active torsions:
REMARK  status: ('A' for Active; 'I' for Inactive)
REMARK    1  A    between atoms: C8_10  and  O2_11 
REMARK    2  A    between atoms: N2_19  and  C14_20 
REMARK    3  A    between atoms: C14_20  and  C15_21 
REMARK    4  A    between atoms: C18_24  and  O3_25 
ROOT
HETATM    1  O1  UNL     1      24.181   3.695  50.945  1.00  0.00    -0.118 OA
HETATM    2  C1  UNL     1      24.291   4.376  51.984  1.00  0.00     0.457 A 
HETATM    3  N1  UNL     1      24.575   3.352  52.900  1.00  0.00    -0.324 N 
HETATM    4  C2  UNL     1      24.798   2.017  53.306  1.00  0.00     0.045 A 
HETATM    5  C3  UNL     1      26.037   1.919  53.872  1.00  0.00     0.030 A 
HETATM    6  C4  UNL     1      26.536   0.726  54.348  1.00  0.00     0.002 A 
HETATM    7  C5  UNL     1      25.705  -0.359  54.213  1.00  0.00     0.001 A 
HETATM    8  C6  UNL     1      24.439  -0.212  53.625  1.00  0.00     0.016 A 
HETATM    9  C7  UNL     1      23.909   0.998  53.132  1.00  0.00     0.025 A 
HETATM   10  C8  UNL     1      22.604   0.594  52.627  1.00  0.00     0.097 C 
HETATM   11  C9  UNL     1      22.164   0.882  51.371  1.00  0.00     0.062 A 
HETATM   12 CL1  UNL     1      20.531   0.257  50.987  1.00  0.00    -0.158 Cl
HETATM   13  C10 UNL     1      21.805   1.314  49.980  1.00  0.00     0.248 A 
HETATM   14  C11 UNL     1      22.478   2.276  49.325  1.00  0.00     0.061 A 
HETATM   15 CL2  UNL     1      21.128   1.479  48.472  1.00  0.00    -0.186 Cl
HETATM   16  C12 UNL     1      23.235   3.366  48.665  1.00  0.00     0.024 C 
HETATM   17  C13 UNL     1      23.842   4.379  49.253  1.00  0.00     0.242 C 
HETATM   18  N2  UNL     1      23.984   4.809  50.629  1.00  0.00     0.139 N 
HETATM   19  H1  UNL     1      24.612   4.173  53.539  1.00  0.00     0.165 HD
ENDROOT
BRANCH  18  20
HETATM   20  C14 UNL     1      23.735   6.243  50.777  1.00  0.00     0.325 C 
BRANCH  20  21
HETATM   21  C15 UNL     1      22.372   6.631  50.319  1.00  0.00    -0.029 A 
HETATM   22  C16 UNL     1      21.211   5.903  50.467  1.00  0.00     0.012 A 
HETATM   23  C17 UNL     1      20.001   6.397  49.987  1.00  0.00     0.037 A 
HETATM   24  C18 UNL     1      19.917   7.620  49.353  1.00  0.00     0.065 A 
HETATM   25  C19 UNL     1      21.051   8.371  49.187  1.00  0.00     0.037 A 
HETATM   26  C20 UNL     1      22.244   7.859  49.674  1.00  0.00     0.012 A 
BRANCH  24  27
HETATM   27  O3  UNL     1      18.670   8.033  48.906  1.00  0.00    -0.361 OA
HETATM   28  H14 UNL     1      18.549   8.653  48.101  1.00  0.00     0.217 HD
ENDBRANCH  24  27
ENDBRANCH  20  21
ENDBRANCH  18  20
BRANCH  10  29
HETATM   29  O2  UNL     1      21.708  -0.135  53.438  1.00  0.00    -0.358 OA
HETATM   30  H6  UNL     1      21.683  -1.145  53.328  1.00  0.00     0.217 HD
ENDBRANCH  10  29
TORSDOF 4
ENDMDL
