MODEL 1
REMARK VINA RESULT:      -7.2      0.000      0.000
REMARK  2 active torsions:
REMARK  status: ('A' for Active; 'I' for Inactive)
REMARK       I    between atoms: C2_2  and  N1_4 
REMARK    1  A    between atoms: N1_4  and  C3_5 
REMARK    2  A    between atoms: C13_18  and  O2_19 
ROOT
HETATM    1  C3  UNL     1      25.296   1.786  51.773  1.00  0.00     0.023 A 
HETATM    2  C4  UNL     1      25.270   2.637  50.694  1.00  0.00     0.018 A 
HETATM    3  C5  UNL     1      24.526   3.541  51.345  1.00  0.00     0.077 A 
HETATM    4  C6  UNL     1      24.082   4.327  50.252  1.00  0.00     0.170 A 
HETATM    5  N2  UNL     1      23.357   5.415  49.831  1.00  0.00    -0.247 NA
HETATM    6  C7  UNL     1      22.722   6.163  50.797  1.00  0.00     0.225 A 
HETATM    7  N3  UNL     1      23.029   5.526  51.965  1.00  0.00    -0.266 NA
HETATM    8  C8  UNL     1      23.792   4.448  51.969  1.00  0.00     0.124 A 
HETATM    9  C9  UNL     1      23.808   3.591  53.095  1.00  0.00     0.049 A 
HETATM   10  C10 UNL     1      24.553   2.625  52.517  1.00  0.00     0.046 A 
HETATM   11  C11 UNL     1      23.933   1.610  53.457  1.00  0.00     0.018 C 
HETATM   12  C12 UNL     1      22.904   0.837  53.017  1.00  0.00     0.064 C 
HETATM   13 CL1  UNL     1      22.033  -0.399  53.928  1.00  0.00    -0.082 Cl
HETATM   14  C13 UNL     1      22.189   0.748  51.668  1.00  0.00     0.087 C 
HETATM   15  C14 UNL     1      22.228   1.316  50.457  1.00  0.00     0.039 C 
HETATM   16  C15 UNL     1      22.187   1.886  49.058  1.00  0.00     0.020 C 
HETATM   17  C16 UNL     1      23.043   2.857  48.676  1.00  0.00     0.085 C 
HETATM   18  N4  UNL     1      24.138   3.811  48.852  1.00  0.00    -0.369 N 
HETATM   19  H13 UNL     1      24.767   3.992  48.057  1.00  0.00     0.161 HD
ENDROOT
BRANCH   1  20
HETATM   20  N1  UNL     1      25.889   0.540  52.016  1.00  0.00    -0.330 N 
HETATM   21  C2  UNL     1      27.147   0.892  52.599  1.00  0.00     0.217 C 
HETATM   22  C1  UNL     1      28.255  -0.019  53.083  1.00  0.00     0.117 C 
HETATM   23  O1  UNL     1      27.396   2.108  52.744  1.00  0.00    -0.274 OA
HETATM   24  H4  UNL     1      25.750  -0.481  51.927  1.00  0.00     0.168 HD
ENDBRANCH   1  20
BRANCH  14  25
HETATM   25  O2  UNL     1      21.167  -0.006  51.184  1.00  0.00    -0.359 OA
HETATM   26  H9  UNL     1      20.560  -0.628  51.705  1.00  0.00     0.217 HD
ENDBRANCH  14  25
TORSDOF 2
ENDMDL
MODEL 2
REMARK VINA RESULT:      -7.2      3.006      4.798
REMARK  2 active torsions:
REMARK  status: ('A' for Active; 'I' for Inactive)
REMARK       I    between atoms: C2_2  and  N1_4 
REMARK    1  A    between atoms: N1_4  and  C3_5 
REMARK    2  A    between atoms: C13_18  and  O2_19 
ROOT
HETATM    1  C3  UNL     1      24.500   3.683  51.348  1.00  0.00     0.023 A 
HETATM    2  C4  UNL     1      23.345   4.372  51.633  1.00  0.00     0.018 A 
HETATM    3  C5  UNL     1      22.914   4.298  50.367  1.00  0.00     0.077 A 
HETATM    4  C6  UNL     1      21.901   5.291  50.394  1.00  0.00     0.170 A 
HETATM    5  N2  UNL     1      20.915   5.953  49.705  1.00  0.00    -0.247 NA
HETATM    6  C7  UNL     1      20.716   5.598  48.390  1.00  0.00     0.225 A 
HETATM    7  N3  UNL     1      21.648   4.626  48.164  1.00  0.00    -0.266 NA
HETATM    8  C8  UNL     1      22.468   4.237  49.123  1.00  0.00     0.124 A 
HETATM    9  C9  UNL     1      23.647   3.522  48.805  1.00  0.00     0.049 A 
HETATM   10  C10 UNL     1      24.161   3.551  50.054  1.00  0.00     0.046 A 
HETATM   11  C11 UNL     1      25.552   3.423  49.463  1.00  0.00     0.018 C 
HETATM   12  C12 UNL     1      26.315   4.539  49.313  1.00  0.00     0.064 C 
HETATM   13 CL1  UNL     1      27.950   4.632  48.654  1.00  0.00    -0.082 Cl
HETATM   14  C13 UNL     1      26.064   6.010  49.650  1.00  0.00     0.087 C 
HETATM   15  C14 UNL     1      25.105   6.784  50.172  1.00  0.00     0.039 C 
HETATM   16  C15 UNL     1      24.095   7.748  50.748  1.00  0.00     0.020 C 
HETATM   17  C16 UNL     1      22.893   7.318  51.188  1.00  0.00     0.085 C 
HETATM   18  N4  UNL     1      21.857   6.325  51.470  1.00  0.00    -0.369 N 
HETATM   19  H13 UNL     1      21.274   6.444  52.311  1.00  0.00     0.161 HD
ENDROOT
BRANCH   1  20
HETATM   20  N1  UNL     1      25.594   3.259  52.114  1.00  0.00    -0.330 N 
HETATM   21  C2  UNL     1      25.087   2.101  52.784  1.00  0.00     0.217 C 
HETATM   22  C1  UNL     1      25.792   1.189  53.765  1.00  0.00     0.117 C 
HETATM   23  O1  UNL     1      23.904   1.771  52.551  1.00  0.00    -0.274 OA
HETATM   24  H4  UNL     1      26.577   3.472  52.353  1.00  0.00     0.168 HD
ENDBRANCH   1  20
BRANCH  14  25
HETATM   25  O2  UNL     1      26.792   7.150  49.523  1.00  0.00    -0.359 OA
HETATM   26  H9  UNL     1      27.273   7.658  50.257  1.00  0.00     0.217 HD
ENDBRANCH  14  25
TORSDOF 2
ENDMDL
MODEL 3
REMARK VINA RESULT:      -7.2      3.459      5.271
REMARK  2 active torsions:
REMARK  status: ('A' for Active; 'I' for Inactive)
REMARK       I    between atoms: C2_2  and  N1_4 
REMARK    1  A    between atoms: N1_4  and  C3_5 
REMARK    2  A    between atoms: C13_18  and  O2_19 
ROOT
HETATM    1  C3  UNL     1      25.514   4.732  49.547  1.00  0.00     0.023 A 
HETATM    2  C4  UNL     1      25.508   3.726  50.484  1.00  0.00     0.018 A 
HETATM    3  C5  UNL     1      24.405   3.167  49.969  1.00  0.00     0.077 A 
HETATM    4  C6  UNL     1      24.034   2.322  51.046  1.00  0.00     0.170 A 
HETATM    5  N2  UNL     1      23.154   1.383  51.525  1.00  0.00    -0.247 NA
HETATM    6  C7  UNL     1      22.121   1.005  50.699  1.00  0.00     0.225 A 
HETATM    7  N3  UNL     1      22.305   1.754  49.573  1.00  0.00    -0.266 NA
HETATM    8  C8  UNL     1      23.318   2.598  49.478  1.00  0.00     0.124 A 
HETATM    9  C9  UNL     1      23.304   3.620  48.499  1.00  0.00     0.049 A 
HETATM   10  C10 UNL     1      24.408   4.252  48.951  1.00  0.00     0.046 A 
HETATM   11  C11 UNL     1      23.893   5.543  48.347  1.00  0.00     0.018 C 
HETATM   12  C12 UNL     1      23.262   6.446  49.145  1.00  0.00     0.064 C 
HETATM   13 CL1  UNL     1      22.585   8.003  48.665  1.00  0.00    -0.082 Cl
HETATM   14  C13 UNL     1      22.948   6.452  50.642  1.00  0.00     0.087 C 
HETATM   15  C14 UNL     1      23.115   5.676  51.719  1.00  0.00     0.039 C 
HETATM   16  C15 UNL     1      23.252   4.883  52.997  1.00  0.00     0.020 C 
HETATM   17  C16 UNL     1      23.863   3.679  53.009  1.00  0.00     0.085 C 
HETATM   18  N4  UNL     1      24.568   2.539  52.423  1.00  0.00    -0.369 N 
HETATM   19  H13 UNL     1      25.292   2.066  52.982  1.00  0.00     0.161 HD
ENDROOT
BRANCH   1  20
HETATM   20  N1  UNL     1      26.359   5.820  49.292  1.00  0.00    -0.330 N 
HETATM   21  C2  UNL     1      27.536   5.197  48.770  1.00  0.00     0.217 C 
HETATM   22  C1  UNL     1      28.824   5.843  48.305  1.00  0.00     0.117 C 
HETATM   23  O1  UNL     1      27.534   3.951  48.672  1.00  0.00    -0.274 OA
HETATM   24  H4  UNL     1      26.431   6.851  49.345  1.00  0.00     0.168 HD
ENDBRANCH   1  20
BRANCH  14  25
HETATM   25  O2  UNL     1      22.329   7.327  51.477  1.00  0.00    -0.359 OA
HETATM   26  H9  UNL     1      22.763   8.038  52.055  1.00  0.00     0.217 HD
ENDBRANCH  14  25
TORSDOF 2
ENDMDL
MODEL 4
REMARK VINA RESULT:      -7.2      7.265      9.418
REMARK  2 active torsions:
REMARK  status: ('A' for Active; 'I' for Inactive)
REMARK       I    between atoms: C2_2  and  N1_4 
REMARK    1  A    between atoms: N1_4  and  C3_5 
REMARK    2  A    between atoms: C13_18  and  O2_19 
ROOT
HETATM    1  C3  UNL     1      27.655   8.223  46.792  1.00  0.00     0.023 A 
HETATM    2  C4  UNL     1      29.011   8.340  46.593  1.00  0.00     0.018 A 
HETATM    3  C5  UNL     1      29.271   7.217  47.276  1.00  0.00     0.077 A 
HETATM    4  C6  UNL     1      30.663   7.382  47.496  1.00  0.00     0.170 A 
HETATM    5  N2  UNL     1      31.817   6.859  48.023  1.00  0.00    -0.247 NA
HETATM    6  C7  UNL     1      31.728   5.638  48.652  1.00  0.00     0.225 A 
HETATM    7  N3  UNL     1      30.406   5.310  48.556  1.00  0.00    -0.266 NA
HETATM    8  C8  UNL     1      29.552   6.112  47.945  1.00  0.00     0.124 A 
HETATM    9  C9  UNL     1      28.161   5.967  48.161  1.00  0.00     0.049 A 
HETATM   10  C10 UNL     1      27.806   7.086  47.492  1.00  0.00     0.046 A 
HETATM   11  C11 UNL     1      26.548   7.167  48.336  1.00  0.00     0.018 C 
HETATM   12  C12 UNL     1      26.518   8.007  49.406  1.00  0.00     0.064 C 
HETATM   13 CL1  UNL     1      25.175   8.264  50.521  1.00  0.00    -0.082 Cl
HETATM   14  C13 UNL     1      27.551   8.977  49.980  1.00  0.00     0.087 C 
HETATM   15  C14 UNL     1      28.801   9.392  49.740  1.00  0.00     0.039 C 
HETATM   16  C15 UNL     1      30.200   9.932  49.559  1.00  0.00     0.020 C 
HETATM   17  C16 UNL     1      30.986   9.506  48.548  1.00  0.00     0.085 C 
HETATM   18  N4  UNL     1      31.318   8.717  47.361  1.00  0.00    -0.369 N 
HETATM   19  H13 UNL     1      31.909   9.144  46.633  1.00  0.00     0.161 HD
ENDROOT
BRANCH   1  20
HETATM   20  N1  UNL     1      26.545   8.981  46.396  1.00  0.00    -0.330 N 
HETATM   21  C2  UNL     1      26.535   8.817  44.976  1.00  0.00     0.217 C 
HETATM   22  C1  UNL     1      25.572   9.397  43.961  1.00  0.00     0.117 C 
HETATM   23  O1  UNL     1      27.430   8.106  44.470  1.00  0.00    -0.274 OA
HETATM   24  H4  UNL     1      25.777   9.580  46.744  1.00  0.00     0.168 HD
ENDBRANCH   1  20
BRANCH  14  25
HETATM   25  O2  UNL     1      27.564   9.833  51.035  1.00  0.00    -0.359 OA
HETATM   26  H9  UNL     1      27.515   9.598  52.020  1.00  0.00     0.217 HD
ENDBRANCH  14  25
TORSDOF 2
ENDMDL
MODEL 5
REMARK VINA RESULT:      -7.2      2.470      5.061
REMARK  2 active torsions:
REMARK  status: ('A' for Active; 'I' for Inactive)
REMARK       I    between atoms: C2_2  and  N1_4 
REMARK    1  A    between atoms: N1_4  and  C3_5 
REMARK    2  A    between atoms: C13_18  and  O2_19 
ROOT
HETATM    1  C3  UNL     1      22.751   4.083  51.028  1.00  0.00     0.023 A 
HETATM    2  C4  UNL     1      22.840   3.336  52.178  1.00  0.00     0.018 A 
HETATM    3  C5  UNL     1      23.985   2.759  51.790  1.00  0.00     0.077 A 
HETATM    4  C6  UNL     1      24.030   1.670  52.697  1.00  0.00     0.170 A 
HETATM    5  N2  UNL     1      24.717   0.568  53.144  1.00  0.00    -0.247 NA
HETATM    6  C7  UNL     1      25.907   0.269  52.521  1.00  0.00     0.225 A 
HETATM    7  N3  UNL     1      26.033   1.237  51.565  1.00  0.00    -0.266 NA
HETATM    8  C8  UNL     1      25.115   2.177  51.428  1.00  0.00     0.124 A 
HETATM    9  C9  UNL     1      25.049   2.938  50.236  1.00  0.00     0.049 A 
HETATM   10  C10 UNL     1      23.894   3.566  50.544  1.00  0.00     0.046 A 
HETATM   11  C11 UNL     1      23.621   3.747  49.064  1.00  0.00     0.018 C 
HETATM   12  C12 UNL     1      22.779   2.884  48.433  1.00  0.00     0.064 C 
HETATM   13 CL1  UNL     1      22.317   2.899  46.730  1.00  0.00    -0.082 Cl
HETATM   14  C13 UNL     1      21.971   1.685  48.934  1.00  0.00     0.087 C 
HETATM   15  C14 UNL     1      21.749   1.011  50.068  1.00  0.00     0.039 C 
HETATM   16  C15 UNL     1      21.426   0.181  51.288  1.00  0.00     0.020 C 
HETATM   17  C16 UNL     1      21.972   0.467  52.490  1.00  0.00     0.085 C 
HETATM   18  N4  UNL     1      22.809   1.217  53.427  1.00  0.00    -0.369 N 
HETATM   19  H13 UNL     1      22.480   1.337  54.396  1.00  0.00     0.161 HD
ENDROOT
BRANCH   1  20
HETATM   20  N1  UNL     1      21.838   5.035  50.553  1.00  0.00    -0.330 N 
HETATM   21  C2  UNL     1      22.446   6.275  50.924  1.00  0.00     0.217 C 
HETATM   22  C1  UNL     1      21.943   7.684  50.692  1.00  0.00     0.117 C 
HETATM   23  O1  UNL     1      23.541   6.225  51.524  1.00  0.00    -0.274 OA
HETATM   24  H4  UNL     1      20.936   5.152  50.061  1.00  0.00     0.168 HD
ENDBRANCH   1  20
BRANCH  14  25
HETATM   25  O2  UNL     1      21.120   0.803  48.347  1.00  0.00    -0.359 OA
HETATM   26  H9  UNL     1      21.184  -0.208  48.347  1.00  0.00     0.217 HD
ENDBRANCH  14  25
TORSDOF 2
ENDMDL
MODEL 6
REMARK VINA RESULT:      -7.1      2.862      5.555
REMARK  2 active torsions:
REMARK  status: ('A' for Active; 'I' for Inactive)
REMARK       I    between atoms: C2_2  and  N1_4 
REMARK    1  A    between atoms: N1_4  and  C3_5 
REMARK    2  A    between atoms: C13_18  and  O2_19 
ROOT
HETATM    1  C3  UNL     1      22.384   2.597  50.018  1.00  0.00     0.023 A 
HETATM    2  C4  UNL     1      22.887   1.489  50.658  1.00  0.00     0.018 A 
HETATM    3  C5  UNL     1      21.895   1.481  51.559  1.00  0.00     0.077 A 
HETATM    4  C6  UNL     1      22.458   0.621  52.536  1.00  0.00     0.170 A 
HETATM    5  N2  UNL     1      22.297  -0.018  53.740  1.00  0.00    -0.247 NA
HETATM    6  C7  UNL     1      21.109   0.179  54.407  1.00  0.00     0.225 A 
HETATM    7  N3  UNL     1      20.412   1.029  53.598  1.00  0.00    -0.266 NA
HETATM    8  C8  UNL     1      20.925   1.454  52.457  1.00  0.00     0.124 A 
HETATM    9  C9  UNL     1      20.385   2.592  51.813  1.00  0.00     0.049 A 
HETATM   10  C10 UNL     1      21.346   2.679  50.869  1.00  0.00     0.046 A 
HETATM   11  C11 UNL     1      21.067   4.165  50.749  1.00  0.00     0.018 C 
HETATM   12  C12 UNL     1      21.873   5.047  51.400  1.00  0.00     0.064 C 
HETATM   13 CL1  UNL     1      21.740   6.807  51.406  1.00  0.00    -0.082 Cl
HETATM   14  C13 UNL     1      23.107   4.854  52.283  1.00  0.00     0.087 C 
HETATM   15  C14 UNL     1      23.864   3.864  52.770  1.00  0.00     0.039 C 
HETATM   16  C15 UNL     1      24.784   2.827  53.370  1.00  0.00     0.020 C 
HETATM   17  C16 UNL     1      24.595   1.510  53.141  1.00  0.00     0.085 C 
HETATM   18  N4  UNL     1      23.924   0.341  52.572  1.00  0.00    -0.369 N 
HETATM   19  H13 UNL     1      24.496  -0.464  52.283  1.00  0.00     0.161 HD
ENDROOT
BRANCH   1  20
HETATM   20  N1  UNL     1      22.782   3.338  48.898  1.00  0.00    -0.330 N 
HETATM   21  C2  UNL     1      22.040   2.736  47.835  1.00  0.00     0.217 C 
HETATM   22  C1  UNL     1      22.035   3.091  46.362  1.00  0.00     0.117 C 
HETATM   23  O1  UNL     1      21.283   1.785  48.125  1.00  0.00    -0.274 OA
HETATM   24  H4  UNL     1      23.387   4.117  48.585  1.00  0.00     0.168 HD
ENDBRANCH   1  20
BRANCH  14  25
HETATM   25  O2  UNL     1      23.940   5.698  52.945  1.00  0.00    -0.359 OA
HETATM   26  H9  UNL     1      23.964   5.885  53.941  1.00  0.00     0.217 HD
ENDBRANCH  14  25
TORSDOF 2
ENDMDL
MODEL 7
REMARK VINA RESULT:      -6.7      9.143     10.900
REMARK  2 active torsions:
REMARK  status: ('A' for Active; 'I' for Inactive)
REMARK       I    between atoms: C2_2  and  N1_4 
REMARK    1  A    between atoms: N1_4  and  C3_5 
REMARK    2  A    between atoms: C13_18  and  O2_19 
ROOT
HETATM    1  C3  UNL     1      31.087   9.139  47.705  1.00  0.00     0.023 A 
HETATM    2  C4  UNL     1      32.361   8.640  47.569  1.00  0.00     0.018 A 
HETATM    3  C5  UNL     1      32.094   8.112  46.367  1.00  0.00     0.077 A 
HETATM    4  C6  UNL     1      33.195   7.228  46.237  1.00  0.00     0.170 A 
HETATM    5  N2  UNL     1      33.849   6.306  45.458  1.00  0.00    -0.247 NA
HETATM    6  C7  UNL     1      33.297   6.009  44.232  1.00  0.00     0.225 A 
HETATM    7  N3  UNL     1      32.173   6.782  44.179  1.00  0.00    -0.266 NA
HETATM    8  C8  UNL     1      31.853   7.585  45.179  1.00  0.00     0.124 A 
HETATM    9  C9  UNL     1      30.537   8.092  45.292  1.00  0.00     0.049 A 
HETATM   10  C10 UNL     1      30.715   8.652  46.508  1.00  0.00     0.046 A 
HETATM   11  C11 UNL     1      29.227   8.516  46.767  1.00  0.00     0.018 C 
HETATM   12  C12 UNL     1      28.774   7.470  47.509  1.00  0.00     0.064 C 
HETATM   13 CL1  UNL     1      27.099   7.111  47.935  1.00  0.00    -0.082 Cl
HETATM   14  C13 UNL     1      29.496   6.317  48.209  1.00  0.00     0.087 C 
HETATM   15  C14 UNL     1      30.739   5.856  48.390  1.00  0.00     0.039 C 
HETATM   16  C15 UNL     1      32.096   5.250  48.657  1.00  0.00     0.020 C 
HETATM   17  C16 UNL     1      33.221   5.814  48.167  1.00  0.00     0.085 C 
HETATM   18  N4  UNL     1      33.997   6.808  47.425  1.00  0.00    -0.369 N 
HETATM   19  H13 UNL     1      34.923   7.080  47.784  1.00  0.00     0.161 HD
ENDROOT
BRANCH   1  20
HETATM   20  N1  UNL     1      30.435   9.887  48.694  1.00  0.00    -0.330 N 
HETATM   21  C2  UNL     1      30.876  11.221  48.429  1.00  0.00     0.217 C 
HETATM   22  C1  UNL     1      30.523  12.499  49.160  1.00  0.00     0.117 C 
HETATM   23  O1  UNL     1      31.661  11.390  47.471  1.00  0.00    -0.274 OA
HETATM   24  H4  UNL     1      29.788   9.822  49.499  1.00  0.00     0.168 HD
ENDBRANCH   1  20
BRANCH  14  25
HETATM   25  O2  UNL     1      29.089   5.260  48.960  1.00  0.00    -0.359 OA
HETATM   26  H9  UNL     1      28.137   4.965  49.144  1.00  0.00     0.217 HD
ENDBRANCH  14  25
TORSDOF 2
ENDMDL
MODEL 8
REMARK VINA RESULT:      -6.7      8.772     10.541
REMARK  2 active torsions:
REMARK  status: ('A' for Active; 'I' for Inactive)
REMARK       I    between atoms: C2_2  and  N1_4 
REMARK    1  A    between atoms: N1_4  and  C3_5 
REMARK    2  A    between atoms: C13_18  and  O2_19 
ROOT
HETATM    1  C3  UNL     1      30.048   6.265  47.902  1.00  0.00     0.023 A 
HETATM    2  C4  UNL     1      30.753   5.185  47.424  1.00  0.00     0.018 A 
HETATM    3  C5  UNL     1      31.845   5.504  48.131  1.00  0.00     0.077 A 
HETATM    4  C6  UNL     1      32.809   4.702  47.469  1.00  0.00     0.170 A 
HETATM    5  N2  UNL     1      34.117   4.290  47.402  1.00  0.00    -0.247 NA
HETATM    6  C7  UNL     1      34.993   4.812  48.326  1.00  0.00     0.225 A 
HETATM    7  N3  UNL     1      34.222   5.656  49.073  1.00  0.00    -0.266 NA
HETATM    8  C8  UNL     1      32.934   5.800  48.820  1.00  0.00     0.124 A 
HETATM    9  C9  UNL     1      32.229   6.917  49.330  1.00  0.00     0.049 A 
HETATM   10  C10 UNL     1      31.087   6.673  48.652  1.00  0.00     0.046 A 
HETATM   11  C11 UNL     1      30.754   8.151  48.720  1.00  0.00     0.018 C 
HETATM   12  C12 UNL     1      31.017   8.942  47.645  1.00  0.00     0.064 C 
HETATM   13 CL1  UNL     1      30.718  10.675  47.499  1.00  0.00    -0.082 Cl
HETATM   14  C13 UNL     1      31.607   8.640  46.267  1.00  0.00     0.087 C 
HETATM   15  C14 UNL     1      32.082   7.602  45.569  1.00  0.00     0.039 C 
HETATM   16  C15 UNL     1      32.637   6.503  44.694  1.00  0.00     0.020 C 
HETATM   17  C16 UNL     1      32.716   5.231  45.137  1.00  0.00     0.085 C 
HETATM   18  N4  UNL     1      32.553   4.147  46.107  1.00  0.00    -0.369 N 
HETATM   19  H13 UNL     1      32.297   3.210  45.763  1.00  0.00     0.161 HD
ENDROOT
BRANCH   1  20
HETATM   20  N1  UNL     1      28.746   6.741  47.705  1.00  0.00    -0.330 N 
HETATM   21  C2  UNL     1      27.946   5.786  48.406  1.00  0.00     0.217 C 
HETATM   22  C1  UNL     1      26.440   5.744  48.565  1.00  0.00     0.117 C 
HETATM   23  O1  UNL     1      28.537   4.844  48.975  1.00  0.00    -0.274 OA
HETATM   24  H4  UNL     1      28.191   7.491  47.259  1.00  0.00     0.168 HD
ENDBRANCH   1  20
BRANCH  14  25
HETATM   25  O2  UNL     1      31.881   9.391  45.168  1.00  0.00    -0.359 OA
HETATM   26  H9  UNL     1      31.246   9.642  44.419  1.00  0.00     0.217 HD
ENDBRANCH  14  25
TORSDOF 2
ENDMDL
MODEL 9
REMARK VINA RESULT:      -6.6      2.799      3.630
REMARK  2 active torsions:
REMARK  status: ('A' for Active; 'I' for Inactive)
REMARK       I    between atoms: C2_2  and  N1_4 
REMARK    1  A    between atoms: N1_4  and  C3_5 
REMARK    2  A    between atoms: C13_18  and  O2_19 
ROOT
HETATM    1  C3  UNL     1      21.748   1.257  51.984  1.00  0.00     0.023 A 
HETATM    2  C4  UNL     1      22.966   1.802  51.654  1.00  0.00     0.018 A 
HETATM    3  C5  UNL     1      22.526   3.054  51.838  1.00  0.00     0.077 A 
HETATM    4  C6  UNL     1      23.552   3.774  51.174  1.00  0.00     0.170 A 
HETATM    5  N2  UNL     1      24.053   5.001  50.814  1.00  0.00    -0.247 NA
HETATM    6  C7  UNL     1      23.341   6.113  51.201  1.00  0.00     0.225 A 
HETATM    7  N3  UNL     1      22.264   5.602  51.866  1.00  0.00    -0.266 NA
HETATM    8  C8  UNL     1      22.114   4.298  52.014  1.00  0.00     0.124 A 
HETATM    9  C9  UNL     1      20.851   3.761  52.362  1.00  0.00     0.049 A 
HETATM   10  C10 UNL     1      21.207   2.469  52.198  1.00  0.00     0.046 A 
HETATM   11  C11 UNL     1      19.756   2.126  51.921  1.00  0.00     0.018 C 
HETATM   12  C12 UNL     1      19.338   1.992  50.633  1.00  0.00     0.064 C 
HETATM   13 CL1  UNL     1      17.710   1.600  50.075  1.00  0.00    -0.082 Cl
HETATM   14  C13 UNL     1      20.074   2.105  49.297  1.00  0.00     0.087 C 
HETATM   15  C14 UNL     1      21.302   2.361  48.830  1.00  0.00     0.039 C 
HETATM   16  C15 UNL     1      22.646   2.635  48.197  1.00  0.00     0.020 C 
HETATM   17  C16 UNL     1      23.732   2.900  48.954  1.00  0.00     0.085 C 
HETATM   18  N4  UNL     1      24.467   3.104  50.203  1.00  0.00    -0.369 N 
HETATM   19  H13 UNL     1      25.443   2.782  50.259  1.00  0.00     0.161 HD
ENDROOT
BRANCH   1  20
HETATM   20  N1  UNL     1      21.264  -0.054  52.086  1.00  0.00    -0.330 N 
HETATM   21  C2  UNL     1      21.645  -0.434  53.411  1.00  0.00     0.217 C 
HETATM   22  C1  UNL     1      21.409  -1.749  54.125  1.00  0.00     0.117 C 
HETATM   23  O1  UNL     1      22.259   0.408  54.100  1.00  0.00    -0.274 OA
HETATM   24  H4  UNL     1      20.761  -0.799  51.575  1.00  0.00     0.168 HD
ENDBRANCH   1  20
BRANCH  14  25
HETATM   25  O2  UNL     1      19.703   1.976  47.996  1.00  0.00    -0.359 OA
HETATM   26  H9  UNL     1      20.041   1.297  47.324  1.00  0.00     0.217 HD
ENDBRANCH  14  25
TORSDOF 2
ENDMDL
