MODEL 1
REMARK VINA RESULT:      -9.1      0.000      0.000
REMARK  5 active torsions:
REMARK  status: ('A' for Active; 'I' for Inactive)
REMARK    1  A    between atoms: C8_10  and  N2_11 
REMARK    2  A    between atoms: N2_11  and  C9_12 
REMARK    3  A    between atoms: C9_12  and  C10_13 
REMARK    4  A    between atoms: C11_14  and  N3_15 
REMARK    5  A    between atoms: N3_15  and  C12_16 
ROOT
HETATM    1  N2  UNL     1      24.278   3.420  53.071  1.00  0.00    -0.386 N 
HETATM    2  H10 UNL     1      24.310   3.950  53.970  1.00  0.00     0.160 HD
ENDROOT
BRANCH   1   3
HETATM    3  C8  UNL     1      25.108   2.252  53.075  1.00  0.00     0.029 A 
HETATM    4  C7  UNL     1      24.597   0.970  52.972  1.00  0.00     0.031 A 
HETATM    5  C6  UNL     1      25.327  -0.198  52.970  1.00  0.00     0.032 A 
HETATM    6  C5  UNL     1      26.680  -0.100  53.078  1.00  0.00     0.042 A 
HETATM    7  N1  UNL     1      27.319  -1.369  53.063  1.00  0.00    -0.389 N 
HETATM    8  C20 UNL     1      27.285   1.134  53.184  1.00  0.00     0.038 A 
HETATM    9  C4  UNL     1      28.717  -1.665  53.279  1.00  0.00     0.120 C 
HETATM   10  H7  UNL     1      26.704  -2.170  52.875  1.00  0.00     0.159 HD
HETATM   11  C3  UNL     1      29.252  -0.702  54.310  1.00  0.00     0.027 C 
HETATM   12  C2  UNL     1      29.775   0.543  53.648  1.00  0.00     0.085 C 
HETATM   13  C1  UNL     1      28.693   1.495  53.309  1.00  0.00     0.162 C 
HETATM   14  O1  UNL     1      29.015   2.691  53.119  1.00  0.00    -0.292 OA
HETATM   15  C19 UNL     1      26.489   2.256  53.180  1.00  0.00     0.046 A 
ENDBRANCH   1   3
BRANCH   1  16
HETATM   16  C9  UNL     1      23.579   3.613  51.820  1.00  0.00     0.158 C 
BRANCH  16  17
HETATM   17  C10 UNL     1      23.470   5.008  51.372  1.00  0.00    -0.018 A 
HETATM   18  C11 UNL     1      24.305   5.835  50.764  1.00  0.00     0.036 A 
HETATM   19  C16 UNL     1      23.866   7.189  50.447  1.00  0.00     0.046 A 
HETATM   20  C17 UNL     1      22.683   7.690  50.715  1.00  0.00     0.085 A 
HETATM   21  N5  UNL     1      21.804   6.808  51.361  1.00  0.00    -0.395 N 
HETATM   22  C18 UNL     1      22.078   5.443  51.752  1.00  0.00     0.157 A 
HETATM   23  H20 UNL     1      20.829   7.084  51.623  1.00  0.00     0.159 HD
BRANCH  18  24
HETATM   24  N3  UNL     1      25.633   5.535  50.364  1.00  0.00    -0.364 N 
HETATM   25  H13 UNL     1      26.027   5.476  51.345  1.00  0.00     0.162 HD
BRANCH  24  26
HETATM   26  C12 UNL     1      26.053   5.405  48.956  1.00  0.00     0.229 A 
HETATM   27  C13 UNL     1      27.198   4.461  48.958  1.00  0.00     0.022 A 
HETATM   28  C14 UNL     1      28.286   5.090  48.529  1.00  0.00     0.019 A 
HETATM   29  C15 UNL     1      27.892   6.473  48.228  1.00  0.00     0.113 A 
HETATM   30  N4  UNL     1      26.636   6.619  48.478  1.00  0.00    -0.272 NA
ENDBRANCH  24  26
ENDBRANCH  18  24
ENDBRANCH  16  17
ENDBRANCH   1  16
TORSDOF 5
ENDMDL
MODEL 2
REMARK VINA RESULT:      -9.0      3.862      7.574
REMARK  5 active torsions:
REMARK  status: ('A' for Active; 'I' for Inactive)
REMARK    1  A    between atoms: C8_10  and  N2_11 
REMARK    2  A    between atoms: N2_11  and  C9_12 
REMARK    3  A    between atoms: C9_12  and  C10_13 
REMARK    4  A    between atoms: C11_14  and  N3_15 
REMARK    5  A    between atoms: N3_15  and  C12_16 
ROOT
HETATM    1  N2  UNL     1      24.590  -0.713  54.351  1.00  0.00    -0.386 N 
HETATM    2  H10 UNL     1      24.819  -0.550  55.356  1.00  0.00     0.160 HD
ENDROOT
BRANCH   1   3
HETATM    3  C8  UNL     1      23.183  -0.699  54.083  1.00  0.00     0.029 A 
HETATM    4  C7  UNL     1      22.299  -1.587  54.672  1.00  0.00     0.031 A 
HETATM    5  C6  UNL     1      20.939  -1.637  54.466  1.00  0.00     0.032 A 
HETATM    6  C5  UNL     1      20.395  -0.735  53.604  1.00  0.00     0.042 A 
HETATM    7  N1  UNL     1      18.988  -0.887  53.475  1.00  0.00    -0.389 N 
HETATM    8  C20 UNL     1      21.192   0.191  52.967  1.00  0.00     0.038 A 
HETATM    9  C4  UNL     1      18.097  -0.200  52.568  1.00  0.00     0.120 C 
HETATM   10  H7  UNL     1      18.559  -1.572  54.109  1.00  0.00     0.159 HD
HETATM   11  C3  UNL     1      18.828   0.028  51.267  1.00  0.00     0.027 C 
HETATM   12  C2  UNL     1      19.562   1.340  51.298  1.00  0.00     0.085 C 
HETATM   13  C1  UNL     1      20.854   1.244  52.015  1.00  0.00     0.162 C 
HETATM   14  O1  UNL     1      21.710   2.129  51.784  1.00  0.00    -0.292 OA
HETATM   15  C19 UNL     1      22.544   0.179  53.223  1.00  0.00     0.046 A 
ENDBRANCH   1   3
BRANCH   1  16
HETATM   16  C9  UNL     1      25.389  -0.954  53.170  1.00  0.00     0.158 C 
BRANCH  16  17
HETATM   17  C10 UNL     1      26.842  -0.962  53.388  1.00  0.00    -0.018 A 
HETATM   18  C11 UNL     1      27.687  -0.091  53.915  1.00  0.00     0.036 A 
HETATM   19  C16 UNL     1      29.105  -0.425  53.987  1.00  0.00     0.046 A 
HETATM   20  C17 UNL     1      29.648  -1.543  53.567  1.00  0.00     0.085 A 
HETATM   21  N5  UNL     1      28.746  -2.461  53.009  1.00  0.00    -0.395 N 
HETATM   22  C18 UNL     1      27.319  -2.288  52.854  1.00  0.00     0.157 A 
HETATM   23  H20 UNL     1      29.053  -3.393  52.643  1.00  0.00     0.159 HD
BRANCH  18  24
HETATM   24  N3  UNL     1      27.351   1.182  54.444  1.00  0.00    -0.364 N 
HETATM   25  H13 UNL     1      27.315   0.868  55.456  1.00  0.00     0.162 HD
BRANCH  24  26
HETATM   26  C12 UNL     1      27.171   2.390  53.618  1.00  0.00     0.229 A 
HETATM   27  C13 UNL     1      25.705   2.583  53.493  1.00  0.00     0.022 A 
HETATM   28  C14 UNL     1      25.355   2.469  52.217  1.00  0.00     0.019 A 
HETATM   29  C15 UNL     1      26.583   2.198  51.458  1.00  0.00     0.113 A 
HETATM   30  N4  UNL     1      27.583   2.159  52.269  1.00  0.00    -0.272 NA
ENDBRANCH  24  26
ENDBRANCH  18  24
ENDBRANCH  16  17
ENDBRANCH   1  16
TORSDOF 5
ENDMDL
MODEL 3
REMARK VINA RESULT:      -8.8      2.274      7.487
REMARK  5 active torsions:
REMARK  status: ('A' for Active; 'I' for Inactive)
REMARK    1  A    between atoms: C8_10  and  N2_11 
REMARK    2  A    between atoms: N2_11  and  C9_12 
REMARK    3  A    between atoms: C9_12  and  C10_13 
REMARK    4  A    between atoms: C11_14  and  N3_15 
REMARK    5  A    between atoms: N3_15  and  C12_16 
ROOT
HETATM    1  N2  UNL     1      26.287   3.035  49.604  1.00  0.00    -0.386 N 
HETATM    2  H10 UNL     1      25.897   2.416  48.859  1.00  0.00     0.160 HD
ENDROOT
BRANCH   1   3
HETATM    3  C8  UNL     1      26.601   4.352  49.135  1.00  0.00     0.029 A 
HETATM    4  C7  UNL     1      25.663   5.367  49.066  1.00  0.00     0.031 A 
HETATM    5  C6  UNL     1      25.886   6.653  48.628  1.00  0.00     0.032 A 
HETATM    6  C5  UNL     1      27.145   6.974  48.220  1.00  0.00     0.042 A 
HETATM    7  N1  UNL     1      27.249   8.325  47.793  1.00  0.00    -0.389 N 
HETATM    8  C20 UNL     1      28.151   6.032  48.251  1.00  0.00     0.038 A 
HETATM    9  C4  UNL     1      28.383   8.981  47.183  1.00  0.00     0.120 C 
HETATM   10  H7  UNL     1      26.410   8.899  47.938  1.00  0.00     0.159 HD
HETATM   11  C3  UNL     1      29.089   7.983  46.298  1.00  0.00     0.027 C 
HETATM   12  C2  UNL     1      30.135   7.234  47.077  1.00  0.00     0.085 C 
HETATM   13  C1  UNL     1      29.556   6.128  47.874  1.00  0.00     0.162 C 
HETATM   14  O1  UNL     1      30.332   5.217  48.245  1.00  0.00    -0.292 OA
HETATM   15  C19 UNL     1      27.850   4.767  48.701  1.00  0.00     0.046 A 
ENDBRANCH   1   3
BRANCH   1  16
HETATM   16  C9  UNL     1      26.580   2.849  51.007  1.00  0.00     0.158 C 
BRANCH  16  17
HETATM   17  C10 UNL     1      25.622   2.010  51.741  1.00  0.00    -0.018 A 
HETATM   18  C11 UNL     1      25.696   0.803  52.278  1.00  0.00     0.036 A 
HETATM   19  C16 UNL     1      24.531   0.253  52.961  1.00  0.00     0.046 A 
HETATM   20  C17 UNL     1      23.373   0.853  53.100  1.00  0.00     0.085 A 
HETATM   21  N5  UNL     1      23.302   2.132  52.527  1.00  0.00    -0.395 N 
HETATM   22  C18 UNL     1      24.354   2.821  51.813  1.00  0.00     0.157 A 
HETATM   23  H20 UNL     1      22.436   2.718  52.575  1.00  0.00     0.159 HD
BRANCH  18  24
HETATM   24  N3  UNL     1      26.832  -0.046  52.269  1.00  0.00    -0.364 N 
HETATM   25  H13 UNL     1      26.881  -0.144  51.215  1.00  0.00     0.162 HD
BRANCH  24  26
HETATM   26  C12 UNL     1      27.528  -0.495  53.489  1.00  0.00     0.229 A 
HETATM   27  C13 UNL     1      28.717   0.383  53.627  1.00  0.00     0.022 A 
HETATM   28  C14 UNL     1      29.818  -0.352  53.532  1.00  0.00     0.019 A 
HETATM   29  C15 UNL     1      29.390  -1.743  53.329  1.00  0.00     0.113 A 
HETATM   30  N4  UNL     1      28.102  -1.791  53.309  1.00  0.00    -0.272 NA
ENDBRANCH  24  26
ENDBRANCH  18  24
ENDBRANCH  16  17
ENDBRANCH   1  16
TORSDOF 5
ENDMDL
MODEL 4
REMARK VINA RESULT:      -8.8      4.031      6.912
REMARK  5 active torsions:
REMARK  status: ('A' for Active; 'I' for Inactive)
REMARK    1  A    between atoms: C8_10  and  N2_11 
REMARK    2  A    between atoms: N2_11  and  C9_12 
REMARK    3  A    between atoms: C9_12  and  C10_13 
REMARK    4  A    between atoms: C11_14  and  N3_15 
REMARK    5  A    between atoms: N3_15  and  C12_16 
ROOT
HETATM    1  N2  UNL     1      24.017   1.383  53.232  1.00  0.00    -0.386 N 
HETATM    2  H10 UNL     1      23.974   2.420  53.333  1.00  0.00     0.160 HD
ENDROOT
BRANCH   1   3
HETATM    3  C8  UNL     1      22.734   0.753  53.327  1.00  0.00     0.029 A 
HETATM    4  C7  UNL     1      22.523  -0.413  54.043  1.00  0.00     0.031 A 
HETATM    5  C6  UNL     1      21.324  -1.076  54.180  1.00  0.00     0.032 A 
HETATM    6  C5  UNL     1      20.233  -0.551  53.558  1.00  0.00     0.042 A 
HETATM    7  N1  UNL     1      19.060  -1.323  53.774  1.00  0.00    -0.389 N 
HETATM    8  C20 UNL     1      20.341   0.609  52.821  1.00  0.00     0.038 A 
HETATM    9  C4  UNL     1      17.756  -1.146  53.177  1.00  0.00     0.120 C 
HETATM   10  H7  UNL     1      19.161  -2.101  54.436  1.00  0.00     0.159 HD
HETATM   11  C3  UNL     1      17.944  -0.667  51.759  1.00  0.00     0.027 C 
HETATM   12  C2  UNL     1      17.999   0.835  51.712  1.00  0.00     0.085 C 
HETATM   13  C1  UNL     1      19.337   1.358  52.074  1.00  0.00     0.162 C 
HETATM   14  O1  UNL     1      19.619   2.524  51.709  1.00  0.00    -0.292 OA
HETATM   15  C19 UNL     1      21.573   1.215  52.729  1.00  0.00     0.046 A 
ENDBRANCH   1   3
BRANCH   1  16
HETATM   16  C9  UNL     1      25.095   0.442  53.021  1.00  0.00     0.158 C 
BRANCH  16  17
HETATM   17  C10 UNL     1      26.441   0.959  53.304  1.00  0.00    -0.018 A 
HETATM   18  C11 UNL     1      27.115   2.018  52.886  1.00  0.00     0.036 A 
HETATM   19  C16 UNL     1      28.466   2.248  53.384  1.00  0.00     0.046 A 
HETATM   20  C17 UNL     1      29.107   1.481  54.234  1.00  0.00     0.085 A 
HETATM   21  N5  UNL     1      28.387   0.360  54.672  1.00  0.00    -0.395 N 
HETATM   22  C18 UNL     1      27.048  -0.019  54.276  1.00  0.00     0.157 A 
HETATM   23  H20 UNL     1      28.784  -0.326  55.356  1.00  0.00     0.159 HD
BRANCH  18  24
HETATM   24  N3  UNL     1      26.645   3.000  51.975  1.00  0.00    -0.364 N 
HETATM   25  H13 UNL     1      26.744   3.817  52.643  1.00  0.00     0.162 HD
BRANCH  24  26
HETATM   26  C12 UNL     1      26.220   2.698  50.596  1.00  0.00     0.229 A 
HETATM   27  C13 UNL     1      26.777   3.784  49.751  1.00  0.00     0.022 A 
HETATM   28  C14 UNL     1      25.780   4.466  49.200  1.00  0.00     0.019 A 
HETATM   29  C15 UNL     1      24.529   3.849  49.663  1.00  0.00     0.113 A 
HETATM   30  N4  UNL     1      24.808   2.862  50.444  1.00  0.00    -0.272 NA
ENDBRANCH  24  26
ENDBRANCH  18  24
ENDBRANCH  16  17
ENDBRANCH   1  16
TORSDOF 5
ENDMDL
MODEL 5
REMARK VINA RESULT:      -8.7      2.104      6.913
REMARK  5 active torsions:
REMARK  status: ('A' for Active; 'I' for Inactive)
REMARK    1  A    between atoms: C8_10  and  N2_11 
REMARK    2  A    between atoms: N2_11  and  C9_12 
REMARK    3  A    between atoms: C9_12  and  C10_13 
REMARK    4  A    between atoms: C11_14  and  N3_15 
REMARK    5  A    between atoms: N3_15  and  C12_16 
ROOT
HETATM    1  N2  UNL     1      22.931   2.417  51.384  1.00  0.00    -0.386 N 
HETATM    2  H10 UNL     1      21.894   2.540  51.371  1.00  0.00     0.160 HD
ENDROOT
BRANCH   1   3
HETATM    3  C8  UNL     1      23.644   3.616  51.058  1.00  0.00     0.029 A 
HETATM    4  C7  UNL     1      23.212   4.873  51.442  1.00  0.00     0.031 A 
HETATM    5  C6  UNL     1      23.839   6.068  51.168  1.00  0.00     0.032 A 
HETATM    6  C5  UNL     1      24.996   6.026  50.452  1.00  0.00     0.042 A 
HETATM    7  N1  UNL     1      25.547   7.318  50.234  1.00  0.00    -0.389 N 
HETATM    8  C20 UNL     1      25.510   4.821  50.024  1.00  0.00     0.038 A 
HETATM    9  C4  UNL     1      26.687   7.675  49.420  1.00  0.00     0.120 C 
HETATM   10  H7  UNL     1      25.069   8.088  50.718  1.00  0.00     0.159 HD
HETATM   11  C3  UNL     1      26.712   6.767  48.215  1.00  0.00     0.027 C 
HETATM   12  C2  UNL     1      27.503   5.523  48.508  1.00  0.00     0.085 C 
HETATM   13  C1  UNL     1      26.713   4.518  49.256  1.00  0.00     0.162 C 
HETATM   14  O1  UNL     1      27.110   3.330  49.223  1.00  0.00    -0.292 OA
HETATM   15  C19 UNL     1      24.826   3.669  50.337  1.00  0.00     0.046 A 
ENDBRANCH   1   3
BRANCH   1  16
HETATM   16  C9  UNL     1      23.802   1.296  51.658  1.00  0.00     0.158 C 
BRANCH  16  17
HETATM   17  C10 UNL     1      23.406   0.459  52.798  1.00  0.00    -0.018 A 
HETATM   18  C11 UNL     1      24.086  -0.252  53.683  1.00  0.00     0.036 A 
HETATM   19  C16 UNL     1      23.364  -0.980  54.721  1.00  0.00     0.046 A 
HETATM   20  C17 UNL     1      22.061  -1.004  54.871  1.00  0.00     0.085 A 
HETATM   21  N5  UNL     1      21.348  -0.248  53.929  1.00  0.00    -0.395 N 
HETATM   22  C18 UNL     1      21.901   0.522  52.837  1.00  0.00     0.157 A 
HETATM   23  H20 UNL     1      20.303  -0.180  53.943  1.00  0.00     0.159 HD
BRANCH  18  24
HETATM   24  N3  UNL     1      25.497  -0.384  53.741  1.00  0.00    -0.364 N 
HETATM   25  H13 UNL     1      25.560  -1.154  53.015  1.00  0.00     0.162 HD
BRANCH  24  26
HETATM   26  C12 UNL     1      26.359   0.424  54.623  1.00  0.00     0.229 A 
HETATM   27  C13 UNL     1      26.901   1.516  53.776  1.00  0.00     0.022 A 
HETATM   28  C14 UNL     1      28.221   1.400  53.702  1.00  0.00     0.019 A 
HETATM   29  C15 UNL     1      28.595   0.225  54.502  1.00  0.00     0.113 A 
HETATM   30  N4  UNL     1      27.531  -0.300  55.005  1.00  0.00    -0.272 NA
ENDBRANCH  24  26
ENDBRANCH  18  24
ENDBRANCH  16  17
ENDBRANCH   1  16
TORSDOF 5
ENDMDL
MODEL 6
REMARK VINA RESULT:      -8.4      3.873      6.186
REMARK  5 active torsions:
REMARK  status: ('A' for Active; 'I' for Inactive)
REMARK    1  A    between atoms: C8_10  and  N2_11 
REMARK    2  A    between atoms: N2_11  and  C9_12 
REMARK    3  A    between atoms: C9_12  and  C10_13 
REMARK    4  A    between atoms: C11_14  and  N3_15 
REMARK    5  A    between atoms: N3_15  and  C12_16 
ROOT
HETATM    1  N2  UNL     1      22.574   0.264  52.218  1.00  0.00    -0.386 N 
HETATM    2  H10 UNL     1      22.410  -0.026  51.229  1.00  0.00     0.160 HD
ENDROOT
BRANCH   1   3
HETATM    3  C8  UNL     1      23.875   0.822  52.434  1.00  0.00     0.029 A 
HETATM    4  C7  UNL     1      24.350   1.912  51.725  1.00  0.00     0.031 A 
HETATM    5  C6  UNL     1      25.585   2.503  51.873  1.00  0.00     0.032 A 
HETATM    6  C5  UNL     1      26.432   1.978  52.801  1.00  0.00     0.042 A 
HETATM    7  N1  UNL     1      27.670   2.672  52.860  1.00  0.00    -0.389 N 
HETATM    8  C20 UNL     1      26.051   0.891  53.559  1.00  0.00     0.038 A 
HETATM    9  C4  UNL     1      28.847   2.330  53.626  1.00  0.00     0.120 C 
HETATM   10  H7  UNL     1      27.728   3.520  52.283  1.00  0.00     0.159 HD
HETATM   11  C3  UNL     1      28.964   0.826  53.671  1.00  0.00     0.027 C 
HETATM   12  C2  UNL     1      28.220   0.274  54.854  1.00  0.00     0.085 C 
HETATM   13  C1  UNL     1      26.765   0.160  54.599  1.00  0.00     0.162 C 
HETATM   14  O1  UNL     1      26.110  -0.620  55.330  1.00  0.00    -0.292 OA
HETATM   15  C19 UNL     1      24.801   0.355  53.353  1.00  0.00     0.046 A 
ENDBRANCH   1   3
BRANCH   1  16
HETATM   16  C9  UNL     1      21.770   0.221  53.420  1.00  0.00     0.158 C 
BRANCH  16  17
HETATM   17  C10 UNL     1      20.396  -0.266  53.236  1.00  0.00    -0.018 A 
HETATM   18  C11 UNL     1      19.374   0.150  52.507  1.00  0.00     0.036 A 
HETATM   19  C16 UNL     1      18.117  -0.588  52.551  1.00  0.00     0.046 A 
HETATM   20  C17 UNL     1      17.887  -1.663  53.268  1.00  0.00     0.085 A 
HETATM   21  N5  UNL     1      18.976  -2.098  54.039  1.00  0.00    -0.395 N 
HETATM   22  C18 UNL     1      20.283  -1.483  54.118  1.00  0.00     0.157 A 
HETATM   23  H20 UNL     1      18.924  -2.947  54.649  1.00  0.00     0.159 HD
BRANCH  18  24
HETATM   24  N3  UNL     1      19.367   1.279  51.647  1.00  0.00    -0.364 N 
HETATM   25  H13 UNL     1      19.103   0.742  50.773  1.00  0.00     0.162 HD
BRANCH  24  26
HETATM   26  C12 UNL     1      19.670   2.650  52.095  1.00  0.00     0.229 A 
HETATM   27  C13 UNL     1      18.688   3.529  51.411  1.00  0.00     0.022 A 
HETATM   28  C14 UNL     1      19.333   4.364  50.605  1.00  0.00     0.019 A 
HETATM   29  C15 UNL     1      20.766   4.062  50.733  1.00  0.00     0.113 A 
HETATM   30  N4  UNL     1      20.923   3.099  51.574  1.00  0.00    -0.272 NA
ENDBRANCH  24  26
ENDBRANCH  18  24
ENDBRANCH  16  17
ENDBRANCH   1  16
TORSDOF 5
ENDMDL
MODEL 7
REMARK VINA RESULT:      -8.4      2.472      7.053
REMARK  5 active torsions:
REMARK  status: ('A' for Active; 'I' for Inactive)
REMARK    1  A    between atoms: C8_10  and  N2_11 
REMARK    2  A    between atoms: N2_11  and  C9_12 
REMARK    3  A    between atoms: C9_12  and  C10_13 
REMARK    4  A    between atoms: C11_14  and  N3_15 
REMARK    5  A    between atoms: N3_15  and  C12_16 
ROOT
HETATM    1  N2  UNL     1      24.104   2.188  50.893  1.00  0.00    -0.386 N 
HETATM    2  H10 UNL     1      24.028   1.407  50.204  1.00  0.00     0.160 HD
ENDROOT
BRANCH   1   3
HETATM    3  C8  UNL     1      24.861   3.300  50.404  1.00  0.00     0.029 A 
HETATM    4  C7  UNL     1      26.117   3.162  49.839  1.00  0.00     0.031 A 
HETATM    5  C6  UNL     1      26.905   4.179  49.348  1.00  0.00     0.032 A 
HETATM    6  C5  UNL     1      26.418   5.448  49.418  1.00  0.00     0.042 A 
HETATM    7  N1  UNL     1      27.320   6.406  48.882  1.00  0.00    -0.389 N 
HETATM    8  C20 UNL     1      25.175   5.691  49.964  1.00  0.00     0.038 A 
HETATM    9  C4  UNL     1      27.202   7.846  48.897  1.00  0.00     0.120 C 
HETATM   10  H7  UNL     1      28.157   6.019  48.430  1.00  0.00     0.159 HD
HETATM   11  C3  UNL     1      26.544   8.255  50.193  1.00  0.00     0.027 C 
HETATM   12  C2  UNL     1      25.049   8.287  50.038  1.00  0.00     0.085 C 
HETATM   13  C1  UNL     1      24.445   6.939  50.149  1.00  0.00     0.162 C 
HETATM   14  O1  UNL     1      23.223   6.875  50.420  1.00  0.00    -0.292 OA
HETATM   15  C19 UNL     1      24.447   4.622  50.434  1.00  0.00     0.046 A 
ENDBRANCH   1   3
BRANCH   1  16
HETATM   16  C9  UNL     1      23.610   2.386  52.237  1.00  0.00     0.158 C 
BRANCH  16  17
HETATM   17  C10 UNL     1      23.269   1.157  52.967  1.00  0.00    -0.018 A 
HETATM   18  C11 UNL     1      23.991   0.175  53.481  1.00  0.00     0.036 A 
HETATM   19  C16 UNL     1      23.319  -0.922  54.167  1.00  0.00     0.046 A 
HETATM   20  C17 UNL     1      22.023  -1.040  54.332  1.00  0.00     0.085 A 
HETATM   21  N5  UNL     1      21.264   0.004  53.784  1.00  0.00    -0.395 N 
HETATM   22  C18 UNL     1      21.765   1.157  53.069  1.00  0.00     0.157 A 
HETATM   23  H20 UNL     1      20.220   0.031  53.853  1.00  0.00     0.159 HD
BRANCH  18  24
HETATM   24  N3  UNL     1      25.406   0.071  53.442  1.00  0.00    -0.364 N 
HETATM   25  H13 UNL     1      25.439  -0.588  52.613  1.00  0.00     0.162 HD
BRANCH  24  26
HETATM   26  C12 UNL     1      26.303   0.768  54.382  1.00  0.00     0.229 A 
HETATM   27  C13 UNL     1      27.074   1.739  53.565  1.00  0.00     0.022 A 
HETATM   28  C14 UNL     1      28.363   1.424  53.610  1.00  0.00     0.019 A 
HETATM   29  C15 UNL     1      28.484   0.233  54.461  1.00  0.00     0.113 A 
HETATM   30  N4  UNL     1      27.314  -0.111  54.879  1.00  0.00    -0.272 NA
ENDBRANCH  24  26
ENDBRANCH  18  24
ENDBRANCH  16  17
ENDBRANCH   1  16
TORSDOF 5
ENDMDL
MODEL 8
REMARK VINA RESULT:      -8.4      2.600      3.865
REMARK  5 active torsions:
REMARK  status: ('A' for Active; 'I' for Inactive)
REMARK    1  A    between atoms: C8_10  and  N2_11 
REMARK    2  A    between atoms: N2_11  and  C9_12 
REMARK    3  A    between atoms: C9_12  and  C10_13 
REMARK    4  A    between atoms: C11_14  and  N3_15 
REMARK    5  A    between atoms: N3_15  and  C12_16 
ROOT
HETATM    1  N2  UNL     1      26.794   3.231  51.172  1.00  0.00    -0.386 N 
HETATM    2  H10 UNL     1      27.465   3.810  51.723  1.00  0.00     0.160 HD
ENDROOT
BRANCH   1   3
HETATM    3  C8  UNL     1      26.110   2.254  51.964  1.00  0.00     0.029 A 
HETATM    4  C7  UNL     1      26.770   1.249  52.649  1.00  0.00     0.031 A 
HETATM    5  C6  UNL     1      26.185   0.275  53.428  1.00  0.00     0.032 A 
HETATM    6  C5  UNL     1      24.829   0.288  53.546  1.00  0.00     0.042 A 
HETATM    7  N1  UNL     1      24.346  -0.762  54.372  1.00  0.00    -0.389 N 
HETATM    8  C20 UNL     1      24.080   1.251  52.902  1.00  0.00     0.038 A 
HETATM    9  C4  UNL     1      22.973  -1.136  54.626  1.00  0.00     0.120 C 
HETATM   10  H7  UNL     1      25.068  -1.319  54.844  1.00  0.00     0.159 HD
HETATM   11  C3  UNL     1      22.179  -0.912  53.361  1.00  0.00     0.027 C 
HETATM   12  C2  UNL     1      21.630   0.487  53.324  1.00  0.00     0.085 C 
HETATM   13  C1  UNL     1      22.639   1.473  52.873  1.00  0.00     0.162 C 
HETATM   14  O1  UNL     1      22.219   2.571  52.439  1.00  0.00    -0.292 OA
HETATM   15  C19 UNL     1      24.737   2.190  52.141  1.00  0.00     0.046 A 
ENDBRANCH   1   3
BRANCH   1  16
HETATM   16  C9  UNL     1      26.408   3.201  49.779  1.00  0.00     0.158 C 
BRANCH  16  17
HETATM   17  C10 UNL     1      25.673   4.383  49.307  1.00  0.00    -0.018 A 
HETATM   18  C11 UNL     1      26.021   5.639  49.080  1.00  0.00     0.036 A 
HETATM   19  C16 UNL     1      25.020   6.582  48.594  1.00  0.00     0.046 A 
HETATM   20  C17 UNL     1      23.762   6.301  48.352  1.00  0.00     0.085 A 
HETATM   21  N5  UNL     1      23.400   4.967  48.595  1.00  0.00    -0.395 N 
HETATM   22  C18 UNL     1      24.260   3.912  49.082  1.00  0.00     0.157 A 
HETATM   23  H20 UNL     1      22.427   4.615  48.435  1.00  0.00     0.159 HD
BRANCH  18  24
HETATM   24  N3  UNL     1      27.316   6.191  49.258  1.00  0.00    -0.364 N 
HETATM   25  H13 UNL     1      27.268   6.231  50.316  1.00  0.00     0.162 HD
BRANCH  24  26
HETATM   26  C12 UNL     1      28.229   6.511  48.145  1.00  0.00     0.229 A 
HETATM   27  C13 UNL     1      29.243   5.427  48.125  1.00  0.00     0.022 A 
HETATM   28  C14 UNL     1      30.441   5.943  48.375  1.00  0.00     0.019 A 
HETATM   29  C15 UNL     1      30.255   7.388  48.568  1.00  0.00     0.113 A 
HETATM   30  N4  UNL     1      29.006   7.676  48.433  1.00  0.00    -0.272 NA
ENDBRANCH  24  26
ENDBRANCH  18  24
ENDBRANCH  16  17
ENDBRANCH   1  16
TORSDOF 5
ENDMDL
MODEL 9
REMARK VINA RESULT:      -8.2      2.159      3.186
REMARK  5 active torsions:
REMARK  status: ('A' for Active; 'I' for Inactive)
REMARK    1  A    between atoms: C8_10  and  N2_11 
REMARK    2  A    between atoms: N2_11  and  C9_12 
REMARK    3  A    between atoms: C9_12  and  C10_13 
REMARK    4  A    between atoms: C11_14  and  N3_15 
REMARK    5  A    between atoms: N3_15  and  C12_16 
ROOT
HETATM    1  N2  UNL     1      23.881   2.549  53.105  1.00  0.00    -0.386 N 
HETATM    2  H10 UNL     1      24.184   3.398  53.630  1.00  0.00     0.160 HD
ENDROOT
BRANCH   1   3
HETATM    3  C8  UNL     1      24.865   1.508  53.100  1.00  0.00     0.029 A 
HETATM    4  C7  UNL     1      24.534   0.164  53.072  1.00  0.00     0.031 A 
HETATM    5  C6  UNL     1      25.418  -0.891  53.067  1.00  0.00     0.032 A 
HETATM    6  C5  UNL     1      26.749  -0.604  53.092  1.00  0.00     0.042 A 
HETATM    7  N1  UNL     1      27.557  -1.772  53.083  1.00  0.00    -0.389 N 
HETATM    8  C20 UNL     1      27.180   0.705  53.120  1.00  0.00     0.038 A 
HETATM    9  C4  UNL     1      28.992  -1.863  53.227  1.00  0.00     0.120 C 
HETATM   10  H7  UNL     1      27.051  -2.657  52.960  1.00  0.00     0.159 HD
HETATM   11  C3  UNL     1      29.441  -0.792  54.191  1.00  0.00     0.027 C 
HETATM   12  C2  UNL     1      29.749   0.483  53.457  1.00  0.00     0.085 C 
HETATM   13  C1  UNL     1      28.528   1.262  53.150  1.00  0.00     0.162 C 
HETATM   14  O1  UNL     1      28.669   2.482  52.900  1.00  0.00    -0.292 OA
HETATM   15  C19 UNL     1      26.236   1.706  53.124  1.00  0.00     0.046 A 
ENDBRANCH   1   3
BRANCH   1  16
HETATM   16  C9  UNL     1      22.681   2.197  52.379  1.00  0.00     0.158 C 
BRANCH  16  17
HETATM   17  C10 UNL     1      22.728   2.452  50.932  1.00  0.00    -0.018 A 
HETATM   18  C11 UNL     1      23.275   3.405  50.195  1.00  0.00     0.036 A 
HETATM   19  C16 UNL     1      23.136   3.354  48.744  1.00  0.00     0.046 A 
HETATM   20  C17 UNL     1      22.498   2.427  48.070  1.00  0.00     0.085 A 
HETATM   21  N5  UNL     1      21.920   1.421  48.859  1.00  0.00    -0.395 N 
HETATM   22  C18 UNL     1      21.956   1.323  50.301  1.00  0.00     0.157 A 
HETATM   23  H20 UNL     1      21.389   0.621  48.442  1.00  0.00     0.159 HD
BRANCH  18  24
HETATM   24  N3  UNL     1      24.019   4.512  50.679  1.00  0.00    -0.364 N 
HETATM   25  H13 UNL     1      24.948   4.198  50.277  1.00  0.00     0.162 HD
BRANCH  24  26
HETATM   26  C12 UNL     1      23.431   5.610  51.468  1.00  0.00     0.229 A 
HETATM   27  C13 UNL     1      22.128   5.919  50.829  1.00  0.00     0.022 A 
HETATM   28  C14 UNL     1      22.153   7.161  50.360  1.00  0.00     0.019 A 
HETATM   29  C15 UNL     1      23.477   7.713  50.678  1.00  0.00     0.113 A 
HETATM   30  N4  UNL     1      24.170   6.821  51.298  1.00  0.00    -0.272 NA
ENDBRANCH  24  26
ENDBRANCH  18  24
ENDBRANCH  16  17
ENDBRANCH   1  16
TORSDOF 5
ENDMDL
