MODEL 1
REMARK VINA RESULT:      -9.1      0.000      0.000
REMARK  3 active torsions:
REMARK  status: ('A' for Active; 'I' for Inactive)
REMARK    1  A    between atoms: C4_4  and  C5_5 
REMARK    2  A    between atoms: C6_6  and  C7_8 
REMARK    3  A    between atoms: C18_24  and  N5_25 
ROOT
HETATM    1  C1  UNL     1      21.388   2.990  52.200  1.00  0.00     0.023 C 
HETATM    2  C2  UNL     1      22.718   2.807  51.444  1.00  0.00     0.084 C 
HETATM    3  C3  UNL     1      22.821   3.899  50.448  1.00  0.00     0.019 C 
HETATM    4  C4  UNL     1      22.698   3.802  49.121  1.00  0.00     0.039 C 
HETATM    5  N1  UNL     1      23.036   5.178  51.069  1.00  0.00    -0.354 N 
HETATM    6  C8  UNL     1      23.643   5.207  52.338  1.00  0.00     0.207 C 
HETATM    7  N2  UNL     1      23.993   4.133  52.912  1.00  0.00    -0.247 NA
HETATM    8  C9  UNL     1      23.846   2.798  52.409  1.00  0.00     0.050 C 
HETATM    9  C10 UNL     1      24.717   1.838  52.867  1.00  0.00    -0.026 C 
HETATM   10  C11 UNL     1      25.709   2.308  53.867  1.00  0.00     0.085 C 
HETATM   11  C12 UNL     1      27.105   2.296  53.463  1.00  0.00     0.090 C 
HETATM   12  N3  UNL     1      27.882   1.930  54.352  1.00  0.00    -0.276 NA
HETATM   13  C13 UNL     1      29.234   1.737  54.534  1.00  0.00     0.418 C 
HETATM   14  N4  UNL     1      29.885   0.803  53.654  1.00  0.00     0.113 NA
HETATM   15  C14 UNL     1      29.193  -0.493  53.597  1.00  0.00     0.365 C 
HETATM   16  C15 UNL     1      27.949  -0.352  52.921  1.00  0.00    -0.076 C 
HETATM   17  C16 UNL     1      26.960  -0.234  52.364  1.00  0.00    -0.102 C 
HETATM   18  C17 UNL     1      25.761  -0.066  51.681  1.00  0.00     0.123 C 
HETATM   19  C18 UNL     1      24.564   0.456  52.365  1.00  0.00     0.121 C 
HETATM   20  H9  UNL     1      22.755   6.058  50.606  1.00  0.00     0.166 HD
HETATM   21  H16 UNL     1      29.998   1.185  52.688  1.00  0.00     0.319 HD
ENDROOT
BRANCH  19  22
HETATM   22  N5  UNL     1      23.915  -0.358  53.301  1.00  0.00    -0.404 N 
HETATM   23  C19 UNL     1      24.679  -0.789  54.443  1.00  0.00     0.117 C 
HETATM   24  C20 UNL     1      23.796  -1.321  55.545  1.00  0.00     0.019 C 
HETATM   25  C21 UNL     1      22.370  -0.874  55.412  1.00  0.00     0.003 C 
HETATM   26  C22 UNL     1      21.761  -1.038  54.067  1.00  0.00     0.019 C 
HETATM   27  C23 UNL     1      22.866  -1.208  53.046  1.00  0.00     0.117 C 
ENDBRANCH  19  22
BRANCH   4  28
HETATM   28  C5  UNL     1      22.795   4.863  48.133  1.00  0.00     0.214 A 
HETATM   29  C6  UNL     1      22.242   4.962  46.914  1.00  0.00     0.079 A 
HETATM   30  F1  UNL     1      21.952   3.838  47.578  1.00  0.00    -0.360 F 
BRANCH  29  31
HETATM   31  C7  UNL     1      22.562   6.206  46.180  1.00  0.00     0.179 C 
HETATM   32 CL1  UNL     1      23.767   7.184  47.065  1.00  0.00    -0.124 Cl
ENDBRANCH  29  31
ENDBRANCH   4  28
TORSDOF 3
ENDMDL
MODEL 2
REMARK VINA RESULT:      -8.2      4.084      6.613
REMARK  3 active torsions:
REMARK  status: ('A' for Active; 'I' for Inactive)
REMARK    1  A    between atoms: C4_4  and  C5_5 
REMARK    2  A    between atoms: C6_6  and  C7_8 
REMARK    3  A    between atoms: C18_24  and  N5_25 
ROOT
HETATM    1  C1  UNL     1      19.526   3.578  48.470  1.00  0.00     0.023 C 
HETATM    2  C2  UNL     1      19.757   3.473  49.990  1.00  0.00     0.084 C 
HETATM    3  C3  UNL     1      18.474   3.070  50.611  1.00  0.00     0.019 C 
HETATM    4  C4  UNL     1      17.657   3.826  51.351  1.00  0.00     0.039 C 
HETATM    5  N1  UNL     1      18.124   1.711  50.295  1.00  0.00    -0.354 N 
HETATM    6  C8  UNL     1      19.161   0.816  49.973  1.00  0.00     0.207 C 
HETATM    7  N2  UNL     1      20.368   1.201  49.966  1.00  0.00    -0.247 NA
HETATM    8  C9  UNL     1      20.857   2.515  50.265  1.00  0.00     0.050 C 
HETATM    9  C10 UNL     1      22.146   2.633  50.728  1.00  0.00    -0.026 C 
HETATM   10  C11 UNL     1      22.898   1.358  50.840  1.00  0.00     0.085 C 
HETATM   11  C12 UNL     1      23.265   0.928  52.179  1.00  0.00     0.090 C 
HETATM   12  N3  UNL     1      24.396   0.434  52.255  1.00  0.00    -0.276 NA
HETATM   13  C13 UNL     1      25.227  -0.115  53.207  1.00  0.00     0.418 C 
HETATM   14  N4  UNL     1      25.570   0.713  54.331  1.00  0.00     0.113 NA
HETATM   15  C14 UNL     1      26.073   2.034  53.925  1.00  0.00     0.365 C 
HETATM   16  C15 UNL     1      25.017   2.808  53.369  1.00  0.00    -0.076 C 
HETATM   17  C16 UNL     1      24.160   3.427  52.940  1.00  0.00    -0.102 C 
HETATM   18  C17 UNL     1      23.101   4.163  52.421  1.00  0.00     0.123 C 
HETATM   19  C18 UNL     1      22.664   3.986  51.024  1.00  0.00     0.121 C 
HETATM   20  H9  UNL     1      17.142   1.390  50.300  1.00  0.00     0.166 HD
HETATM   21  H16 UNL     1      24.770   0.829  54.995  1.00  0.00     0.319 HD
ENDROOT
BRANCH  19  22
HETATM   22  N5  UNL     1      23.491   4.453  49.996  1.00  0.00    -0.404 N 
HETATM   23  C19 UNL     1      22.954   5.466  49.125  1.00  0.00     0.117 C 
HETATM   24  C20 UNL     1      24.033   6.151  48.323  1.00  0.00     0.019 C 
HETATM   25  C21 UNL     1      25.400   5.969  48.916  1.00  0.00     0.003 C 
HETATM   26  C22 UNL     1      25.765   4.579  49.289  1.00  0.00     0.019 C 
HETATM   27  C23 UNL     1      24.503   3.749  49.388  1.00  0.00     0.117 C 
ENDBRANCH  19  22
BRANCH   4  28
HETATM   28  C5  UNL     1      16.396   3.445  51.964  1.00  0.00     0.214 A 
HETATM   29  C6  UNL     1      15.516   4.182  52.659  1.00  0.00     0.079 A 
HETATM   30  F1  UNL     1      16.594   4.845  52.228  1.00  0.00    -0.360 F 
BRANCH  29  31
HETATM   31  C7  UNL     1      14.322   3.449  53.135  1.00  0.00     0.179 C 
HETATM   32 CL1  UNL     1      13.139   4.559  53.882  1.00  0.00    -0.124 Cl
ENDBRANCH  29  31
ENDBRANCH   4  28
TORSDOF 3
ENDMDL
MODEL 3
REMARK VINA RESULT:      -8.2      3.850      8.332
REMARK  3 active torsions:
REMARK  status: ('A' for Active; 'I' for Inactive)
REMARK    1  A    between atoms: C4_4  and  C5_5 
REMARK    2  A    between atoms: C6_6  and  C7_8 
REMARK    3  A    between atoms: C18_24  and  N5_25 
ROOT
HETATM    1  C1  UNL     1      24.782   4.344  49.748  1.00  0.00     0.023 C 
HETATM    2  C2  UNL     1      23.961   3.180  50.338  1.00  0.00     0.084 C 
HETATM    3  C3  UNL     1      24.714   2.640  51.493  1.00  0.00     0.019 C 
HETATM    4  C4  UNL     1      25.369   1.478  51.563  1.00  0.00     0.039 C 
HETATM    5  N1  UNL     1      24.728   3.553  52.604  1.00  0.00    -0.354 N 
HETATM    6  C8  UNL     1      23.677   4.483  52.712  1.00  0.00     0.207 C 
HETATM    7  N2  UNL     1      22.746   4.509  51.853  1.00  0.00    -0.247 NA
HETATM    8  C9  UNL     1      22.605   3.660  50.707  1.00  0.00     0.050 C 
HETATM    9  C10 UNL     1      21.340   3.452  50.211  1.00  0.00    -0.026 C 
HETATM   10  C11 UNL     1      20.254   4.170  50.926  1.00  0.00     0.085 C 
HETATM   11  C12 UNL     1      19.285   3.353  51.638  1.00  0.00     0.090 C 
HETATM   12  N3  UNL     1      18.121   3.759  51.544  1.00  0.00    -0.276 NA
HETATM   13  C13 UNL     1      16.863   3.411  51.984  1.00  0.00     0.418 C 
HETATM   14  N4  UNL     1      16.380   2.106  51.622  1.00  0.00     0.113 NA
HETATM   15  C14 UNL     1      16.502   1.841  50.181  1.00  0.00     0.365 C 
HETATM   16  C15 UNL     1      17.872   1.699  49.825  1.00  0.00    -0.076 C 
HETATM   17  C16 UNL     1      18.972   1.571  49.551  1.00  0.00    -0.102 C 
HETATM   18  C17 UNL     1      20.319   1.418  49.241  1.00  0.00     0.123 C 
HETATM   19  C18 UNL     1      21.186   2.590  49.020  1.00  0.00     0.121 C 
HETATM   20  H9  UNL     1      25.483   3.536  53.309  1.00  0.00     0.166 HD
HETATM   21  H16 UNL     1      16.855   1.346  52.162  1.00  0.00     0.319 HD
ENDROOT
BRANCH  19  22
HETATM   22  N5  UNL     1      21.006   3.350  47.858  1.00  0.00    -0.404 N 
HETATM   23  C19 UNL     1      22.123   3.450  46.955  1.00  0.00     0.117 C 
HETATM   24  C20 UNL     1      21.705   3.953  45.595  1.00  0.00     0.019 C 
HETATM   25  C21 UNL     1      20.233   3.798  45.346  1.00  0.00     0.003 C 
HETATM   26  C22 UNL     1      19.338   4.280  46.430  1.00  0.00     0.019 C 
HETATM   27  C23 UNL     1      20.139   4.406  47.708  1.00  0.00     0.117 C 
ENDBRANCH  19  22
BRANCH   4  28
HETATM   28  C5  UNL     1      26.114   0.935  52.687  1.00  0.00     0.214 A 
HETATM   29  C6  UNL     1      27.144   0.076  52.707  1.00  0.00     0.079 A 
HETATM   30  F1  UNL     1      26.679   0.374  51.490  1.00  0.00    -0.360 F 
BRANCH  29  31
HETATM   31  C7  UNL     1      27.659  -0.253  54.055  1.00  0.00     0.179 C 
HETATM   32 CL1  UNL     1      29.403  -0.638  54.002  1.00  0.00    -0.124 Cl
ENDBRANCH  29  31
ENDBRANCH   4  28
TORSDOF 3
ENDMDL
MODEL 4
REMARK VINA RESULT:      -7.9      4.698      8.048
REMARK  3 active torsions:
REMARK  status: ('A' for Active; 'I' for Inactive)
REMARK    1  A    between atoms: C4_4  and  C5_5 
REMARK    2  A    between atoms: C6_6  and  C7_8 
REMARK    3  A    between atoms: C18_24  and  N5_25 
ROOT
HETATM    1  C1  UNL     1      20.041   3.906  49.505  1.00  0.00     0.023 C 
HETATM    2  C2  UNL     1      21.300   4.065  50.380  1.00  0.00     0.084 C 
HETATM    3  C3  UNL     1      21.556   2.763  51.038  1.00  0.00     0.019 C 
HETATM    4  C4  UNL     1      21.380   2.457  52.327  1.00  0.00     0.039 C 
HETATM    5  N1  UNL     1      21.998   1.762  50.105  1.00  0.00    -0.354 N 
HETATM    6  C8  UNL     1      22.637   2.190  48.926  1.00  0.00     0.207 C 
HETATM    7  N2  UNL     1      22.819   3.423  48.701  1.00  0.00    -0.247 NA
HETATM    8  C9  UNL     1      22.438   4.520  49.541  1.00  0.00     0.050 C 
HETATM    9  C10 UNL     1      23.149   5.691  49.434  1.00  0.00    -0.026 C 
HETATM   10  C11 UNL     1      24.233   5.683  48.420  1.00  0.00     0.085 C 
HETATM   11  C12 UNL     1      25.595   5.791  48.914  1.00  0.00     0.090 C 
HETATM   12  N3  UNL     1      26.326   6.509  48.222  1.00  0.00    -0.276 NA
HETATM   13  C13 UNL     1      27.631   6.950  48.202  1.00  0.00     0.418 C 
HETATM   14  N4  UNL     1      28.092   7.681  49.352  1.00  0.00     0.113 NA
HETATM   15  C14 UNL     1      27.193   8.786  49.714  1.00  0.00     0.365 C 
HETATM   16  C15 UNL     1      25.971   8.271  50.230  1.00  0.00    -0.076 C 
HETATM   17  C16 UNL     1      25.000   7.849  50.657  1.00  0.00    -0.102 C 
HETATM   18  C17 UNL     1      23.827   7.313  51.175  1.00  0.00     0.123 C 
HETATM   19  C18 UNL     1      22.753   6.833  50.286  1.00  0.00     0.121 C 
HETATM   20  H9  UNL     1      21.854   0.754  50.283  1.00  0.00     0.166 HD
HETATM   21  H16 UNL     1      28.240   7.060  50.180  1.00  0.00     0.319 HD
ENDROOT
BRANCH  19  22
HETATM   22  N5  UNL     1      22.005   7.772  49.567  1.00  0.00    -0.404 N 
HETATM   23  C19 UNL     1      20.604   7.882  49.881  1.00  0.00     0.117 C 
HETATM   24  C20 UNL     1      20.000   9.153  49.337  1.00  0.00     0.019 C 
HETATM   25  C21 UNL     1      21.034  10.194  49.015  1.00  0.00     0.003 C 
HETATM   26  C22 UNL     1      22.196   9.728  48.215  1.00  0.00     0.019 C 
HETATM   27  C23 UNL     1      22.273   8.218  48.295  1.00  0.00     0.117 C 
ENDBRANCH  19  22
BRANCH   4  28
HETATM   28  C5  UNL     1      21.624   1.185  52.987  1.00  0.00     0.214 A 
HETATM   29  C6  UNL     1      20.904   0.543  53.920  1.00  0.00     0.079 A 
HETATM   30  F1  UNL     1      20.397   1.714  53.519  1.00  0.00    -0.360 F 
BRANCH  29  31
HETATM   31  C7  UNL     1      21.466  -0.752  54.363  1.00  0.00     0.179 C 
HETATM   32 CL1  UNL     1      23.187  -0.897  53.908  1.00  0.00    -0.124 Cl
ENDBRANCH  29  31
ENDBRANCH   4  28
TORSDOF 3
ENDMDL
MODEL 5
REMARK VINA RESULT:      -7.8      5.526      8.108
REMARK  3 active torsions:
REMARK  status: ('A' for Active; 'I' for Inactive)
REMARK    1  A    between atoms: C4_4  and  C5_5 
REMARK    2  A    between atoms: C6_6  and  C7_8 
REMARK    3  A    between atoms: C18_24  and  N5_25 
ROOT
HETATM    1  C1  UNL     1      16.125   2.061  49.354  1.00  0.00     0.023 C 
HETATM    2  C2  UNL     1      16.858   2.463  50.649  1.00  0.00     0.084 C 
HETATM    3  C3  UNL     1      15.842   2.579  51.721  1.00  0.00     0.019 C 
HETATM    4  C4  UNL     1      15.388   3.698  52.291  1.00  0.00     0.039 C 
HETATM    5  N1  UNL     1      15.307   1.299  52.099  1.00  0.00    -0.354 N 
HETATM    6  C8  UNL     1      16.101   0.157  51.883  1.00  0.00     0.207 C 
HETATM    7  N2  UNL     1      17.256   0.260  51.373  1.00  0.00    -0.247 NA
HETATM    8  C9  UNL     1      17.913   1.466  50.959  1.00  0.00     0.050 C 
HETATM    9  C10 UNL     1      19.286   1.478  50.941  1.00  0.00    -0.026 C 
HETATM   10  C11 UNL     1      19.936   0.203  51.339  1.00  0.00     0.085 C 
HETATM   11  C12 UNL     1      20.711   0.217  52.568  1.00  0.00     0.090 C 
HETATM   12  N3  UNL     1      21.759  -0.435  52.509  1.00  0.00    -0.276 NA
HETATM   13  C13 UNL     1      22.825  -0.763  53.318  1.00  0.00     0.418 C 
HETATM   14  N4  UNL     1      23.595   0.325  53.858  1.00  0.00     0.113 NA
HETATM   15  C14 UNL     1      24.021   1.281  52.826  1.00  0.00     0.365 C 
HETATM   16  C15 UNL     1      22.897   2.001  52.334  1.00  0.00    -0.076 C 
HETATM   17  C16 UNL     1      21.992   2.586  51.957  1.00  0.00    -0.102 C 
HETATM   18  C17 UNL     1      20.876   3.285  51.514  1.00  0.00     0.123 C 
HETATM   19  C18 UNL     1      19.972   2.711  50.500  1.00  0.00     0.121 C 
HETATM   20  H9  UNL     1      14.366   1.207  52.516  1.00  0.00     0.166 HD
HETATM   21  H16 UNL     1      23.083   0.831  54.618  1.00  0.00     0.319 HD
ENDROOT
BRANCH  19  22
HETATM   22  N5  UNL     1      20.425   2.600  49.180  1.00  0.00    -0.404 N 
HETATM   23  C19 UNL     1      19.690   3.311  48.167  1.00  0.00     0.117 C 
HETATM   24  C20 UNL     1      20.471   3.432  46.881  1.00  0.00     0.019 C 
HETATM   25  C21 UNL     1      21.943   3.213  47.075  1.00  0.00     0.003 C 
HETATM   26  C22 UNL     1      22.323   2.011  47.861  1.00  0.00     0.019 C 
HETATM   27  C23 UNL     1      21.119   1.540  48.649  1.00  0.00     0.117 C 
ENDBRANCH  19  22
BRANCH   4  28
HETATM   28  C5  UNL     1      14.391   3.828  53.341  1.00  0.00     0.214 A 
HETATM   29  C6  UNL     1      13.161   4.363  53.304  1.00  0.00     0.079 A 
HETATM   30  F1  UNL     1      13.832   4.405  52.149  1.00  0.00    -0.360 F 
BRANCH  29  31
HETATM   31  C7  UNL     1      12.418   4.315  54.583  1.00  0.00     0.179 C 
HETATM   32 CL1  UNL     1      11.577   2.751  54.781  1.00  0.00    -0.124 Cl
ENDBRANCH  29  31
ENDBRANCH   4  28
TORSDOF 3
ENDMDL
MODEL 6
REMARK VINA RESULT:      -7.7      3.741      8.504
REMARK  3 active torsions:
REMARK  status: ('A' for Active; 'I' for Inactive)
REMARK    1  A    between atoms: C4_4  and  C5_5 
REMARK    2  A    between atoms: C6_6  and  C7_8 
REMARK    3  A    between atoms: C18_24  and  N5_25 
ROOT
HETATM    1  C1  UNL     1      24.020   4.021  53.297  1.00  0.00     0.023 C 
HETATM    2  C2  UNL     1      23.941   3.214  51.986  1.00  0.00     0.084 C 
HETATM    3  C3  UNL     1      24.370   1.829  52.286  1.00  0.00     0.019 C 
HETATM    4  C4  UNL     1      25.514   1.238  51.927  1.00  0.00     0.039 C 
HETATM    5  N1  UNL     1      23.410   1.127  53.094  1.00  0.00    -0.354 N 
HETATM    6  C8  UNL     1      22.066   1.543  53.039  1.00  0.00     0.207 C 
HETATM    7  N2  UNL     1      21.717   2.506  52.294  1.00  0.00    -0.247 NA
HETATM    8  C9  UNL     1      22.563   3.285  51.436  1.00  0.00     0.050 C 
HETATM    9  C10 UNL     1      21.990   3.890  50.344  1.00  0.00    -0.026 C 
HETATM   10  C11 UNL     1      20.527   3.680  50.198  1.00  0.00     0.085 C 
HETATM   11  C12 UNL     1      20.087   2.909  49.047  1.00  0.00     0.090 C 
HETATM   12  N3  UNL     1      19.060   3.344  48.514  1.00  0.00    -0.276 NA
HETATM   13  C13 UNL     1      18.231   3.041  47.457  1.00  0.00     0.418 C 
HETATM   14  N4  UNL     1      18.828   2.998  46.149  1.00  0.00     0.113 NA
HETATM   15  C14 UNL     1      19.608   4.206  45.846  1.00  0.00     0.365 C 
HETATM   16  C15 UNL     1      20.784   4.241  46.647  1.00  0.00    -0.076 C 
HETATM   17  C16 UNL     1      21.733   4.252  47.281  1.00  0.00    -0.102 C 
HETATM   18  C17 UNL     1      22.881   4.244  48.064  1.00  0.00     0.123 C 
HETATM   19  C18 UNL     1      22.851   4.707  49.463  1.00  0.00     0.121 C 
HETATM   20  H9  UNL     1      23.687   0.340  53.703  1.00  0.00     0.166 HD
HETATM   21  H16 UNL     1      19.425   2.150  46.015  1.00  0.00     0.319 HD
ENDROOT
BRANCH  19  22
HETATM   22  N5  UNL     1      22.690   6.075  49.716  1.00  0.00    -0.404 N 
HETATM   23  C19 UNL     1      23.627   6.976  49.097  1.00  0.00     0.117 C 
HETATM   24  C20 UNL     1      23.139   8.404  49.122  1.00  0.00     0.019 C 
HETATM   25  C21 UNL     1      21.659   8.506  49.347  1.00  0.00     0.003 C 
HETATM   26  C22 UNL     1      21.116   7.700  50.471  1.00  0.00     0.019 C 
HETATM   27  C23 UNL     1      22.122   6.629  50.837  1.00  0.00     0.117 C 
ENDBRANCH  19  22
BRANCH   4  28
HETATM   28  C5  UNL     1      25.950  -0.118  52.215  1.00  0.00     0.214 A 
HETATM   29  C6  UNL     1      27.182  -0.601  52.441  1.00  0.00     0.079 A 
HETATM   30  F1  UNL     1      27.123   0.714  52.201  1.00  0.00    -0.360 F 
BRANCH  29  31
HETATM   31  C7  UNL     1      27.246  -2.054  52.708  1.00  0.00     0.179 C 
HETATM   32 CL1  UNL     1      28.908  -2.560  53.125  1.00  0.00    -0.124 Cl
ENDBRANCH  29  31
ENDBRANCH   4  28
TORSDOF 3
ENDMDL
MODEL 7
REMARK VINA RESULT:      -7.7      4.534      7.073
REMARK  3 active torsions:
REMARK  status: ('A' for Active; 'I' for Inactive)
REMARK    1  A    between atoms: C4_4  and  C5_5 
REMARK    2  A    between atoms: C6_6  and  C7_8 
REMARK    3  A    between atoms: C18_24  and  N5_25 
ROOT
HETATM    1  C1  UNL     1      24.166   7.876  47.987  1.00  0.00     0.023 C 
HETATM    2  C2  UNL     1      24.712   6.483  48.360  1.00  0.00     0.084 C 
HETATM    3  C3  UNL     1      26.128   6.650  48.760  1.00  0.00     0.019 C 
HETATM    4  C4  UNL     1      27.213   6.276  48.076  1.00  0.00     0.039 C 
HETATM    5  N1  UNL     1      26.259   7.337  50.016  1.00  0.00    -0.354 N 
HETATM    6  C8  UNL     1      25.184   7.272  50.923  1.00  0.00     0.207 C 
HETATM    7  N2  UNL     1      24.136   6.621  50.638  1.00  0.00    -0.247 NA
HETATM    8  C9  UNL     1      23.875   5.889  49.433  1.00  0.00     0.050 C 
HETATM    9  C10 UNL     1      22.983   4.846  49.494  1.00  0.00    -0.026 C 
HETATM   10  C11 UNL     1      22.365   4.617  50.825  1.00  0.00     0.085 C 
HETATM   11  C12 UNL     1      22.698   3.373  51.498  1.00  0.00     0.090 C 
HETATM   12  N3  UNL     1      21.744   2.848  52.084  1.00  0.00    -0.276 NA
HETATM   13  C13 UNL     1      21.481   1.731  52.846  1.00  0.00     0.418 C 
HETATM   14  N4  UNL     1      21.747   0.452  52.245  1.00  0.00     0.113 NA
HETATM   15  C14 UNL     1      21.128   0.314  50.918  1.00  0.00     0.365 C 
HETATM   16  C15 UNL     1      21.785   1.161  49.983  1.00  0.00    -0.076 C 
HETATM   17  C16 UNL     1      22.328   1.831  49.236  1.00  0.00    -0.102 C 
HETATM   18  C17 UNL     1      23.005   2.655  48.344  1.00  0.00     0.123 C 
HETATM   19  C18 UNL     1      22.697   4.094  48.253  1.00  0.00     0.121 C 
HETATM   20  H9  UNL     1      27.112   7.869  50.256  1.00  0.00     0.166 HD
HETATM   21  H16 UNL     1      22.771   0.252  52.178  1.00  0.00     0.319 HD
ENDROOT
BRANCH  19  22
HETATM   22  N5  UNL     1      21.477   4.486  47.688  1.00  0.00    -0.404 N 
HETATM   23  C19 UNL     1      20.978   3.705  46.586  1.00  0.00     0.117 C 
HETATM   24  C20 UNL     1      19.518   3.973  46.319  1.00  0.00     0.019 C 
HETATM   25  C21 UNL     1      18.821   4.605  47.489  1.00  0.00     0.003 C 
HETATM   26  C22 UNL     1      19.510   5.768  48.104  1.00  0.00     0.019 C 
HETATM   27  C23 UNL     1      20.962   5.760  47.677  1.00  0.00     0.117 C 
ENDBRANCH  19  22
BRANCH   4  28
HETATM   28  C5  UNL     1      28.608   6.434  48.453  1.00  0.00     0.214 A 
HETATM   29  C6  UNL     1      29.642   5.589  48.317  1.00  0.00     0.079 A 
HETATM   30  F1  UNL     1      28.471   5.130  47.863  1.00  0.00    -0.360 F 
BRANCH  29  31
HETATM   31  C7  UNL     1      30.937   6.097  48.819  1.00  0.00     0.179 C 
HETATM   32 CL1  UNL     1      32.277   5.006  48.366  1.00  0.00    -0.124 Cl
ENDBRANCH  29  31
ENDBRANCH   4  28
TORSDOF 3
ENDMDL
MODEL 8
REMARK VINA RESULT:      -7.6      8.711     10.861
REMARK  3 active torsions:
REMARK  status: ('A' for Active; 'I' for Inactive)
REMARK    1  A    between atoms: C4_4  and  C5_5 
REMARK    2  A    between atoms: C6_6  and  C7_8 
REMARK    3  A    between atoms: C18_24  and  N5_25 
ROOT
HETATM    1  C1  UNL     1      29.805   8.876  49.320  1.00  0.00     0.023 C 
HETATM    2  C2  UNL     1      29.574   7.720  48.326  1.00  0.00     0.084 C 
HETATM    3  C3  UNL     1      28.125   7.672  48.024  1.00  0.00     0.019 C 
HETATM    4  C4  UNL     1      27.241   6.757  48.431  1.00  0.00     0.039 C 
HETATM    5  N1  UNL     1      27.700   8.797  47.235  1.00  0.00    -0.354 N 
HETATM    6  C8  UNL     1      28.655   9.439  46.425  1.00  0.00     0.207 C 
HETATM    7  N2  UNL     1      29.853   9.032  46.392  1.00  0.00    -0.247 NA
HETATM    8  C9  UNL     1      30.410   7.926  47.116  1.00  0.00     0.050 C 
HETATM    9  C10 UNL     1      31.516   7.303  46.590  1.00  0.00    -0.026 C 
HETATM   10  C11 UNL     1      32.024   7.881  45.320  1.00  0.00     0.085 C 
HETATM   11  C12 UNL     1      31.932   7.045  44.135  1.00  0.00     0.090 C 
HETATM   12  N3  UNL     1      32.916   7.118  43.390  1.00  0.00    -0.276 NA
HETATM   13  C13 UNL     1      33.357   6.587  42.198  1.00  0.00     0.418 C 
HETATM   14  N4  UNL     1      33.473   5.156  42.123  1.00  0.00     0.113 NA
HETATM   15  C14 UNL     1      34.245   4.594  43.241  1.00  0.00     0.365 C 
HETATM   16  C15 UNL     1      33.507   4.713  44.451  1.00  0.00    -0.076 C 
HETATM   17  C16 UNL     1      32.901   4.797  45.415  1.00  0.00    -0.102 C 
HETATM   18  C17 UNL     1      32.145   4.911  46.576  1.00  0.00     0.123 C 
HETATM   19  C18 UNL     1      32.106   6.172  47.338  1.00  0.00     0.121 C 
HETATM   20  H9  UNL     1      26.723   9.134  47.256  1.00  0.00     0.166 HD
HETATM   21  H16 UNL     1      32.541   4.687  42.067  1.00  0.00     0.319 HD
ENDROOT
BRANCH  19  22
HETATM   22  N5  UNL     1      33.248   6.567  48.045  1.00  0.00    -0.404 N 
HETATM   23  C19 UNL     1      34.057   5.527  48.625  1.00  0.00     0.117 C 
HETATM   24  C20 UNL     1      35.425   6.029  49.017  1.00  0.00     0.019 C 
HETATM   25  C21 UNL     1      35.793   7.309  48.324  1.00  0.00     0.003 C 
HETATM   26  C22 UNL     1      34.765   8.381  48.352  1.00  0.00     0.019 C 
HETATM   27  C23 UNL     1      33.425   7.765  48.693  1.00  0.00     0.117 C 
ENDBRANCH  19  22
BRANCH   4  28
HETATM   28  C5  UNL     1      25.818   6.697  48.144  1.00  0.00     0.214 A 
HETATM   29  C6  UNL     1      24.857   5.934  48.689  1.00  0.00     0.079 A 
HETATM   30  F1  UNL     1      26.085   5.739  49.183  1.00  0.00    -0.360 F 
BRANCH  29  31
HETATM   31  C7  UNL     1      23.500   6.150  48.143  1.00  0.00     0.179 C 
HETATM   32 CL1  UNL     1      22.457   4.727  48.424  1.00  0.00    -0.124 Cl
ENDBRANCH  29  31
ENDBRANCH   4  28
TORSDOF 3
ENDMDL
MODEL 9
REMARK VINA RESULT:      -7.6      5.380      7.171
REMARK  3 active torsions:
REMARK  status: ('A' for Active; 'I' for Inactive)
REMARK    1  A    between atoms: C4_4  and  C5_5 
REMARK    2  A    between atoms: C6_6  and  C7_8 
REMARK    3  A    between atoms: C18_24  and  N5_25 
ROOT
HETATM    1  C1  UNL     1      16.944  -0.512  52.605  1.00  0.00     0.023 C 
HETATM    2  C2  UNL     1      17.588  -0.103  51.265  1.00  0.00     0.084 C 
HETATM    3  C3  UNL     1      16.510  -0.043  50.250  1.00  0.00     0.019 C 
HETATM    4  C4  UNL     1      16.294  -0.896  49.246  1.00  0.00     0.039 C 
HETATM    5  N1  UNL     1      15.620   1.064  50.472  1.00  0.00    -0.354 N 
HETATM    6  C8  UNL     1      16.113   2.184  51.168  1.00  0.00     0.207 C 
HETATM    7  N2  UNL     1      17.309   2.212  51.582  1.00  0.00    -0.247 NA
HETATM    8  C9  UNL     1      18.302   1.189  51.426  1.00  0.00     0.050 C 
HETATM    9  C10 UNL     1      19.623   1.566  51.439  1.00  0.00    -0.026 C 
HETATM   10  C11 UNL     1      19.866   3.017  51.642  1.00  0.00     0.085 C 
HETATM   11  C12 UNL     1      20.457   3.745  50.532  1.00  0.00     0.090 C 
HETATM   12  N3  UNL     1      21.301   4.582  50.873  1.00  0.00    -0.276 NA
HETATM   13  C13 UNL     1      22.136   5.510  50.291  1.00  0.00     0.418 C 
HETATM   14  N4  UNL     1      23.087   5.023  49.329  1.00  0.00     0.113 NA
HETATM   15  C14 UNL     1      23.871   3.888  49.837  1.00  0.00     0.365 C 
HETATM   16  C15 UNL     1      23.042   2.739  49.961  1.00  0.00    -0.076 C 
HETATM   17  C16 UNL     1      22.374   1.817  50.042  1.00  0.00    -0.102 C 
HETATM   18  C17 UNL     1      21.541   0.708  50.132  1.00  0.00     0.123 C 
HETATM   19  C18 UNL     1      20.653   0.515  51.294  1.00  0.00     0.121 C 
HETATM   20  H9  UNL     1      14.643   1.048  50.136  1.00  0.00     0.166 HD
HETATM   21  H16 UNL     1      22.633   4.760  48.424  1.00  0.00     0.319 HD
ENDROOT
BRANCH  19  22
HETATM   22  N5  UNL     1      21.224   0.185  52.529  1.00  0.00    -0.404 N 
HETATM   23  C19 UNL     1      20.396  -0.522  53.471  1.00  0.00     0.117 C 
HETATM   24  C20 UNL     1      21.208  -1.147  54.578  1.00  0.00     0.019 C 
HETATM   25  C21 UNL     1      22.659  -1.292  54.222  1.00  0.00     0.003 C 
HETATM   26  C22 UNL     1      23.311  -0.084  53.652  1.00  0.00     0.019 C 
HETATM   27  C23 UNL     1      22.239   0.864  53.159  1.00  0.00     0.117 C 
ENDBRANCH  19  22
BRANCH   4  28
HETATM   28  C5  UNL     1      15.241  -0.852  48.244  1.00  0.00     0.214 A 
HETATM   29  C6  UNL     1      15.014  -1.654  47.192  1.00  0.00     0.079 A 
HETATM   30  F1  UNL     1      16.086  -1.971  47.926  1.00  0.00    -0.360 F 
BRANCH  29  31
HETATM   31  C7  UNL     1      13.828  -1.302  46.381  1.00  0.00     0.179 C 
HETATM   32 CL1  UNL     1      12.677  -0.310  47.320  1.00  0.00    -0.124 Cl
ENDBRANCH  29  31
ENDBRANCH   4  28
TORSDOF 3
ENDMDL
