MODEL 1
REMARK VINA RESULT:      -9.2      0.000      0.000
REMARK  4 active torsions:
REMARK  status: ('A' for Active; 'I' for Inactive)
REMARK    1  A    between atoms: N4_22  and  C15_23 
REMARK    2  A    between atoms: C15_23  and  C16_24 
REMARK    3  A    between atoms: C16_24  and  C17_25 
REMARK    4  A    between atoms: C17_25  and  N5_26 
ROOT
HETATM    1  O1  UNL     1      20.885  -1.571  54.543  1.00  0.00    -0.271 OA
HETATM    2  C1  UNL     1      22.050  -1.069  54.374  1.00  0.00     0.248 A 
HETATM    3  C2  UNL     1      22.817  -1.641  55.512  1.00  0.00     0.279 A 
HETATM    4  O2  UNL     1      24.174  -1.293  55.432  1.00  0.00    -0.340 OA
HETATM    5  C3  UNL     1      24.690  -0.439  54.482  1.00  0.00     0.099 A 
HETATM    6  C4  UNL     1      25.961  -0.173  54.610  1.00  0.00     0.069 C 
HETATM    7  C5  UNL     1      26.456   0.750  53.604  1.00  0.00     0.067 C 
HETATM    8  N1  UNL     1      27.653   1.190  53.910  1.00  0.00    -0.242 NA
HETATM    9  C6  UNL     1      28.279   2.126  53.081  1.00  0.00     0.255 C 
HETATM   10  N2  UNL     1      27.573   2.483  52.125  1.00  0.00    -0.169 NA
HETATM   11  N3  UNL     1      26.281   2.163  51.708  1.00  0.00    -0.280 N 
HETATM   12  C7  UNL     1      25.380   2.859  50.779  1.00  0.00     0.225 C 
HETATM   13  C8  UNL     1      25.657   4.007  50.046  1.00  0.00     0.100 C 
HETATM   14 CL1  UNL     1      26.659   5.388  49.475  1.00  0.00    -0.115 Cl
HETATM   15  C9  UNL     1      24.456   4.138  49.166  1.00  0.00     0.115 C 
HETATM   16  F1  UNL     1      24.218   5.061  48.210  1.00  0.00    -0.209 F 
HETATM   17  C10 UNL     1      23.619   3.158  49.489  1.00  0.00     0.039 C 
HETATM   18  C11 UNL     1      23.198   2.002  50.256  1.00  0.00     0.003 C 
HETATM   19  C12 UNL     1      23.651   1.346  51.258  1.00  0.00     0.012 C 
HETATM   20  C13 UNL     1      24.330   0.765  52.379  1.00  0.00     0.002 C 
HETATM   21  C14 UNL     1      23.856   0.109  53.429  1.00  0.00     0.079 A 
HETATM   22  N4  UNL     1      22.487  -0.155  53.308  1.00  0.00    -0.313 N 
HETATM   23  C22 UNL     1      25.775   0.989  52.282  1.00  0.00     0.192 C 
ENDROOT
BRANCH  22  24
HETATM   24  C15 UNL     1      21.346   0.198  52.583  1.00  0.00     0.134 C 
BRANCH  24  25
HETATM   25  C16 UNL     1      20.778   1.568  53.105  1.00  0.00     0.050 C 
BRANCH  25  26
HETATM   26  C17 UNL     1      19.648   2.067  52.307  1.00  0.00     0.274 C 
BRANCH  26  27
HETATM   27  N5  UNL     1      19.937   3.404  51.832  1.00  0.00     0.092 N 
HETATM   28  C18 UNL     1      21.166   3.931  52.309  1.00  0.00     0.298 C 
HETATM   29  C19 UNL     1      21.575   5.166  51.584  1.00  0.00     0.198 C 
HETATM   30  O3  UNL     1      20.517   5.634  50.804  1.00  0.00    -0.388 OA
HETATM   31  C20 UNL     1      20.333   4.684  49.780  1.00  0.00     0.198 C 
HETATM   32  C21 UNL     1      19.785   3.424  50.409  1.00  0.00     0.298 C 
ENDBRANCH  26  27
ENDBRANCH  25  26
ENDBRANCH  24  25
ENDBRANCH  22  24
TORSDOF 4
ENDMDL
MODEL 2
REMARK VINA RESULT:      -9.0      2.887      4.996
REMARK  4 active torsions:
REMARK  status: ('A' for Active; 'I' for Inactive)
REMARK    1  A    between atoms: N4_22  and  C15_23 
REMARK    2  A    between atoms: C15_23  and  C16_24 
REMARK    3  A    between atoms: C16_24  and  C17_25 
REMARK    4  A    between atoms: C17_25  and  N5_26 
ROOT
HETATM    1  O1  UNL     1      19.877   2.956  50.336  1.00  0.00    -0.271 OA
HETATM    2  C1  UNL     1      20.415   2.193  51.212  1.00  0.00     0.248 A 
HETATM    3  C2  UNL     1      19.234   1.590  51.885  1.00  0.00     0.279 A 
HETATM    4  O2  UNL     1      19.627   0.618  52.817  1.00  0.00    -0.340 OA
HETATM    5  C3  UNL     1      20.940   0.350  53.136  1.00  0.00     0.099 A 
HETATM    6  C4  UNL     1      21.110  -0.535  54.080  1.00  0.00     0.069 C 
HETATM    7  C5  UNL     1      22.506  -0.767  54.403  1.00  0.00     0.067 C 
HETATM    8  N1  UNL     1      22.631  -1.457  55.511  1.00  0.00    -0.242 NA
HETATM    9  C6  UNL     1      23.906  -1.741  56.009  1.00  0.00     0.255 C 
HETATM   10  N2  UNL     1      24.819  -1.245  55.331  1.00  0.00    -0.169 NA
HETATM   11  N3  UNL     1      24.847  -0.448  54.185  1.00  0.00    -0.280 N 
HETATM   12  C7  UNL     1      25.922   0.384  53.629  1.00  0.00     0.225 C 
HETATM   13  C8  UNL     1      27.216   0.517  54.119  1.00  0.00     0.100 C 
HETATM   14 CL1  UNL     1      28.584   0.211  55.247  1.00  0.00    -0.115 Cl
HETATM   15  C9  UNL     1      27.889   1.333  53.063  1.00  0.00     0.115 C 
HETATM   16  F1  UNL     1      29.181   1.721  53.005  1.00  0.00    -0.209 F 
HETATM   17  C10 UNL     1      26.973   1.632  52.148  1.00  0.00     0.039 C 
HETATM   18  C11 UNL     1      25.634   1.623  51.592  1.00  0.00     0.003 C 
HETATM   19  C12 UNL     1      24.484   1.201  51.964  1.00  0.00     0.012 C 
HETATM   20  C13 UNL     1      23.304   0.662  52.573  1.00  0.00     0.002 C 
HETATM   21  C14 UNL     1      22.033   1.019  52.457  1.00  0.00     0.079 A 
HETATM   22  N4  UNL     1      21.850   1.989  51.463  1.00  0.00    -0.313 N 
HETATM   23  C22 UNL     1      23.643  -0.449  53.466  1.00  0.00     0.192 C 
ENDROOT
BRANCH  22  24
HETATM   24  C15 UNL     1      22.537   2.906  50.665  1.00  0.00     0.134 C 
BRANCH  24  25
HETATM   25  C16 UNL     1      22.561   4.315  51.362  1.00  0.00     0.050 C 
BRANCH  25  26
HETATM   26  C17 UNL     1      23.922   4.832  51.574  1.00  0.00     0.274 C 
BRANCH  26  27
HETATM   27  N5  UNL     1      24.376   5.516  50.381  1.00  0.00     0.092 N 
HETATM   28  C18 UNL     1      24.401   6.930  50.502  1.00  0.00     0.298 C 
HETATM   29  C19 UNL     1      25.139   7.584  49.386  1.00  0.00     0.198 C 
HETATM   30  O3  UNL     1      25.388   6.659  48.372  1.00  0.00    -0.388 OA
HETATM   31  C20 UNL     1      26.315   5.738  48.898  1.00  0.00     0.198 C 
HETATM   32  C21 UNL     1      25.610   4.926  49.960  1.00  0.00     0.298 C 
ENDBRANCH  26  27
ENDBRANCH  25  26
ENDBRANCH  24  25
ENDBRANCH  22  24
TORSDOF 4
ENDMDL
MODEL 3
REMARK VINA RESULT:      -8.9      2.479      5.945
REMARK  4 active torsions:
REMARK  status: ('A' for Active; 'I' for Inactive)
REMARK    1  A    between atoms: N4_22  and  C15_23 
REMARK    2  A    between atoms: C15_23  and  C16_24 
REMARK    3  A    between atoms: C16_24  and  C17_25 
REMARK    4  A    between atoms: C17_25  and  N5_26 
ROOT
HETATM    1  O1  UNL     1      22.218  -0.875  53.300  1.00  0.00    -0.271 OA
HETATM    2  C1  UNL     1      22.113   0.342  52.917  1.00  0.00     0.248 A 
HETATM    3  C2  UNL     1      20.721   0.686  53.313  1.00  0.00     0.279 A 
HETATM    4  O2  UNL     1      20.450   2.042  53.077  1.00  0.00    -0.340 OA
HETATM    5  C3  UNL     1      21.329   2.901  52.455  1.00  0.00     0.099 A 
HETATM    6  C4  UNL     1      20.875   4.107  52.254  1.00  0.00     0.069 C 
HETATM    7  C5  UNL     1      21.823   4.970  51.573  1.00  0.00     0.067 C 
HETATM    8  N1  UNL     1      21.251   6.077  51.164  1.00  0.00    -0.242 NA
HETATM    9  C6  UNL     1      21.997   7.016  50.445  1.00  0.00     0.255 C 
HETATM   10  N2  UNL     1      23.163   6.655  50.230  1.00  0.00    -0.169 NA
HETATM   11  N3  UNL     1      23.889   5.502  50.536  1.00  0.00    -0.280 N 
HETATM   12  C7  UNL     1      25.143   4.987  49.970  1.00  0.00     0.225 C 
HETATM   13  C8  UNL     1      25.936   5.593  49.003  1.00  0.00     0.100 C 
HETATM   14 CL1  UNL     1      26.399   6.870  47.824  1.00  0.00    -0.115 Cl
HETATM   15  C9  UNL     1      27.141   4.710  48.962  1.00  0.00     0.115 C 
HETATM   16  F1  UNL     1      28.261   4.861  48.223  1.00  0.00    -0.209 F 
HETATM   17  C10 UNL     1      26.928   3.706  49.806  1.00  0.00     0.039 C 
HETATM   18  C11 UNL     1      26.144   2.953  50.765  1.00  0.00     0.003 C 
HETATM   19  C12 UNL     1      24.961   3.026  51.248  1.00  0.00     0.012 C 
HETATM   20  C13 UNL     1      23.610   3.290  51.650  1.00  0.00     0.002 C 
HETATM   21  C14 UNL     1      22.657   2.467  52.062  1.00  0.00     0.079 A 
HETATM   22  N4  UNL     1      23.134   1.165  52.253  1.00  0.00    -0.313 N 
HETATM   23  C22 UNL     1      23.308   4.720  51.544  1.00  0.00     0.192 C 
ENDROOT
BRANCH  22  24
HETATM   24  C15 UNL     1      24.212   0.323  51.968  1.00  0.00     0.134 C 
BRANCH  24  25
HETATM   25  C16 UNL     1      25.126   0.170  53.239  1.00  0.00     0.050 C 
BRANCH  25  26
HETATM   26  C17 UNL     1      26.131  -0.896  53.102  1.00  0.00     0.274 C 
BRANCH  26  27
HETATM   27  N5  UNL     1      27.460  -0.329  53.204  1.00  0.00     0.092 N 
HETATM   28  C18 UNL     1      27.592   0.652  54.222  1.00  0.00     0.298 C 
HETATM   29  C19 UNL     1      29.013   0.998  54.499  1.00  0.00     0.198 C 
HETATM   30  O3  UNL     1      29.836   0.464  53.507  1.00  0.00    -0.388 OA
HETATM   31  C20 UNL     1      29.790  -0.935  53.667  1.00  0.00     0.198 C 
HETATM   32  C21 UNL     1      28.407  -1.400  53.275  1.00  0.00     0.298 C 
ENDBRANCH  26  27
ENDBRANCH  25  26
ENDBRANCH  24  25
ENDBRANCH  22  24
TORSDOF 4
ENDMDL
MODEL 4
REMARK VINA RESULT:      -8.9      2.108      5.844
REMARK  4 active torsions:
REMARK  status: ('A' for Active; 'I' for Inactive)
REMARK    1  A    between atoms: N4_22  and  C15_23 
REMARK    2  A    between atoms: C15_23  and  C16_24 
REMARK    3  A    between atoms: C16_24  and  C17_25 
REMARK    4  A    between atoms: C17_25  and  N5_26 
ROOT
HETATM    1  O1  UNL     1      23.455  -1.443  55.311  1.00  0.00    -0.271 OA
HETATM    2  C1  UNL     1      22.678  -0.904  54.448  1.00  0.00     0.248 A 
HETATM    3  C2  UNL     1      21.421  -1.683  54.615  1.00  0.00     0.279 A 
HETATM    4  O2  UNL     1      20.392  -1.155  53.820  1.00  0.00    -0.340 OA
HETATM    5  C3  UNL     1      20.569  -0.123  52.925  1.00  0.00     0.099 A 
HETATM    6  C4  UNL     1      19.515   0.183  52.219  1.00  0.00     0.069 C 
HETATM    7  C5  UNL     1      19.753   1.257  51.271  1.00  0.00     0.067 C 
HETATM    8  N1  UNL     1      18.766   1.364  50.415  1.00  0.00    -0.242 NA
HETATM    9  C6  UNL     1      18.836   2.316  49.394  1.00  0.00     0.255 C 
HETATM   10  N2  UNL     1      19.899   2.954  49.391  1.00  0.00    -0.169 NA
HETATM   11  N3  UNL     1      21.051   2.914  50.179  1.00  0.00    -0.280 N 
HETATM   12  C7  UNL     1      22.397   3.445  49.926  1.00  0.00     0.225 C 
HETATM   13  C8  UNL     1      22.814   4.178  48.821  1.00  0.00     0.100 C 
HETATM   14 CL1  UNL     1      22.630   4.999  47.231  1.00  0.00    -0.115 Cl
HETATM   15  C9  UNL     1      24.203   4.584  49.197  1.00  0.00     0.115 C 
HETATM   16  F1  UNL     1      25.063   5.358  48.502  1.00  0.00    -0.209 F 
HETATM   17  C10 UNL     1      24.472   4.035  50.377  1.00  0.00     0.039 C 
HETATM   18  C11 UNL     1      24.165   3.220  51.537  1.00  0.00     0.003 C 
HETATM   19  C12 UNL     1      23.199   2.465  51.903  1.00  0.00     0.012 C 
HETATM   20  C13 UNL     1      22.022   1.673  52.110  1.00  0.00     0.002 C 
HETATM   21  C14 UNL     1      21.846   0.554  52.797  1.00  0.00     0.079 A 
HETATM   22  N4  UNL     1      22.984   0.207  53.535  1.00  0.00    -0.313 N 
HETATM   23  C22 UNL     1      20.877   2.252  51.402  1.00  0.00     0.192 C 
ENDROOT
BRANCH  22  24
HETATM   24  C15 UNL     1      24.347   0.478  53.668  1.00  0.00     0.134 C 
BRANCH  24  25
HETATM   25  C16 UNL     1      25.180  -0.470  52.731  1.00  0.00     0.050 C 
BRANCH  25  26
HETATM   26  C17 UNL     1      26.334   0.199  52.110  1.00  0.00     0.274 C 
BRANCH  26  27
HETATM   27  N5  UNL     1      27.243   0.660  53.138  1.00  0.00     0.092 N 
HETATM   28  C18 UNL     1      28.315  -0.233  53.403  1.00  0.00     0.298 C 
HETATM   29  C19 UNL     1      29.380   0.388  54.238  1.00  0.00     0.198 C 
HETATM   30  O3  UNL     1      28.929   1.599  54.764  1.00  0.00    -0.388 OA
HETATM   31  C20 UNL     1      28.799   2.479  53.672  1.00  0.00     0.198 C 
HETATM   32  C21 UNL     1      27.639   2.000  52.828  1.00  0.00     0.298 C 
ENDBRANCH  26  27
ENDBRANCH  25  26
ENDBRANCH  24  25
ENDBRANCH  22  24
TORSDOF 4
ENDMDL
MODEL 5
REMARK VINA RESULT:      -8.7      2.901      4.756
REMARK  4 active torsions:
REMARK  status: ('A' for Active; 'I' for Inactive)
REMARK    1  A    between atoms: N4_22  and  C15_23 
REMARK    2  A    between atoms: C15_23  and  C16_24 
REMARK    3  A    between atoms: C16_24  and  C17_25 
REMARK    4  A    between atoms: C17_25  and  N5_26 
ROOT
HETATM    1  O1  UNL     1      18.286   2.727  49.961  1.00  0.00    -0.271 OA
HETATM    2  C1  UNL     1      18.917   1.997  50.803  1.00  0.00     0.248 A 
HETATM    3  C2  UNL     1      17.819   1.245  51.466  1.00  0.00     0.279 A 
HETATM    4  O2  UNL     1      18.329   0.289  52.357  1.00  0.00    -0.340 OA
HETATM    5  C3  UNL     1      19.668   0.155  52.652  1.00  0.00     0.099 A 
HETATM    6  C4  UNL     1      19.947  -0.738  53.561  1.00  0.00     0.069 C 
HETATM    7  C5  UNL     1      21.365  -0.827  53.860  1.00  0.00     0.067 C 
HETATM    8  N1  UNL     1      21.580  -1.538  54.941  1.00  0.00    -0.242 NA
HETATM    9  C6  UNL     1      22.886  -1.699  55.414  1.00  0.00     0.255 C 
HETATM   10  N2  UNL     1      23.729  -1.083  54.745  1.00  0.00    -0.169 NA
HETATM   11  N3  UNL     1      23.653  -0.247  53.629  1.00  0.00    -0.280 N 
HETATM   12  C7  UNL     1      24.623   0.716  53.093  1.00  0.00     0.225 C 
HETATM   13  C8  UNL     1      25.902   0.973  53.573  1.00  0.00     0.100 C 
HETATM   14 CL1  UNL     1      27.311   0.779  54.674  1.00  0.00    -0.115 Cl
HETATM   15  C9  UNL     1      26.466   1.894  52.541  1.00  0.00     0.115 C 
HETATM   16  F1  UNL     1      27.707   2.423  52.482  1.00  0.00    -0.209 F 
HETATM   17  C10 UNL     1      25.509   2.124  51.647  1.00  0.00     0.039 C 
HETATM   18  C11 UNL     1      24.171   1.988  51.105  1.00  0.00     0.003 C 
HETATM   19  C12 UNL     1      23.080   1.430  51.474  1.00  0.00     0.012 C 
HETATM   20  C13 UNL     1      21.975   0.744  52.075  1.00  0.00     0.002 C 
HETATM   21  C14 UNL     1      20.671   0.964  51.986  1.00  0.00     0.079 A 
HETATM   22  N4  UNL     1      20.369   1.942  51.031  1.00  0.00    -0.313 N 
HETATM   23  C22 UNL     1      22.446  -0.354  52.924  1.00  0.00     0.192 C 
ENDROOT
BRANCH  22  24
HETATM   24  C15 UNL     1      20.940   2.956  50.260  1.00  0.00     0.134 C 
BRANCH  24  25
HETATM   25  C16 UNL     1      20.730   4.349  50.959  1.00  0.00     0.050 C 
BRANCH  25  26
HETATM   26  C17 UNL     1      21.694   4.603  52.041  1.00  0.00     0.274 C 
BRANCH  26  27
HETATM   27  N5  UNL     1      22.442   5.810  51.755  1.00  0.00     0.092 N 
HETATM   28  C18 UNL     1      23.785   5.574  51.358  1.00  0.00     0.298 C 
HETATM   29  C19 UNL     1      24.434   6.791  50.794  1.00  0.00     0.198 C 
HETATM   30  O3  UNL     1      23.642   7.912  51.043  1.00  0.00    -0.388 OA
HETATM   31  C20 UNL     1      22.480   7.755  50.263  1.00  0.00     0.198 C 
HETATM   32  C21 UNL     1      21.680   6.614  50.849  1.00  0.00     0.298 C 
ENDBRANCH  26  27
ENDBRANCH  25  26
ENDBRANCH  24  25
ENDBRANCH  22  24
TORSDOF 4
ENDMDL
MODEL 6
REMARK VINA RESULT:      -8.5      3.092      5.357
REMARK  4 active torsions:
REMARK  status: ('A' for Active; 'I' for Inactive)
REMARK    1  A    between atoms: N4_22  and  C15_23 
REMARK    2  A    between atoms: C15_23  and  C16_24 
REMARK    3  A    between atoms: C16_24  and  C17_25 
REMARK    4  A    between atoms: C17_25  and  N5_26 
ROOT
HETATM    1  O1  UNL     1      27.460   2.642  51.642  1.00  0.00    -0.271 OA
HETATM    2  C1  UNL     1      26.432   1.982  52.027  1.00  0.00     0.248 A 
HETATM    3  C2  UNL     1      27.031   0.724  52.546  1.00  0.00     0.279 A 
HETATM    4  O2  UNL     1      26.054  -0.096  53.130  1.00  0.00    -0.340 OA
HETATM    5  C3  UNL     1      24.706   0.190  53.114  1.00  0.00     0.099 A 
HETATM    6  C4  UNL     1      23.941  -0.727  53.640  1.00  0.00     0.069 C 
HETATM    7  C5  UNL     1      22.528  -0.397  53.579  1.00  0.00     0.067 C 
HETATM    8  N1  UNL     1      21.784  -1.434  53.877  1.00  0.00    -0.242 NA
HETATM    9  C6  UNL     1      20.391  -1.323  53.828  1.00  0.00     0.255 C 
HETATM   10  N2  UNL     1      20.001  -0.209  53.447  1.00  0.00    -0.169 NA
HETATM   11  N3  UNL     1      20.655   0.954  53.038  1.00  0.00    -0.280 N 
HETATM   12  C7  UNL     1      20.158   2.111  52.281  1.00  0.00     0.225 C 
HETATM   13  C8  UNL     1      18.859   2.326  51.838  1.00  0.00     0.100 C 
HETATM   14 CL1  UNL     1      17.118   1.935  51.605  1.00  0.00    -0.115 Cl
HETATM   15  C9  UNL     1      18.917   3.719  51.300  1.00  0.00     0.115 C 
HETATM   16  F1  UNL     1      17.912   4.457  50.783  1.00  0.00    -0.209 F 
HETATM   17  C10 UNL     1      20.174   4.137  51.415  1.00  0.00     0.039 C 
HETATM   18  C11 UNL     1      21.572   3.984  51.767  1.00  0.00     0.003 C 
HETATM   19  C12 UNL     1      22.314   3.037  52.203  1.00  0.00     0.012 C 
HETATM   20  C13 UNL     1      22.955   1.847  52.681  1.00  0.00     0.002 C 
HETATM   21  C14 UNL     1      24.204   1.426  52.545  1.00  0.00     0.079 A 
HETATM   22  N4  UNL     1      25.023   2.397  51.956  1.00  0.00    -0.313 N 
HETATM   23  C22 UNL     1      22.005   1.006  53.414  1.00  0.00     0.192 C 
ENDROOT
BRANCH  22  24
HETATM   24  C15 UNL     1      24.988   3.596  51.243  1.00  0.00     0.134 C 
BRANCH  24  25
HETATM   25  C16 UNL     1      24.774   3.308  49.712  1.00  0.00     0.050 C 
BRANCH  25  26
HETATM   26  C17 UNL     1      24.184   4.443  48.986  1.00  0.00     0.274 C 
BRANCH  26  27
HETATM   27  N5  UNL     1      23.039   3.994  48.222  1.00  0.00     0.092 N 
HETATM   28  C18 UNL     1      22.606   2.682  48.552  1.00  0.00     0.298 C 
HETATM   29  C19 UNL     1      21.271   2.362  47.974  1.00  0.00     0.198 C 
HETATM   30  O3  UNL     1      20.909   3.335  47.042  1.00  0.00    -0.388 OA
HETATM   31  C20 UNL     1      20.687   4.518  47.772  1.00  0.00     0.198 C 
HETATM   32  C21 UNL     1      22.023   4.999  48.292  1.00  0.00     0.298 C 
ENDBRANCH  26  27
ENDBRANCH  25  26
ENDBRANCH  24  25
ENDBRANCH  22  24
TORSDOF 4
ENDMDL
MODEL 7
REMARK VINA RESULT:      -8.4      2.638      6.315
REMARK  4 active torsions:
REMARK  status: ('A' for Active; 'I' for Inactive)
REMARK    1  A    between atoms: N4_22  and  C15_23 
REMARK    2  A    between atoms: C15_23  and  C16_24 
REMARK    3  A    between atoms: C16_24  and  C17_25 
REMARK    4  A    between atoms: C17_25  and  N5_26 
ROOT
HETATM    1  O1  UNL     1      25.215  -1.022  55.571  1.00  0.00    -0.271 OA
HETATM    2  C1  UNL     1      24.114  -0.859  54.940  1.00  0.00     0.248 A 
HETATM    3  C2  UNL     1      23.199  -1.805  55.633  1.00  0.00     0.279 A 
HETATM    4  O2  UNL     1      21.888  -1.685  55.150  1.00  0.00    -0.340 OA
HETATM    5  C3  UNL     1      21.532  -0.873  54.095  1.00  0.00     0.099 A 
HETATM    6  C4  UNL     1      20.279  -0.948  53.738  1.00  0.00     0.069 C 
HETATM    7  C5  UNL     1      19.955  -0.098  52.607  1.00  0.00     0.067 C 
HETATM    8  N1  UNL     1      18.772  -0.385  52.119  1.00  0.00    -0.242 NA
HETATM    9  C6  UNL     1      18.303   0.301  50.995  1.00  0.00     0.255 C 
HETATM   10  N2  UNL     1      19.121   1.114  50.540  1.00  0.00    -0.169 NA
HETATM   11  N3  UNL     1      20.419   1.481  50.899  1.00  0.00    -0.280 N 
HETATM   12  C7  UNL     1      21.455   2.189  50.135  1.00  0.00     0.225 C 
HETATM   13  C8  UNL     1      21.339   2.714  48.853  1.00  0.00     0.100 C 
HETATM   14 CL1  UNL     1      20.506   3.093  47.304  1.00  0.00    -0.115 Cl
HETATM   15  C9  UNL     1      22.624   3.456  48.680  1.00  0.00     0.115 C 
HETATM   16  F1  UNL     1      23.023   4.200  47.627  1.00  0.00    -0.209 F 
HETATM   17  C10 UNL     1      23.349   3.257  49.777  1.00  0.00     0.039 C 
HETATM   18  C11 UNL     1      23.604   2.689  51.086  1.00  0.00     0.003 C 
HETATM   19  C12 UNL     1      23.008   1.867  51.865  1.00  0.00     0.012 C 
HETATM   20  C13 UNL     1      22.183   0.932  52.572  1.00  0.00     0.002 C 
HETATM   21  C14 UNL     1      22.502  -0.011  53.447  1.00  0.00     0.079 A 
HETATM   22  N4  UNL     1      23.852   0.049  53.813  1.00  0.00    -0.313 N 
HETATM   23  C22 UNL     1      20.776   1.098  52.200  1.00  0.00     0.192 C 
ENDROOT
BRANCH  22  24
HETATM   24  C15 UNL     1      25.080   0.602  53.444  1.00  0.00     0.134 C 
BRANCH  24  25
HETATM   25  C16 UNL     1      25.692  -0.199  52.237  1.00  0.00     0.050 C 
BRANCH  25  26
HETATM   26  C17 UNL     1      26.633  -1.250  52.659  1.00  0.00     0.274 C 
BRANCH  26  27
HETATM   27  N5  UNL     1      27.939  -0.670  52.895  1.00  0.00     0.092 N 
HETATM   28  C18 UNL     1      27.928   0.429  53.794  1.00  0.00     0.298 C 
HETATM   29  C19 UNL     1      29.296   0.812  54.242  1.00  0.00     0.198 C 
HETATM   30  O3  UNL     1      30.252   0.163  53.460  1.00  0.00    -0.388 OA
HETATM   31  C20 UNL     1      30.161  -1.206  53.781  1.00  0.00     0.198 C 
HETATM   32  C21 UNL     1      28.846  -1.721  53.241  1.00  0.00     0.298 C 
ENDBRANCH  26  27
ENDBRANCH  25  26
ENDBRANCH  24  25
ENDBRANCH  22  24
TORSDOF 4
ENDMDL
MODEL 8
REMARK VINA RESULT:      -8.3      3.084      5.430
REMARK  4 active torsions:
REMARK  status: ('A' for Active; 'I' for Inactive)
REMARK    1  A    between atoms: N4_22  and  C15_23 
REMARK    2  A    between atoms: C15_23  and  C16_24 
REMARK    3  A    between atoms: C16_24  and  C17_25 
REMARK    4  A    between atoms: C17_25  and  N5_26 
ROOT
HETATM    1  O1  UNL     1      27.539   2.499  51.875  1.00  0.00    -0.271 OA
HETATM    2  C1  UNL     1      26.480   1.864  52.210  1.00  0.00     0.248 A 
HETATM    3  C2  UNL     1      27.021   0.575  52.718  1.00  0.00     0.279 A 
HETATM    4  O2  UNL     1      26.000  -0.227  53.250  1.00  0.00    -0.340 OA
HETATM    5  C3  UNL     1      24.663   0.102  53.197  1.00  0.00     0.099 A 
HETATM    6  C4  UNL     1      23.853  -0.802  53.676  1.00  0.00     0.069 C 
HETATM    7  C5  UNL     1      22.454  -0.426  53.576  1.00  0.00     0.067 C 
HETATM    8  N1  UNL     1      21.668  -1.446  53.825  1.00  0.00    -0.242 NA
HETATM    9  C6  UNL     1      20.282  -1.290  53.734  1.00  0.00     0.255 C 
HETATM   10  N2  UNL     1      19.940  -0.156  53.366  1.00  0.00    -0.169 NA
HETATM   11  N3  UNL     1      20.643   0.995  53.007  1.00  0.00    -0.280 N 
HETATM   12  C7  UNL     1      20.207   2.184  52.263  1.00  0.00     0.225 C 
HETATM   13  C8  UNL     1      18.931   2.450  51.782  1.00  0.00     0.100 C 
HETATM   14 CL1  UNL     1      17.188   2.121  51.484  1.00  0.00    -0.115 Cl
HETATM   15  C9  UNL     1      19.050   3.853  51.280  1.00  0.00     0.115 C 
HETATM   16  F1  UNL     1      18.086   4.634  50.748  1.00  0.00    -0.209 F 
HETATM   17  C10 UNL     1      20.314   4.229  51.446  1.00  0.00     0.039 C 
HETATM   18  C11 UNL     1      21.694   4.023  51.840  1.00  0.00     0.003 C 
HETATM   19  C12 UNL     1      22.392   3.043  52.277  1.00  0.00     0.012 C 
HETATM   20  C13 UNL     1      22.980   1.823  52.747  1.00  0.00     0.002 C 
HETATM   21  C14 UNL     1      24.219   1.366  52.642  1.00  0.00     0.079 A 
HETATM   22  N4  UNL     1      25.087   2.324  52.103  1.00  0.00    -0.313 N 
HETATM   23  C22 UNL     1      21.980   0.996  53.429  1.00  0.00     0.192 C 
ENDROOT
BRANCH  22  24
HETATM   24  C15 UNL     1      25.112   3.540  51.418  1.00  0.00     0.134 C 
BRANCH  24  25
HETATM   25  C16 UNL     1      24.960   3.292  49.873  1.00  0.00     0.050 C 
BRANCH  25  26
HETATM   26  C17 UNL     1      25.095   4.520  49.074  1.00  0.00     0.274 C 
BRANCH  26  27
HETATM   27  N5  UNL     1      24.529   5.639  49.799  1.00  0.00     0.092 N 
HETATM   28  C18 UNL     1      25.409   6.747  49.927  1.00  0.00     0.298 C 
HETATM   29  C19 UNL     1      24.714   7.973  50.408  1.00  0.00     0.198 C 
HETATM   30  O3  UNL     1      23.434   7.649  50.860  1.00  0.00    -0.388 OA
HETATM   31  C20 UNL     1      22.699   7.268  49.721  1.00  0.00     0.198 C 
HETATM   32  C21 UNL     1      23.251   5.948  49.234  1.00  0.00     0.298 C 
ENDBRANCH  26  27
ENDBRANCH  25  26
ENDBRANCH  24  25
ENDBRANCH  22  24
TORSDOF 4
ENDMDL
MODEL 9
REMARK VINA RESULT:      -8.2      2.881      4.653
REMARK  4 active torsions:
REMARK  status: ('A' for Active; 'I' for Inactive)
REMARK    1  A    between atoms: N4_22  and  C15_23 
REMARK    2  A    between atoms: C15_23  and  C16_24 
REMARK    3  A    between atoms: C16_24  and  C17_25 
REMARK    4  A    between atoms: C17_25  and  N5_26 
ROOT
HETATM    1  O1  UNL     1      16.889   0.643  50.716  1.00  0.00    -0.271 OA
HETATM    2  C1  UNL     1      17.855   0.259  51.463  1.00  0.00     0.248 A 
HETATM    3  C2  UNL     1      17.179  -0.657  52.420  1.00  0.00     0.279 A 
HETATM    4  O2  UNL     1      18.110  -1.281  53.264  1.00  0.00    -0.340 OA
HETATM    5  C3  UNL     1      19.456  -0.987  53.268  1.00  0.00     0.099 A 
HETATM    6  C4  UNL     1      20.156  -1.614  54.174  1.00  0.00     0.069 C 
HETATM    7  C5  UNL     1      21.562  -1.255  54.161  1.00  0.00     0.067 C 
HETATM    8  N1  UNL     1      22.177  -1.700  55.230  1.00  0.00    -0.242 NA
HETATM    9  C6  UNL     1      23.533  -1.413  55.417  1.00  0.00     0.255 C 
HETATM   10  N2  UNL     1      24.010  -0.697  54.524  1.00  0.00    -0.169 NA
HETATM   11  N3  UNL     1      23.481  -0.101  53.379  1.00  0.00    -0.280 N 
HETATM   12  C7  UNL     1      23.996   1.000  52.553  1.00  0.00     0.225 C 
HETATM   13  C8  UNL     1      25.199   1.675  52.714  1.00  0.00     0.100 C 
HETATM   14 CL1  UNL     1      26.776   2.058  53.492  1.00  0.00    -0.115 Cl
HETATM   15  C9  UNL     1      25.257   2.545  51.500  1.00  0.00     0.115 C 
HETATM   16  F1  UNL     1      26.244   3.384  51.121  1.00  0.00    -0.209 F 
HETATM   17  C10 UNL     1      24.130   2.356  50.821  1.00  0.00     0.039 C 
HETATM   18  C11 UNL     1      22.823   1.768  50.602  1.00  0.00     0.003 C 
HETATM   19  C12 UNL     1      22.041   0.992  51.253  1.00  0.00     0.012 C 
HETATM   20  C13 UNL     1      21.327   0.126  52.145  1.00  0.00     0.002 C 
HETATM   21  C14 UNL     1      20.025  -0.044  52.324  1.00  0.00     0.079 A 
HETATM   22  N4  UNL     1      19.270   0.649  51.370  1.00  0.00    -0.313 N 
HETATM   23  C22 UNL     1      22.258  -0.650  52.969  1.00  0.00     0.192 C 
ENDROOT
BRANCH  22  24
HETATM   24  C15 UNL     1      19.353   1.649  50.400  1.00  0.00     0.134 C 
BRANCH  24  25
HETATM   25  C16 UNL     1      19.135   3.060  51.060  1.00  0.00     0.050 C 
BRANCH  25  26
HETATM   26  C17 UNL     1      18.691   4.084  50.101  1.00  0.00     0.274 C 
BRANCH  26  27
HETATM   27  N5  UNL     1      17.271   4.321  50.262  1.00  0.00     0.092 N 
HETATM   28  C18 UNL     1      16.470   3.728  49.251  1.00  0.00     0.298 C 
HETATM   29  C19 UNL     1      15.021   3.736  49.596  1.00  0.00     0.198 C 
HETATM   30  O3  UNL     1      14.798   4.559  50.701  1.00  0.00    -0.388 OA
HETATM   31  C20 UNL     1      15.405   3.917  51.799  1.00  0.00     0.198 C 
HETATM   32  C21 UNL     1      16.902   3.979  51.602  1.00  0.00     0.298 C 
ENDBRANCH  26  27
ENDBRANCH  25  26
ENDBRANCH  24  25
ENDBRANCH  22  24
TORSDOF 4
ENDMDL
