MODEL 1
REMARK VINA RESULT:      -7.9      0.000      0.000
REMARK  7 active torsions:
REMARK  status: ('A' for Active; 'I' for Inactive)
REMARK    1  A    between atoms: C2_2  and  O1_3 
REMARK    2  A    between atoms: O1_3  and  C3_4 
REMARK    3  A    between atoms: C5_6  and  S1_7 
REMARK    4  A    between atoms: S1_7  and  C6_8 
REMARK    5  A    between atoms: C11_15  and  O2_16 
REMARK    6  A    between atoms: C13_18  and  O3_19 
REMARK    7  A    between atoms: C17_23  and  O4_24 
ROOT
HETATM    1  C6  UNL     1      25.252   3.886  50.668  1.00  0.00     0.112 A 
HETATM    2  N1  UNL     1      24.170   4.102  51.437  1.00  0.00    -0.234 NA
HETATM    3  C7  UNL     1      23.608   5.313  51.588  1.00  0.00     0.234 A 
HETATM    4  N2  UNL     1      24.117   6.412  50.957  1.00  0.00    -0.241 NA
HETATM    5  C8  UNL     1      25.215   6.268  50.160  1.00  0.00     0.073 A 
HETATM    6  C9  UNL     1      25.736   5.019  50.047  1.00  0.00     0.028 A 
HETATM    7  C10 UNL     1      26.800   4.779  49.300  1.00  0.00     0.025 A 
HETATM    8  C11 UNL     1      27.760   5.479  48.417  1.00  0.00     0.167 A 
HETATM    9  C12 UNL     1      27.508   6.920  48.281  1.00  0.00     0.045 A 
HETATM   10  C13 UNL     1      26.612   7.765  48.767  1.00  0.00     0.067 A 
HETATM   11  C14 UNL     1      25.530   7.445  49.657  1.00  0.00     0.069 A 
ENDROOT
BRANCH   1  12
HETATM   12  S1  UNL     1      26.037   2.300  50.430  1.00  0.00    -0.070 SA
BRANCH  12  13
HETATM   13  C5  UNL     1      25.646   1.278  51.846  1.00  0.00     0.009 A 
HETATM   14  C4  UNL     1      26.703   0.767  52.591  1.00  0.00     0.058 A 
HETATM   15  C3  UNL     1      26.574  -0.042  53.718  1.00  0.00     0.103 A 
HETATM   16  C17 UNL     1      25.274  -0.354  54.116  1.00  0.00     0.101 A 
HETATM   17  C16 UNL     1      24.215   0.142  53.390  1.00  0.00     0.041 A 
HETATM   18  C15 UNL     1      24.397   0.941  52.280  1.00  0.00     0.022 A 
BRANCH  15  19
HETATM   19  O1  UNL     1      27.597  -0.537  54.440  1.00  0.00    -0.349 OA
BRANCH  19  20
HETATM   20  C2  UNL     1      28.886  -0.089  54.599  1.00  0.00     0.171 C 
HETATM   21  C1  UNL     1      29.815  -0.909  53.735  1.00  0.00     0.034 C 
ENDBRANCH  19  20
ENDBRANCH  15  19
BRANCH  16  22
HETATM   22  O4  UNL     1      25.050  -1.156  55.228  1.00  0.00    -0.353 OA
HETATM   23  C18 UNL     1      23.707  -1.364  55.621  1.00  0.00     0.210 C 
ENDBRANCH  16  22
ENDBRANCH  12  13
ENDBRANCH   1  12
BRANCH   8  24
HETATM   24  O2  UNL     1      29.033   5.269  48.995  1.00  0.00    -0.388 OA
HETATM   25  H10 UNL     1      29.092   4.330  49.300  1.00  0.00     0.210 HD
ENDBRANCH   8  24
BRANCH  10  26
HETATM   26  O3  UNL     1      26.780   9.085  48.341  1.00  0.00    -0.361 OA
HETATM   27  H12 UNL     1      26.714   9.841  49.011  1.00  0.00     0.217 HD
ENDBRANCH  10  26
TORSDOF 7
ENDMDL
MODEL 2
REMARK VINA RESULT:      -7.8      2.037      8.438
REMARK  7 active torsions:
REMARK  status: ('A' for Active; 'I' for Inactive)
REMARK    1  A    between atoms: C2_2  and  O1_3 
REMARK    2  A    between atoms: O1_3  and  C3_4 
REMARK    3  A    between atoms: C5_6  and  S1_7 
REMARK    4  A    between atoms: S1_7  and  C6_8 
REMARK    5  A    between atoms: C11_15  and  O2_16 
REMARK    6  A    between atoms: C13_18  and  O3_19 
REMARK    7  A    between atoms: C17_23  and  O4_24 
ROOT
HETATM    1  C6  UNL     1      26.277   2.163  51.932  1.00  0.00     0.112 A 
HETATM    2  N1  UNL     1      27.526   2.601  52.170  1.00  0.00    -0.234 NA
HETATM    3  C7  UNL     1      28.257   2.197  53.223  1.00  0.00     0.234 A 
HETATM    4  N2  UNL     1      27.758   1.302  54.126  1.00  0.00    -0.241 NA
HETATM    5  C8  UNL     1      26.497   0.814  53.948  1.00  0.00     0.073 A 
HETATM    6  C9  UNL     1      25.810   1.260  52.865  1.00  0.00     0.028 A 
HETATM    7  C10 UNL     1      24.581   0.848  52.608  1.00  0.00     0.025 A 
HETATM    8  C11 UNL     1      23.538  -0.053  53.151  1.00  0.00     0.167 A 
HETATM    9  C12 UNL     1      23.933  -0.752  54.382  1.00  0.00     0.045 A 
HETATM   10  C13 UNL     1      25.017  -0.773  55.142  1.00  0.00     0.067 A 
HETATM   11  C14 UNL     1      26.226  -0.026  54.927  1.00  0.00     0.069 A 
ENDROOT
BRANCH   1  12
HETATM   12  S1  UNL     1      25.264   2.665  50.550  1.00  0.00    -0.070 SA
BRANCH  12  13
HETATM   13  C5  UNL     1      25.976   4.156  49.862  1.00  0.00     0.009 A 
HETATM   14  C4  UNL     1      25.374   5.369  50.178  1.00  0.00     0.058 A 
HETATM   15  C3  UNL     1      25.800   6.617  49.729  1.00  0.00     0.103 A 
HETATM   16  C17 UNL     1      26.920   6.632  48.897  1.00  0.00     0.101 A 
HETATM   17  C16 UNL     1      27.529   5.440  48.574  1.00  0.00     0.041 A 
HETATM   18  C15 UNL     1      27.067   4.229  49.046  1.00  0.00     0.022 A 
BRANCH  15  19
HETATM   19  O1  UNL     1      25.218   7.793  50.034  1.00  0.00    -0.349 OA
BRANCH  19  20
HETATM   20  C2  UNL     1      23.988   8.074  50.577  1.00  0.00     0.171 C 
HETATM   21  C1  UNL     1      23.024   8.450  49.478  1.00  0.00     0.034 C 
ENDBRANCH  19  20
ENDBRANCH  15  19
BRANCH  16  22
HETATM   22  O4  UNL     1      27.415   7.832  48.402  1.00  0.00    -0.353 OA
HETATM   23  C18 UNL     1      27.141   8.139  47.049  1.00  0.00     0.210 C 
ENDBRANCH  16  22
ENDBRANCH  12  13
ENDBRANCH   1  12
BRANCH   8  24
HETATM   24  O2  UNL     1      22.418   0.770  53.406  1.00  0.00    -0.388 OA
HETATM   25  H10 UNL     1      21.653   0.196  53.657  1.00  0.00     0.210 HD
ENDBRANCH   8  24
BRANCH  10  26
HETATM   26  O3  UNL     1      24.923  -1.620  56.249  1.00  0.00    -0.361 OA
HETATM   27  H12 UNL     1      24.175  -1.490  56.918  1.00  0.00     0.217 HD
ENDBRANCH  10  26
TORSDOF 7
ENDMDL
MODEL 3
REMARK VINA RESULT:      -7.8      1.224      2.743
REMARK  7 active torsions:
REMARK  status: ('A' for Active; 'I' for Inactive)
REMARK    1  A    between atoms: C2_2  and  O1_3 
REMARK    2  A    between atoms: O1_3  and  C3_4 
REMARK    3  A    between atoms: C5_6  and  S1_7 
REMARK    4  A    between atoms: S1_7  and  C6_8 
REMARK    5  A    between atoms: C11_15  and  O2_16 
REMARK    6  A    between atoms: C13_18  and  O3_19 
REMARK    7  A    between atoms: C17_23  and  O4_24 
ROOT
HETATM    1  C6  UNL     1      24.576   4.942  50.191  1.00  0.00     0.112 A 
HETATM    2  N1  UNL     1      23.549   5.433  50.907  1.00  0.00    -0.234 NA
HETATM    3  C7  UNL     1      23.431   6.734  51.222  1.00  0.00     0.234 A 
HETATM    4  N2  UNL     1      24.367   7.645  50.824  1.00  0.00    -0.241 NA
HETATM    5  C8  UNL     1      25.436   7.218  50.092  1.00  0.00     0.073 A 
HETATM    6  C9  UNL     1      25.499   5.892  49.806  1.00  0.00     0.028 A 
HETATM    7  C10 UNL     1      26.497   5.383  49.105  1.00  0.00     0.025 A 
HETATM    8  C11 UNL     1      27.745   5.796  48.424  1.00  0.00     0.167 A 
HETATM    9  C12 UNL     1      28.031   7.234  48.517  1.00  0.00     0.045 A 
HETATM   10  C13 UNL     1      27.432   8.275  49.075  1.00  0.00     0.067 A 
HETATM   11  C14 UNL     1      26.203   8.256  49.820  1.00  0.00     0.069 A 
ENDROOT
BRANCH   1  12
HETATM   12  S1  UNL     1      24.782   3.226  49.743  1.00  0.00    -0.070 SA
BRANCH  12  13
HETATM   13  C5  UNL     1      25.484   2.373  51.151  1.00  0.00     0.009 A 
HETATM   14  C4  UNL     1      24.649   1.541  51.889  1.00  0.00     0.058 A 
HETATM   15  C3  UNL     1      25.034   0.807  53.009  1.00  0.00     0.103 A 
HETATM   16  C17 UNL     1      26.366   0.929  53.407  1.00  0.00     0.101 A 
HETATM   17  C16 UNL     1      27.207   1.748  52.688  1.00  0.00     0.041 A 
HETATM   18  C15 UNL     1      26.775   2.454  51.585  1.00  0.00     0.022 A 
BRANCH  15  19
HETATM   19  O1  UNL     1      24.227   0.001  53.725  1.00  0.00    -0.349 OA
BRANCH  19  20
HETATM   20  C2  UNL     1      22.996  -0.532  53.429  1.00  0.00     0.171 C 
HETATM   21  C1  UNL     1      22.289  -0.910  54.709  1.00  0.00     0.034 C 
ENDBRANCH  19  20
ENDBRANCH  15  19
BRANCH  16  22
HETATM   22  O4  UNL     1      26.838   0.234  54.514  1.00  0.00    -0.353 OA
HETATM   23  C18 UNL     1      28.239   0.181  54.700  1.00  0.00     0.210 C 
ENDBRANCH  16  22
ENDBRANCH  12  13
ENDBRANCH   1  12
BRANCH   8  24
HETATM   24  O2  UNL     1      28.781   5.061  49.046  1.00  0.00    -0.388 OA
HETATM   25  H10 UNL     1      28.797   5.288  50.008  1.00  0.00     0.210 HD
ENDBRANCH   8  24
BRANCH  10  26
HETATM   26  O3  UNL     1      28.103   9.487  48.893  1.00  0.00    -0.361 OA
HETATM   27  H12 UNL     1      28.709   9.609  48.092  1.00  0.00     0.217 HD
ENDBRANCH  10  26
TORSDOF 7
ENDMDL
MODEL 4
REMARK VINA RESULT:      -7.7      2.207      7.917
REMARK  7 active torsions:
REMARK  status: ('A' for Active; 'I' for Inactive)
REMARK    1  A    between atoms: C2_2  and  O1_3 
REMARK    2  A    between atoms: O1_3  and  C3_4 
REMARK    3  A    between atoms: C5_6  and  S1_7 
REMARK    4  A    between atoms: S1_7  and  C6_8 
REMARK    5  A    between atoms: C11_15  and  O2_16 
REMARK    6  A    between atoms: C13_18  and  O3_19 
REMARK    7  A    between atoms: C17_23  and  O4_24 
ROOT
HETATM    1  C6  UNL     1      26.984   2.048  52.025  1.00  0.00     0.112 A 
HETATM    2  N1  UNL     1      28.167   2.528  52.450  1.00  0.00    -0.234 NA
HETATM    3  C7  UNL     1      28.701   2.211  53.641  1.00  0.00     0.234 A 
HETATM    4  N2  UNL     1      28.058   1.369  54.502  1.00  0.00    -0.241 NA
HETATM    5  C8  UNL     1      26.853   0.843  54.138  1.00  0.00     0.073 A 
HETATM    6  C9  UNL     1      26.366   1.201  52.921  1.00  0.00     0.028 A 
HETATM    7  C10 UNL     1      25.206   0.746  52.480  1.00  0.00     0.025 A 
HETATM    8  C11 UNL     1      24.092  -0.138  52.892  1.00  0.00     0.167 A 
HETATM    9  C12 UNL     1      24.266  -0.744  54.220  1.00  0.00     0.045 A 
HETATM   10  C13 UNL     1      25.198  -0.690  55.159  1.00  0.00     0.067 A 
HETATM   11  C14 UNL     1      26.419   0.066  55.110  1.00  0.00     0.069 A 
ENDROOT
BRANCH   1  12
HETATM   12  S1  UNL     1      26.229   2.434  50.454  1.00  0.00    -0.070 SA
BRANCH  12  13
HETATM   13  C5  UNL     1      25.373   3.996  50.626  1.00  0.00     0.009 A 
HETATM   14  C4  UNL     1      25.861   5.086  49.914  1.00  0.00     0.058 A 
HETATM   15  C3  UNL     1      25.315   6.368  49.936  1.00  0.00     0.103 A 
HETATM   16  C17 UNL     1      24.190   6.553  50.741  1.00  0.00     0.101 A 
HETATM   17  C16 UNL     1      23.694   5.485  51.453  1.00  0.00     0.041 A 
HETATM   18  C15 UNL     1      24.272   4.234  51.397  1.00  0.00     0.022 A 
BRANCH  15  19
HETATM   19  O1  UNL     1      25.786   7.425  49.247  1.00  0.00    -0.349 OA
BRANCH  19  20
HETATM   20  C2  UNL     1      27.038   7.991  49.212  1.00  0.00     0.171 C 
HETATM   21  C1  UNL     1      27.113   9.111  50.221  1.00  0.00     0.034 C 
ENDBRANCH  19  20
ENDBRANCH  15  19
BRANCH  16  22
HETATM   22  O4  UNL     1      23.580   7.799  50.823  1.00  0.00    -0.353 OA
HETATM   23  C18 UNL     1      22.245   7.900  50.367  1.00  0.00     0.210 C 
ENDBRANCH  16  22
ENDBRANCH  12  13
ENDBRANCH   1  12
BRANCH   8  24
HETATM   24  O2  UNL     1      22.937   0.677  52.886  1.00  0.00    -0.388 OA
HETATM   25  H10 UNL     1      22.532   0.648  51.984  1.00  0.00     0.210 HD
ENDBRANCH   8  24
BRANCH  10  26
HETATM   26  O3  UNL     1      24.915  -1.462  56.289  1.00  0.00    -0.361 OA
HETATM   27  H12 UNL     1      23.955  -1.587  56.584  1.00  0.00     0.217 HD
ENDBRANCH  10  26
TORSDOF 7
ENDMDL
MODEL 5
REMARK VINA RESULT:      -7.7      1.931      8.087
REMARK  7 active torsions:
REMARK  status: ('A' for Active; 'I' for Inactive)
REMARK    1  A    between atoms: C2_2  and  O1_3 
REMARK    2  A    between atoms: O1_3  and  C3_4 
REMARK    3  A    between atoms: C5_6  and  S1_7 
REMARK    4  A    between atoms: S1_7  and  C6_8 
REMARK    5  A    between atoms: C11_15  and  O2_16 
REMARK    6  A    between atoms: C13_18  and  O3_19 
REMARK    7  A    between atoms: C17_23  and  O4_24 
ROOT
HETATM    1  C6  UNL     1      26.258   2.140  51.878  1.00  0.00     0.112 A 
HETATM    2  N1  UNL     1      27.502   2.598  52.110  1.00  0.00    -0.234 NA
HETATM    3  C7  UNL     1      28.235   2.221  53.171  1.00  0.00     0.234 A 
HETATM    4  N2  UNL     1      27.746   1.335  54.088  1.00  0.00    -0.241 NA
HETATM    5  C8  UNL     1      26.492   0.828  53.916  1.00  0.00     0.073 A 
HETATM    6  C9  UNL     1      25.801   1.248  52.825  1.00  0.00     0.028 A 
HETATM    7  C10 UNL     1      24.577   0.816  52.573  1.00  0.00     0.025 A 
HETATM    8  C11 UNL     1      23.545  -0.089  53.129  1.00  0.00     0.167 A 
HETATM    9  C12 UNL     1      23.946  -0.761  54.373  1.00  0.00     0.045 A 
HETATM   10  C13 UNL     1      25.029  -0.756  55.135  1.00  0.00     0.067 A 
HETATM   11  C14 UNL     1      26.229   0.002  54.909  1.00  0.00     0.069 A 
ENDROOT
BRANCH   1  12
HETATM   12  S1  UNL     1      25.242   2.606  50.486  1.00  0.00    -0.070 SA
BRANCH  12  13
HETATM   13  C5  UNL     1      25.668   4.284  50.034  1.00  0.00     0.009 A 
HETATM   14  C4  UNL     1      26.767   4.474  49.202  1.00  0.00     0.058 A 
HETATM   15  C3  UNL     1      27.233   5.709  48.757  1.00  0.00     0.103 A 
HETATM   16  C17 UNL     1      26.528   6.834  49.189  1.00  0.00     0.101 A 
HETATM   17  C16 UNL     1      25.439   6.665  50.013  1.00  0.00     0.041 A 
HETATM   18  C15 UNL     1      25.018   5.418  50.426  1.00  0.00     0.022 A 
BRANCH  15  19
HETATM   19  O1  UNL     1      28.296   5.895  47.951  1.00  0.00    -0.349 OA
BRANCH  19  20
HETATM   20  C2  UNL     1      29.637   5.702  48.174  1.00  0.00     0.171 C 
HETATM   21  C1  UNL     1      30.347   7.034  48.164  1.00  0.00     0.034 C 
ENDBRANCH  19  20
ENDBRANCH  15  19
BRANCH  16  22
HETATM   22  O4  UNL     1      26.922   8.107  48.794  1.00  0.00    -0.353 OA
HETATM   23  C18 UNL     1      27.463   8.957  49.787  1.00  0.00     0.210 C 
ENDBRANCH  16  22
ENDBRANCH  12  13
ENDBRANCH   1  12
BRANCH   8  24
HETATM   24  O2  UNL     1      22.414   0.725  53.369  1.00  0.00    -0.388 OA
HETATM   25  H10 UNL     1      21.691   0.162  53.741  1.00  0.00     0.210 HD
ENDBRANCH   8  24
BRANCH  10  26
HETATM   26  O3  UNL     1      24.943  -1.585  56.256  1.00  0.00    -0.361 OA
HETATM   27  H12 UNL     1      24.669  -1.196  57.149  1.00  0.00     0.217 HD
ENDBRANCH  10  26
TORSDOF 7
ENDMDL
MODEL 6
REMARK VINA RESULT:      -7.6      2.577      8.349
REMARK  7 active torsions:
REMARK  status: ('A' for Active; 'I' for Inactive)
REMARK    1  A    between atoms: C2_2  and  O1_3 
REMARK    2  A    between atoms: O1_3  and  C3_4 
REMARK    3  A    between atoms: C5_6  and  S1_7 
REMARK    4  A    between atoms: S1_7  and  C6_8 
REMARK    5  A    between atoms: C11_15  and  O2_16 
REMARK    6  A    between atoms: C13_18  and  O3_19 
REMARK    7  A    between atoms: C17_23  and  O4_24 
ROOT
HETATM    1  C6  UNL     1      24.250   2.014  51.572  1.00  0.00     0.112 A 
HETATM    2  N1  UNL     1      25.542   1.688  51.761  1.00  0.00    -0.234 NA
HETATM    3  C7  UNL     1      25.937   0.716  52.600  1.00  0.00     0.234 A 
HETATM    4  N2  UNL     1      25.029  -0.007  53.321  1.00  0.00    -0.241 NA
HETATM    5  C8  UNL     1      23.701   0.269  53.180  1.00  0.00     0.073 A 
HETATM    6  C9  UNL     1      23.365   1.262  52.316  1.00  0.00     0.028 A 
HETATM    7  C10 UNL     1      22.105   1.604  52.113  1.00  0.00     0.025 A 
HETATM    8  C11 UNL     1      20.736   1.242  52.547  1.00  0.00     0.167 A 
HETATM    9  C12 UNL     1      20.688   0.149  53.528  1.00  0.00     0.045 A 
HETATM   10  C13 UNL     1      21.590  -0.608  54.134  1.00  0.00     0.067 A 
HETATM   11  C14 UNL     1      23.015  -0.542  53.961  1.00  0.00     0.069 A 
ENDROOT
BRANCH   1  12
HETATM   12  S1  UNL     1      23.670   3.294  50.470  1.00  0.00    -0.070 SA
BRANCH  12  13
HETATM   13  C5  UNL     1      25.103   4.136  49.807  1.00  0.00     0.009 A 
HETATM   14  C4  UNL     1      25.040   5.519  49.676  1.00  0.00     0.058 A 
HETATM   15  C3  UNL     1      26.063   6.325  49.179  1.00  0.00     0.103 A 
HETATM   16  C17 UNL     1      27.235   5.676  48.789  1.00  0.00     0.101 A 
HETATM   17  C16 UNL     1      27.314   4.307  48.911  1.00  0.00     0.041 A 
HETATM   18  C15 UNL     1      26.272   3.554  49.410  1.00  0.00     0.022 A 
BRANCH  15  19
HETATM   19  O1  UNL     1      26.004   7.664  49.052  1.00  0.00    -0.349 OA
BRANCH  19  20
HETATM   20  C2  UNL     1      25.949   8.657  50.000  1.00  0.00     0.171 C 
HETATM   21  C1  UNL     1      27.328   9.239  50.201  1.00  0.00     0.034 C 
ENDBRANCH  19  20
ENDBRANCH  15  19
BRANCH  16  22
HETATM   22  O4  UNL     1      28.307   6.400  48.282  1.00  0.00    -0.353 OA
HETATM   23  C18 UNL     1      29.547   5.731  48.166  1.00  0.00     0.210 C 
ENDBRANCH  16  22
ENDBRANCH  12  13
ENDBRANCH   1  12
BRANCH   8  24
HETATM   24  O2  UNL     1      20.193   2.418  53.114  1.00  0.00    -0.388 OA
HETATM   25  H10 UNL     1      20.926   3.062  53.274  1.00  0.00     0.210 HD
ENDBRANCH   8  24
BRANCH  10  26
HETATM   26  O3  UNL     1      21.050  -1.546  55.016  1.00  0.00    -0.361 OA
HETATM   27  H12 UNL     1      20.613  -1.235  55.874  1.00  0.00     0.217 HD
ENDBRANCH  10  26
TORSDOF 7
ENDMDL
MODEL 7
REMARK VINA RESULT:      -7.5      2.659      8.136
REMARK  7 active torsions:
REMARK  status: ('A' for Active; 'I' for Inactive)
REMARK    1  A    between atoms: C2_2  and  O1_3 
REMARK    2  A    between atoms: O1_3  and  C3_4 
REMARK    3  A    between atoms: C5_6  and  S1_7 
REMARK    4  A    between atoms: S1_7  and  C6_8 
REMARK    5  A    between atoms: C11_15  and  O2_16 
REMARK    6  A    between atoms: C13_18  and  O3_19 
REMARK    7  A    between atoms: C17_23  and  O4_24 
ROOT
HETATM    1  C6  UNL     1      23.868   2.093  51.192  1.00  0.00     0.112 A 
HETATM    2  N1  UNL     1      25.186   1.838  51.289  1.00  0.00    -0.234 NA
HETATM    3  C7  UNL     1      25.698   0.944  52.152  1.00  0.00     0.234 A 
HETATM    4  N2  UNL     1      24.892   0.234  52.994  1.00  0.00    -0.241 NA
HETATM    5  C8  UNL     1      23.544   0.440  52.951  1.00  0.00     0.073 A 
HETATM    6  C9  UNL     1      23.087   1.355  52.058  1.00  0.00     0.028 A 
HETATM    7  C10 UNL     1      21.799   1.627  51.943  1.00  0.00     0.025 A 
HETATM    8  C11 UNL     1      20.491   1.236  52.517  1.00  0.00     0.167 A 
HETATM    9  C12 UNL     1      20.580   0.212  53.568  1.00  0.00     0.045 A 
HETATM   10  C13 UNL     1      21.567  -0.461  54.140  1.00  0.00     0.067 A 
HETATM   11  C14 UNL     1      22.968  -0.344  53.841  1.00  0.00     0.069 A 
ENDROOT
BRANCH   1  12
HETATM   12  S1  UNL     1      23.134   3.266  50.063  1.00  0.00    -0.070 SA
BRANCH  12  13
HETATM   13  C5  UNL     1      24.049   4.798  50.196  1.00  0.00     0.009 A 
HETATM   14  C4  UNL     1      25.240   4.908  49.487  1.00  0.00     0.058 A 
HETATM   15  C3  UNL     1      26.071   6.027  49.480  1.00  0.00     0.103 A 
HETATM   16  C17 UNL     1      25.658   7.114  50.251  1.00  0.00     0.101 A 
HETATM   17  C16 UNL     1      24.482   7.023  50.960  1.00  0.00     0.041 A 
HETATM   18  C15 UNL     1      23.695   5.891  50.933  1.00  0.00     0.022 A 
BRANCH  15  19
HETATM   19  O1  UNL     1      27.224   6.134  48.793  1.00  0.00    -0.349 OA
BRANCH  19  20
HETATM   20  C2  UNL     1      28.151   5.185  48.437  1.00  0.00     0.171 C 
HETATM   21  C1  UNL     1      29.433   5.863  48.019  1.00  0.00     0.034 C 
ENDBRANCH  19  20
ENDBRANCH  15  19
BRANCH  16  22
HETATM   22  O4  UNL     1      26.424   8.272  50.304  1.00  0.00    -0.353 OA
HETATM   23  C18 UNL     1      25.985   9.377  49.539  1.00  0.00     0.210 C 
ENDBRANCH  16  22
ENDBRANCH  12  13
ENDBRANCH   1  12
BRANCH   8  24
HETATM   24  O2  UNL     1      19.939   2.422  53.051  1.00  0.00    -0.388 OA
HETATM   25  H10 UNL     1      19.723   3.036  52.306  1.00  0.00     0.210 HD
ENDBRANCH   8  24
BRANCH  10  26
HETATM   26  O3  UNL     1      21.150  -1.358  55.126  1.00  0.00    -0.361 OA
HETATM   27  H12 UNL     1      20.251  -1.232  55.572  1.00  0.00     0.217 HD
ENDBRANCH  10  26
TORSDOF 7
ENDMDL
MODEL 8
REMARK VINA RESULT:      -7.3      2.633      7.345
REMARK  7 active torsions:
REMARK  status: ('A' for Active; 'I' for Inactive)
REMARK    1  A    between atoms: C2_2  and  O1_3 
REMARK    2  A    between atoms: O1_3  and  C3_4 
REMARK    3  A    between atoms: C5_6  and  S1_7 
REMARK    4  A    between atoms: S1_7  and  C6_8 
REMARK    5  A    between atoms: C11_15  and  O2_16 
REMARK    6  A    between atoms: C13_18  and  O3_19 
REMARK    7  A    between atoms: C17_23  and  O4_24 
ROOT
HETATM    1  C6  UNL     1      23.851   2.046  53.126  1.00  0.00     0.112 A 
HETATM    2  N1  UNL     1      22.764   1.260  53.021  1.00  0.00    -0.234 NA
HETATM    3  C7  UNL     1      22.825  -0.082  53.033  1.00  0.00     0.234 A 
HETATM    4  N2  UNL     1      24.020  -0.733  53.155  1.00  0.00    -0.241 NA
HETATM    5  C8  UNL     1      25.164  -0.000  53.267  1.00  0.00     0.073 A 
HETATM    6  C9  UNL     1      25.037   1.352  53.249  1.00  0.00     0.028 A 
HETATM    7  C10 UNL     1      26.088   2.147  53.349  1.00  0.00     0.025 A 
HETATM    8  C11 UNL     1      27.560   2.086  53.496  1.00  0.00     0.167 A 
HETATM    9  C12 UNL     1      28.099   0.720  53.558  1.00  0.00     0.045 A 
HETATM   10  C13 UNL     1      27.578  -0.497  53.512  1.00  0.00     0.067 A 
HETATM   11  C14 UNL     1      26.186  -0.826  53.373  1.00  0.00     0.069 A 
ENDROOT
BRANCH   1  12
HETATM   12  S1  UNL     1      23.827   3.831  53.118  1.00  0.00    -0.070 SA
BRANCH  12  13
HETATM   13  C5  UNL     1      23.492   4.366  51.443  1.00  0.00     0.009 A 
HETATM   14  C4  UNL     1      24.561   4.826  50.682  1.00  0.00     0.058 A 
HETATM   15  C3  UNL     1      24.474   5.277  49.366  1.00  0.00     0.103 A 
HETATM   16  C17 UNL     1      23.207   5.258  48.783  1.00  0.00     0.101 A 
HETATM   17  C16 UNL     1      22.137   4.806  49.521  1.00  0.00     0.041 A 
HETATM   18  C15 UNL     1      22.276   4.370  50.822  1.00  0.00     0.022 A 
BRANCH  15  19
HETATM   19  O1  UNL     1      25.509   5.723  48.628  1.00  0.00    -0.349 OA
BRANCH  19  20
HETATM   20  C2  UNL     1      26.853   5.448  48.704  1.00  0.00     0.171 C 
HETATM   21  C1  UNL     1      27.641   6.714  48.464  1.00  0.00     0.034 C 
ENDBRANCH  19  20
ENDBRANCH  15  19
BRANCH  16  22
HETATM   22  O4  UNL     1      23.027   5.690  47.474  1.00  0.00    -0.353 OA
HETATM   23  C18 UNL     1      22.192   4.910  46.641  1.00  0.00     0.210 C 
ENDBRANCH  16  22
ENDBRANCH  12  13
ENDBRANCH   1  12
BRANCH   8  24
HETATM   24  O2  UNL     1      28.084   2.757  52.368  1.00  0.00    -0.388 OA
HETATM   25  H10 UNL     1      27.577   3.594  52.232  1.00  0.00     0.210 HD
ENDBRANCH   8  24
BRANCH  10  26
HETATM   26  O3  UNL     1      28.519  -1.525  53.611  1.00  0.00    -0.361 OA
HETATM   27  H12 UNL     1      28.334  -2.418  53.174  1.00  0.00     0.217 HD
ENDBRANCH  10  26
TORSDOF 7
ENDMDL
MODEL 9
REMARK VINA RESULT:      -7.2      1.684      2.142
REMARK  7 active torsions:
REMARK  status: ('A' for Active; 'I' for Inactive)
REMARK    1  A    between atoms: C2_2  and  O1_3 
REMARK    2  A    between atoms: O1_3  and  C3_4 
REMARK    3  A    between atoms: C5_6  and  S1_7 
REMARK    4  A    between atoms: S1_7  and  C6_8 
REMARK    5  A    between atoms: C11_15  and  O2_16 
REMARK    6  A    between atoms: C13_18  and  O3_19 
REMARK    7  A    between atoms: C17_23  and  O4_24 
ROOT
HETATM    1  C6  UNL     1      24.510   5.261  49.919  1.00  0.00     0.112 A 
HETATM    2  N1  UNL     1      23.472   5.783  50.596  1.00  0.00    -0.234 NA
HETATM    3  C7  UNL     1      23.416   7.072  50.973  1.00  0.00     0.234 A 
HETATM    4  N2  UNL     1      24.432   7.937  50.682  1.00  0.00    -0.241 NA
HETATM    5  C8  UNL     1      25.517   7.477  49.996  1.00  0.00     0.073 A 
HETATM    6  C9  UNL     1      25.514   6.166  49.643  1.00  0.00     0.028 A 
HETATM    7  C10 UNL     1      26.521   5.626  48.979  1.00  0.00     0.025 A 
HETATM    8  C11 UNL     1      27.835   5.988  48.398  1.00  0.00     0.167 A 
HETATM    9  C12 UNL     1      28.204   7.398  48.586  1.00  0.00     0.045 A 
HETATM   10  C13 UNL     1      27.637   8.448  49.161  1.00  0.00     0.067 A 
HETATM   11  C14 UNL     1      26.364   8.473  49.827  1.00  0.00     0.069 A 
ENDROOT
BRANCH   1  12
HETATM   12  S1  UNL     1      24.635   3.559  49.393  1.00  0.00    -0.070 SA
BRANCH  12  13
HETATM   13  C5  UNL     1      23.936   2.535  50.684  1.00  0.00     0.009 A 
HETATM   14  C4  UNL     1      24.805   1.995  51.627  1.00  0.00     0.058 A 
HETATM   15  C3  UNL     1      24.427   1.180  52.692  1.00  0.00     0.103 A 
HETATM   16  C17 UNL     1      23.066   0.894  52.806  1.00  0.00     0.101 A 
HETATM   17  C16 UNL     1      22.192   1.419  51.882  1.00  0.00     0.041 A 
HETATM   18  C15 UNL     1      22.618   2.222  50.844  1.00  0.00     0.022 A 
BRANCH  15  19
HETATM   19  O1  UNL     1      25.267   0.658  53.606  1.00  0.00    -0.349 OA
BRANCH  19  20
HETATM   20  C2  UNL     1      26.526   0.125  53.470  1.00  0.00     0.171 C 
HETATM   21  C1  UNL     1      26.431  -1.232  52.813  1.00  0.00     0.034 C 
ENDBRANCH  19  20
ENDBRANCH  15  19
BRANCH  16  22
HETATM   22  O4  UNL     1      22.600   0.089  53.838  1.00  0.00    -0.353 OA
HETATM   23  C18 UNL     1      22.232  -1.237  53.512  1.00  0.00     0.210 C 
ENDBRANCH  16  22
ENDBRANCH  12  13
ENDBRANCH   1  12
BRANCH   8  24
HETATM   24  O2  UNL     1      28.779   5.157  49.042  1.00  0.00    -0.388 OA
HETATM   25  H10 UNL     1      28.347   4.732  49.824  1.00  0.00     0.210 HD
ENDBRANCH   8  24
BRANCH  10  26
HETATM   26  O3  UNL     1      28.394   9.619  49.085  1.00  0.00    -0.361 OA
HETATM   27  H12 UNL     1      28.189  10.391  49.707  1.00  0.00     0.217 HD
ENDBRANCH  10  26
TORSDOF 7
ENDMDL
