MODEL 1
REMARK VINA RESULT:      -8.0      0.000      0.000
REMARK  5 active torsions:
REMARK  status: ('A' for Active; 'I' for Inactive)
REMARK    1  A    between atoms: O1_2  and  C2_3 
REMARK    2  A    between atoms: C2_3  and  C3_4 
REMARK    3  A    between atoms: C8_12  and  N3_13 
REMARK    4  A    between atoms: C18_25  and  C19_26 
REMARK    5  A    between atoms: C19_26  and  O4_27 
ROOT
HETATM    1  C3  UNL     1      24.935   5.653  48.976  1.00  0.00     0.184 C 
HETATM    2  O2  UNL     1      25.741   4.497  49.269  1.00  0.00    -0.338 OA
HETATM    3  C4  UNL     1      25.447   3.801  50.426  1.00  0.00     0.104 A 
HETATM    4  C5  UNL     1      26.142   2.654  50.537  1.00  0.00     0.068 A 
HETATM    5  C6  UNL     1      25.885   1.884  51.716  1.00  0.00     0.051 A 
HETATM    6  N1  UNL     1      26.660   0.854  51.644  1.00  0.00    -0.246 NA
HETATM    7  C7  UNL     1      26.989  -0.311  52.373  1.00  0.00     0.229 C 
HETATM    8  N2  UNL     1      26.638  -0.848  53.484  1.00  0.00    -0.253 NA
HETATM    9  C8  UNL     1      25.705  -0.519  54.568  1.00  0.00     0.235 C 
HETATM   10  C9  UNL     1      24.447  -0.058  53.869  1.00  0.00    -0.006 A 
HETATM   11  C10 UNL     1      23.573  -1.078  54.102  1.00  0.00     0.012 A 
HETATM   12  C11 UNL     1      22.286  -1.062  53.614  1.00  0.00     0.002 A 
HETATM   13  C12 UNL     1      21.940   0.047  52.878  1.00  0.00     0.024 A 
HETATM   14  C13 UNL     1      22.837   1.060  52.657  1.00  0.00     0.042 A 
HETATM   15 CL1  UNL     1      22.308   2.406  51.700  1.00  0.00    -0.084 Cl
HETATM   16  C14 UNL     1      24.121   1.082  53.124  1.00  0.00    -0.013 A 
HETATM   17  C15 UNL     1      24.919   2.243  52.791  1.00  0.00     0.098 A 
HETATM   18  C16 UNL     1      24.252   3.507  52.539  1.00  0.00     0.028 A 
HETATM   19  C17 UNL     1      24.493   4.245  51.430  1.00  0.00     0.100 A 
HETATM   20  O3  UNL     1      23.953   5.436  51.049  1.00  0.00    -0.339 OA
HETATM   21  C18 UNL     1      24.801   6.377  50.305  1.00  0.00     0.184 C 
ENDROOT
BRANCH   1  22
HETATM   22  C2  UNL     1      23.578   5.120  48.609  1.00  0.00     0.202 C 
BRANCH  22  23
HETATM   23  O1  UNL     1      23.074   5.770  47.510  1.00  0.00    -0.393 OA
HETATM   24  C1  UNL     1      21.759   5.437  47.271  1.00  0.00     0.201 C 
ENDBRANCH  22  23
ENDBRANCH   1  22
BRANCH  21  25
HETATM   25  C19 UNL     1      24.130   7.695  50.253  1.00  0.00     0.202 C 
BRANCH  25  26
HETATM   26  O4  UNL     1      22.892   7.758  50.712  1.00  0.00    -0.393 OA
HETATM   27  C20 UNL     1      21.760   8.012  50.087  1.00  0.00     0.201 C 
ENDBRANCH  25  26
ENDBRANCH  21  25
BRANCH   9  28
HETATM   28  N3  UNL     1      26.224   0.648  55.246  1.00  0.00    -0.406 N 
HETATM   29  H10 UNL     1      26.890   1.198  54.689  1.00  0.00     0.152 HD
HETATM   30  H11 UNL     1      26.452   0.489  56.231  1.00  0.00     0.152 HD
ENDBRANCH   9  28
TORSDOF 5
ENDMDL
MODEL 2
REMARK VINA RESULT:      -7.5      4.219      6.368
REMARK  5 active torsions:
REMARK  status: ('A' for Active; 'I' for Inactive)
REMARK    1  A    between atoms: O1_2  and  C2_3 
REMARK    2  A    between atoms: C2_3  and  C3_4 
REMARK    3  A    between atoms: C8_12  and  N3_13 
REMARK    4  A    between atoms: C18_25  and  C19_26 
REMARK    5  A    between atoms: C19_26  and  O4_27 
ROOT
HETATM    1  C3  UNL     1      24.663   3.487  52.377  1.00  0.00     0.184 C 
HETATM    2  O2  UNL     1      23.297   3.938  52.330  1.00  0.00    -0.338 OA
HETATM    3  C4  UNL     1      22.343   3.020  51.931  1.00  0.00     0.104 A 
HETATM    4  C5  UNL     1      21.086   3.480  52.068  1.00  0.00     0.068 A 
HETATM    5  C6  UNL     1      20.048   2.578  51.670  1.00  0.00     0.051 A 
HETATM    6  N1  UNL     1      18.938   3.211  51.850  1.00  0.00    -0.246 NA
HETATM    7  C7  UNL     1      17.545   3.024  51.704  1.00  0.00     0.229 C 
HETATM    8  N2  UNL     1      16.765   2.092  51.291  1.00  0.00    -0.253 NA
HETATM    9  C8  UNL     1      16.932   0.735  50.758  1.00  0.00     0.235 C 
HETATM   10  C9  UNL     1      17.972   0.096  51.648  1.00  0.00    -0.006 A 
HETATM   11  C10 UNL     1      17.250  -0.813  52.363  1.00  0.00     0.012 A 
HETATM   12  C11 UNL     1      17.830  -1.616  53.319  1.00  0.00     0.002 A 
HETATM   13  C12 UNL     1      19.181  -1.443  53.506  1.00  0.00     0.024 A 
HETATM   14  C13 UNL     1      19.885  -0.522  52.774  1.00  0.00     0.042 A 
HETATM   15 CL1  UNL     1      21.582  -0.368  53.098  1.00  0.00    -0.084 Cl
HETATM   16  C14 UNL     1      19.348   0.292  51.817  1.00  0.00    -0.013 A 
HETATM   17  C15 UNL     1      20.254   1.200  51.145  1.00  0.00     0.098 A 
HETATM   18  C16 UNL     1      21.659   0.846  51.045  1.00  0.00     0.028 A 
HETATM   19  C17 UNL     1      22.646   1.696  51.413  1.00  0.00     0.100 A 
HETATM   20  O3  UNL     1      23.997   1.516  51.386  1.00  0.00    -0.339 OA
HETATM   21  C18 UNL     1      24.846   2.680  51.102  1.00  0.00     0.184 C 
ENDROOT
BRANCH   1  22
HETATM   22  C2  UNL     1      24.735   2.531  53.535  1.00  0.00     0.202 C 
BRANCH  22  23
HETATM   23  O1  UNL     1      25.996   2.510  54.079  1.00  0.00    -0.393 OA
HETATM   24  C1  UNL     1      26.438   1.226  54.308  1.00  0.00     0.201 C 
ENDBRANCH  22  23
ENDBRANCH   1  22
BRANCH  21  25
HETATM   25  C19 UNL     1      26.225   2.217  50.829  1.00  0.00     0.202 C 
BRANCH  25  26
HETATM   26  O4  UNL     1      26.877   2.817  49.848  1.00  0.00    -0.393 OA
HETATM   27  C20 UNL     1      26.743   4.027  49.346  1.00  0.00     0.201 C 
ENDBRANCH  25  26
ENDBRANCH  21  25
BRANCH   9  28
HETATM   28  N3  UNL     1      17.551   0.854  49.457  1.00  0.00    -0.406 N 
HETATM   29  H10 UNL     1      17.211   0.174  48.764  1.00  0.00     0.152 HD
HETATM   30  H11 UNL     1      18.559   1.027  49.491  1.00  0.00     0.152 HD
ENDBRANCH   9  28
TORSDOF 5
ENDMDL
MODEL 3
REMARK VINA RESULT:      -7.5      6.903      9.565
REMARK  5 active torsions:
REMARK  status: ('A' for Active; 'I' for Inactive)
REMARK    1  A    between atoms: O1_2  and  C2_3 
REMARK    2  A    between atoms: C2_3  and  C3_4 
REMARK    3  A    between atoms: C8_12  and  N3_13 
REMARK    4  A    between atoms: C18_25  and  C19_26 
REMARK    5  A    between atoms: C19_26  and  O4_27 
ROOT
HETATM    1  C3  UNL     1      33.402   8.278  47.811  1.00  0.00     0.184 C 
HETATM    2  O2  UNL     1      32.323   8.885  48.545  1.00  0.00    -0.338 OA
HETATM    3  C4  UNL     1      31.041   8.462  48.246  1.00  0.00     0.104 A 
HETATM    4  C5  UNL     1      30.116   8.964  49.085  1.00  0.00     0.068 A 
HETATM    5  C6  UNL     1      28.765   8.567  48.830  1.00  0.00     0.051 A 
HETATM    6  N1  UNL     1      28.043   9.170  49.714  1.00  0.00    -0.246 NA
HETATM    7  C7  UNL     1      26.694   9.297  50.112  1.00  0.00     0.229 C 
HETATM    8  N2  UNL     1      25.558   8.843  49.722  1.00  0.00    -0.253 NA
HETATM    9  C8  UNL     1      25.086   7.953  48.654  1.00  0.00     0.235 C 
HETATM   10  C9  UNL     1      26.060   6.799  48.655  1.00  0.00    -0.006 A 
HETATM   11  C10 UNL     1      25.318   5.770  49.154  1.00  0.00     0.012 A 
HETATM   12  C11 UNL     1      25.845   4.511  49.335  1.00  0.00     0.002 A 
HETATM   13  C12 UNL     1      27.165   4.359  48.982  1.00  0.00     0.024 A 
HETATM   14  C13 UNL     1      27.890   5.409  48.482  1.00  0.00     0.042 A 
HETATM   15 CL1  UNL     1      29.553   5.118  48.083  1.00  0.00    -0.084 Cl
HETATM   16  C14 UNL     1      27.405   6.671  48.286  1.00  0.00    -0.013 A 
HETATM   17  C15 UNL     1      28.324   7.650  47.743  1.00  0.00     0.098 A 
HETATM   18  C16 UNL     1      29.427   7.196  46.916  1.00  0.00     0.028 A 
HETATM   19  C17 UNL     1      30.707   7.572  47.146  1.00  0.00     0.100 A 
HETATM   20  O3  UNL     1      31.842   7.234  46.473  1.00  0.00    -0.339 OA
HETATM   21  C18 UNL     1      32.913   8.235  46.372  1.00  0.00     0.184 C 
ENDROOT
BRANCH   1  22
HETATM   22  C2  UNL     1      33.484   6.861  48.306  1.00  0.00     0.202 C 
BRANCH  22  23
HETATM   23  O1  UNL     1      34.787   6.490  48.527  1.00  0.00    -0.393 OA
HETATM   24  C1  UNL     1      34.941   5.122  48.536  1.00  0.00     0.201 C 
ENDBRANCH  22  23
ENDBRANCH   1  22
BRANCH  21  25
HETATM   25  C19 UNL     1      33.905   7.783  45.371  1.00  0.00     0.202 C 
BRANCH  25  26
HETATM   26  O4  UNL     1      33.632   6.668  44.715  1.00  0.00    -0.393 OA
HETATM   27  C20 UNL     1      34.137   5.457  44.838  1.00  0.00     0.201 C 
ENDBRANCH  25  26
ENDBRANCH  21  25
BRANCH   9  28
HETATM   28  N3  UNL     1      25.294   8.638  47.398  1.00  0.00    -0.406 N 
HETATM   29  H10 UNL     1      24.709   9.474  47.271  1.00  0.00     0.152 HD
HETATM   30  H11 UNL     1      25.400   8.011  46.595  1.00  0.00     0.152 HD
ENDBRANCH   9  28
TORSDOF 5
ENDMDL
MODEL 4
REMARK VINA RESULT:      -7.3      7.840     10.033
REMARK  5 active torsions:
REMARK  status: ('A' for Active; 'I' for Inactive)
REMARK    1  A    between atoms: O1_2  and  C2_3 
REMARK    2  A    between atoms: C2_3  and  C3_4 
REMARK    3  A    between atoms: C8_12  and  N3_13 
REMARK    4  A    between atoms: C18_25  and  C19_26 
REMARK    5  A    between atoms: C19_26  and  O4_27 
ROOT
HETATM    1  C3  UNL     1      29.855  10.034  49.333  1.00  0.00     0.184 C 
HETATM    2  O2  UNL     1      31.069   9.339  49.674  1.00  0.00    -0.338 OA
HETATM    3  C4  UNL     1      31.322   8.151  49.014  1.00  0.00     0.104 A 
HETATM    4  C5  UNL     1      32.545   7.656  49.280  1.00  0.00     0.068 A 
HETATM    5  C6  UNL     1      32.871   6.424  48.628  1.00  0.00     0.051 A 
HETATM    6  N1  UNL     1      34.056   6.110  49.032  1.00  0.00    -0.246 NA
HETATM    7  C7  UNL     1      35.029   5.100  48.864  1.00  0.00     0.229 C 
HETATM    8  N2  UNL     1      35.132   4.002  48.207  1.00  0.00    -0.253 NA
HETATM    9  C8  UNL     1      34.280   3.236  47.289  1.00  0.00     0.235 C 
HETATM   10  C9  UNL     1      33.691   4.269  46.357  1.00  0.00    -0.006 A 
HETATM   11  C10 UNL     1      34.328   4.019  45.177  1.00  0.00     0.012 A 
HETATM   12  C11 UNL     1      34.084   4.763  44.046  1.00  0.00     0.002 A 
HETATM   13  C12 UNL     1      33.161   5.772  44.180  1.00  0.00     0.024 A 
HETATM   14  C13 UNL     1      32.534   6.004  45.377  1.00  0.00     0.042 A 
HETATM   15 CL1  UNL     1      31.398   7.313  45.448  1.00  0.00    -0.084 Cl
HETATM   16  C14 UNL     1      32.746   5.289  46.522  1.00  0.00    -0.013 A 
HETATM   17  C15 UNL     1      31.985   5.680  47.690  1.00  0.00     0.098 A 
HETATM   18  C16 UNL     1      30.699   6.329  47.507  1.00  0.00     0.028 A 
HETATM   19  C17 UNL     1      30.380   7.490  48.125  1.00  0.00     0.100 A 
HETATM   20  O3  UNL     1      29.231   8.220  48.055  1.00  0.00    -0.339 OA
HETATM   21  C18 UNL     1      28.797   8.946  49.255  1.00  0.00     0.184 C 
ENDROOT
BRANCH   1  22
HETATM   22  C2  UNL     1      30.068  10.561  47.941  1.00  0.00     0.202 C 
BRANCH  22  23
HETATM   23  O1  UNL     1      30.588  11.832  47.970  1.00  0.00    -0.393 OA
HETATM   24  C1  UNL     1      30.015  12.603  48.957  1.00  0.00     0.201 C 
ENDBRANCH  22  23
ENDBRANCH   1  22
BRANCH  21  25
HETATM   25  C19 UNL     1      27.407   9.416  49.059  1.00  0.00     0.202 C 
BRANCH  25  26
HETATM   26  O4  UNL     1      26.493   8.957  49.896  1.00  0.00    -0.393 OA
HETATM   27  C20 UNL     1      26.043   7.733  50.082  1.00  0.00     0.201 C 
ENDBRANCH  25  26
ENDBRANCH  21  25
BRANCH   9  28
HETATM   28  N3  UNL     1      33.168   2.724  48.057  1.00  0.00    -0.406 N 
HETATM   29  H10 UNL     1      33.047   1.704  47.996  1.00  0.00     0.152 HD
HETATM   30  H11 UNL     1      32.324   3.302  48.003  1.00  0.00     0.152 HD
ENDBRANCH   9  28
TORSDOF 5
ENDMDL
MODEL 5
REMARK VINA RESULT:      -7.3      1.657      2.216
REMARK  5 active torsions:
REMARK  status: ('A' for Active; 'I' for Inactive)
REMARK    1  A    between atoms: O1_2  and  C2_3 
REMARK    2  A    between atoms: C2_3  and  C3_4 
REMARK    3  A    between atoms: C8_12  and  N3_13 
REMARK    4  A    between atoms: C18_25  and  C19_26 
REMARK    5  A    between atoms: C19_26  and  O4_27 
ROOT
HETATM    1  C3  UNL     1      21.828   6.239  48.833  1.00  0.00     0.184 C 
HETATM    2  O2  UNL     1      23.042   5.466  48.820  1.00  0.00    -0.338 OA
HETATM    3  C4  UNL     1      23.376   4.797  49.983  1.00  0.00     0.104 A 
HETATM    4  C5  UNL     1      24.434   3.981  49.831  1.00  0.00     0.068 A 
HETATM    5  C6  UNL     1      24.834   3.258  51.000  1.00  0.00     0.051 A 
HETATM    6  N1  UNL     1      25.868   2.566  50.655  1.00  0.00    -0.246 NA
HETATM    7  C7  UNL     1      26.793   1.648  51.201  1.00  0.00     0.229 C 
HETATM    8  N2  UNL     1      27.005   1.104  52.344  1.00  0.00    -0.253 NA
HETATM    9  C8  UNL     1      26.384   1.161  53.673  1.00  0.00     0.235 C 
HETATM   10  C9  UNL     1      24.898   1.096  53.408  1.00  0.00    -0.006 A 
HETATM   11  C10 UNL     1      24.559  -0.146  53.854  1.00  0.00     0.012 A 
HETATM   12  C11 UNL     1      23.269  -0.620  53.782  1.00  0.00     0.002 A 
HETATM   13  C12 UNL     1      22.346   0.237  53.231  1.00  0.00     0.024 A 
HETATM   14  C13 UNL     1      22.712   1.483  52.789  1.00  0.00     0.042 A 
HETATM   15 CL1  UNL     1      21.477   2.482  52.094  1.00  0.00    -0.084 Cl
HETATM   16  C14 UNL     1      23.979   1.991  52.844  1.00  0.00    -0.013 A 
HETATM   17  C15 UNL     1      24.171   3.331  52.331  1.00  0.00     0.098 A 
HETATM   18  C16 UNL     1      23.053   4.257  52.346  1.00  0.00     0.028 A 
HETATM   19  C17 UNL     1      22.672   4.949  51.247  1.00  0.00     0.100 A 
HETATM   20  O3  UNL     1      21.653   5.841  51.096  1.00  0.00    -0.339 OA
HETATM   21  C18 UNL     1      21.846   6.964  50.168  1.00  0.00     0.184 C 
ENDROOT
BRANCH   1  22
HETATM   22  C2  UNL     1      20.709   5.236  48.875  1.00  0.00     0.202 C 
BRANCH  22  23
HETATM   23  O1  UNL     1      20.773   4.381  47.802  1.00  0.00    -0.393 OA
HETATM   24  C1  UNL     1      20.475   3.084  48.157  1.00  0.00     0.201 C 
ENDBRANCH  22  23
ENDBRANCH   1  22
BRANCH  21  25
HETATM   25  C19 UNL     1      20.765   7.953  50.376  1.00  0.00     0.202 C 
BRANCH  25  26
HETATM   26  O4  UNL     1      20.582   8.852  49.424  1.00  0.00    -0.393 OA
HETATM   27  C20 UNL     1      19.472   9.302  48.875  1.00  0.00     0.201 C 
ENDBRANCH  25  26
ENDBRANCH  21  25
BRANCH   9  28
HETATM   28  N3  UNL     1      26.627   2.482  54.208  1.00  0.00    -0.406 N 
HETATM   29  H10 UNL     1      26.940   2.490  55.187  1.00  0.00     0.152 HD
HETATM   30  H11 UNL     1      25.930   3.178  53.930  1.00  0.00     0.152 HD
ENDBRANCH   9  28
TORSDOF 5
ENDMDL
MODEL 6
REMARK VINA RESULT:      -7.1      3.353      7.323
REMARK  5 active torsions:
REMARK  status: ('A' for Active; 'I' for Inactive)
REMARK    1  A    between atoms: O1_2  and  C2_3 
REMARK    2  A    between atoms: C2_3  and  C3_4 
REMARK    3  A    between atoms: C8_12  and  N3_13 
REMARK    4  A    between atoms: C18_25  and  C19_26 
REMARK    5  A    between atoms: C19_26  and  O4_27 
ROOT
HETATM    1  C3  UNL     1      24.238   1.147  53.458  1.00  0.00     0.184 C 
HETATM    2  O2  UNL     1      23.982   2.563  53.434  1.00  0.00    -0.338 OA
HETATM    3  C4  UNL     1      24.207   3.224  52.241  1.00  0.00     0.104 A 
HETATM    4  C5  UNL     1      23.794   4.504  52.267  1.00  0.00     0.068 A 
HETATM    5  C6  UNL     1      23.999   5.248  51.061  1.00  0.00     0.051 A 
HETATM    6  N1  UNL     1      23.568   6.441  51.300  1.00  0.00    -0.246 NA
HETATM    7  C7  UNL     1      23.428   7.693  50.663  1.00  0.00     0.229 C 
HETATM    8  N2  UNL     1      23.702   8.192  49.513  1.00  0.00    -0.253 NA
HETATM    9  C8  UNL     1      24.306   7.705  48.266  1.00  0.00     0.235 C 
HETATM   10  C9  UNL     1      23.676   6.351  48.036  1.00  0.00    -0.006 A 
HETATM   11  C10 UNL     1      22.860   6.569  46.966  1.00  0.00     0.012 A 
HETATM   12  C11 UNL     1      22.076   5.572  46.432  1.00  0.00     0.002 A 
HETATM   13  C12 UNL     1      22.168   4.345  47.046  1.00  0.00     0.024 A 
HETATM   14  C13 UNL     1      22.997   4.151  48.120  1.00  0.00     0.042 A 
HETATM   15 CL1  UNL     1      23.029   2.570  48.834  1.00  0.00    -0.084 Cl
HETATM   16  C14 UNL     1      23.791   5.112  48.678  1.00  0.00    -0.013 A 
HETATM   17  C15 UNL     1      24.604   4.716  49.809  1.00  0.00     0.098 A 
HETATM   18  C16 UNL     1      25.008   3.326  49.933  1.00  0.00     0.028 A 
HETATM   19  C17 UNL     1      24.824   2.618  51.071  1.00  0.00     0.100 A 
HETATM   20  O3  UNL     1      25.138   1.321  51.344  1.00  0.00    -0.339 OA
HETATM   21  C18 UNL     1      25.551   0.979  52.711  1.00  0.00     0.184 C 
ENDROOT
BRANCH   1  22
HETATM   22  C2  UNL     1      23.156   0.525  52.620  1.00  0.00     0.202 C 
BRANCH  22  23
HETATM   23  O1  UNL     1      22.166  -0.009  53.409  1.00  0.00    -0.393 OA
HETATM   24  C1  UNL     1      22.669  -0.877  54.352  1.00  0.00     0.201 C 
ENDBRANCH  22  23
ENDBRANCH   1  22
BRANCH  21  25
HETATM   25  C19 UNL     1      26.122  -0.386  52.717  1.00  0.00     0.202 C 
BRANCH  25  26
HETATM   26  O4  UNL     1      26.864  -0.724  53.758  1.00  0.00    -0.393 OA
HETATM   27  C20 UNL     1      27.680  -0.001  54.497  1.00  0.00     0.201 C 
ENDBRANCH  25  26
ENDBRANCH  21  25
BRANCH   9  28
HETATM   28  N3  UNL     1      25.703   7.445  48.536  1.00  0.00    -0.406 N 
HETATM   29  H10 UNL     1      26.279   8.291  48.634  1.00  0.00     0.152 HD
HETATM   30  H11 UNL     1      26.093   6.669  47.994  1.00  0.00     0.152 HD
ENDBRANCH   9  28
TORSDOF 5
ENDMDL
MODEL 7
REMARK VINA RESULT:      -7.0      4.697      6.966
REMARK  5 active torsions:
REMARK  status: ('A' for Active; 'I' for Inactive)
REMARK    1  A    between atoms: O1_2  and  C2_3 
REMARK    2  A    between atoms: C2_3  and  C3_4 
REMARK    3  A    between atoms: C8_12  and  N3_13 
REMARK    4  A    between atoms: C18_25  and  C19_26 
REMARK    5  A    between atoms: C19_26  and  O4_27 
ROOT
HETATM    1  C3  UNL     1      29.540   8.059  47.427  1.00  0.00     0.184 C 
HETATM    2  O2  UNL     1      28.750   6.880  47.667  1.00  0.00    -0.338 OA
HETATM    3  C4  UNL     1      27.698   6.997  48.556  1.00  0.00     0.104 A 
HETATM    4  C5  UNL     1      26.925   5.896  48.599  1.00  0.00     0.068 A 
HETATM    5  C6  UNL     1      25.817   5.950  49.503  1.00  0.00     0.051 A 
HETATM    6  N1  UNL     1      25.229   4.804  49.415  1.00  0.00    -0.246 NA
HETATM    7  C7  UNL     1      24.125   4.105  49.952  1.00  0.00     0.229 C 
HETATM    8  N2  UNL     1      23.204   4.335  50.816  1.00  0.00    -0.253 NA
HETATM    9  C8  UNL     1      22.829   5.455  51.687  1.00  0.00     0.235 C 
HETATM   10  C9  UNL     1      22.949   6.682  50.813  1.00  0.00    -0.006 A 
HETATM   11  C10 UNL     1      21.651   7.051  50.620  1.00  0.00     0.012 A 
HETATM   12  C11 UNL     1      21.310   8.140  49.851  1.00  0.00     0.002 A 
HETATM   13  C12 UNL     1      22.359   8.829  49.290  1.00  0.00     0.024 A 
HETATM   14  C13 UNL     1      23.656   8.438  49.499  1.00  0.00     0.042 A 
HETATM   15 CL1  UNL     1      24.907   9.364  48.733  1.00  0.00    -0.084 Cl
HETATM   16  C14 UNL     1      24.036   7.366  50.256  1.00  0.00    -0.013 A 
HETATM   17  C15 UNL     1      25.458   7.111  50.364  1.00  0.00     0.098 A 
HETATM   18  C16 UNL     1      26.384   8.219  50.217  1.00  0.00     0.028 A 
HETATM   19  C17 UNL     1      27.439   8.174  49.370  1.00  0.00     0.100 A 
HETATM   20  O3  UNL     1      28.386   9.120  49.116  1.00  0.00    -0.339 OA
HETATM   21  C18 UNL     1      29.749   8.671  48.802  1.00  0.00     0.184 C 
ENDROOT
BRANCH   1  22
HETATM   22  C2  UNL     1      28.654   8.989  46.645  1.00  0.00     0.202 C 
BRANCH  22  23
HETATM   23  O1  UNL     1      29.377   9.694  45.716  1.00  0.00    -0.393 OA
HETATM   24  C1  UNL     1      29.018  11.023  45.681  1.00  0.00     0.201 C 
ENDBRANCH  22  23
ENDBRANCH   1  22
BRANCH  21  25
HETATM   25  C19 UNL     1      30.665   9.832  48.856  1.00  0.00     0.202 C 
BRANCH  25  26
HETATM   26  O4  UNL     1      30.137  11.000  49.176  1.00  0.00    -0.393 OA
HETATM   27  C20 UNL     1      30.629  12.218  49.076  1.00  0.00     0.201 C 
ENDBRANCH  25  26
ENDBRANCH  21  25
BRANCH   9  28
HETATM   28  N3  UNL     1      23.862   5.588  52.689  1.00  0.00    -0.406 N 
HETATM   29  H10 UNL     1      24.819   5.590  52.312  1.00  0.00     0.152 HD
HETATM   30  H11 UNL     1      23.692   5.040  53.537  1.00  0.00     0.152 HD
ENDBRANCH   9  28
TORSDOF 5
ENDMDL
MODEL 8
REMARK VINA RESULT:      -7.0      6.928      9.556
REMARK  5 active torsions:
REMARK  status: ('A' for Active; 'I' for Inactive)
REMARK    1  A    between atoms: O1_2  and  C2_3 
REMARK    2  A    between atoms: C2_3  and  C3_4 
REMARK    3  A    between atoms: C8_12  and  N3_13 
REMARK    4  A    between atoms: C18_25  and  C19_26 
REMARK    5  A    between atoms: C19_26  and  O4_27 
ROOT
HETATM    1  C3  UNL     1      33.396   5.879  46.642  1.00  0.00     0.184 C 
HETATM    2  O2  UNL     1      32.286   5.139  47.182  1.00  0.00    -0.338 OA
HETATM    3  C4  UNL     1      31.165   5.861  47.548  1.00  0.00     0.104 A 
HETATM    4  C5  UNL     1      30.128   5.076  47.892  1.00  0.00     0.068 A 
HETATM    5  C6  UNL     1      28.934   5.761  48.284  1.00  0.00     0.051 A 
HETATM    6  N1  UNL     1      28.082   4.843  48.598  1.00  0.00    -0.246 NA
HETATM    7  C7  UNL     1      26.754   4.705  49.057  1.00  0.00     0.229 C 
HETATM    8  N2  UNL     1      25.792   5.489  49.384  1.00  0.00    -0.253 NA
HETATM    9  C8  UNL     1      25.587   6.942  49.444  1.00  0.00     0.235 C 
HETATM   10  C9  UNL     1      26.187   7.469  48.162  1.00  0.00    -0.006 A 
HETATM   11  C10 UNL     1      25.094   7.850  47.442  1.00  0.00     0.012 A 
HETATM   12  C11 UNL     1      25.202   8.384  46.179  1.00  0.00     0.002 A 
HETATM   13  C12 UNL     1      26.481   8.509  45.690  1.00  0.00     0.024 A 
HETATM   14  C13 UNL     1      27.565   8.120  46.433  1.00  0.00     0.042 A 
HETATM   15 CL1  UNL     1      29.135   8.302  45.719  1.00  0.00    -0.084 Cl
HETATM   16  C14 UNL     1      27.501   7.587  47.690  1.00  0.00    -0.013 A 
HETATM   17  C15 UNL     1      28.757   7.240  48.320  1.00  0.00     0.098 A 
HETATM   18  C16 UNL     1      29.960   7.953  47.932  1.00  0.00     0.028 A 
HETATM   19  C17 UNL     1      31.095   7.313  47.567  1.00  0.00     0.100 A 
HETATM   20  O3  UNL     1      32.293   7.831  47.175  1.00  0.00    -0.339 OA
HETATM   21  C18 UNL     1      33.516   7.102  47.536  1.00  0.00     0.184 C 
ENDROOT
BRANCH   1  22
HETATM   22  C2  UNL     1      32.948   6.349  45.286  1.00  0.00     0.202 C 
BRANCH  22  23
HETATM   23  O1  UNL     1      33.128   5.370  44.340  1.00  0.00    -0.393 OA
HETATM   24  C1  UNL     1      34.382   4.806  44.412  1.00  0.00     0.201 C 
ENDBRANCH  22  23
ENDBRANCH   1  22
BRANCH  21  25
HETATM   25  C19 UNL     1      34.688   7.969  47.282  1.00  0.00     0.202 C 
BRANCH  25  26
HETATM   26  O4  UNL     1      34.465   9.118  46.668  1.00  0.00    -0.393 OA
HETATM   27  C20 UNL     1      34.886   9.560  45.500  1.00  0.00     0.201 C 
ENDBRANCH  25  26
ENDBRANCH  21  25
BRANCH   9  28
HETATM   28  N3  UNL     1      26.423   7.452  50.507  1.00  0.00    -0.406 N 
HETATM   29  H10 UNL     1      26.581   6.788  51.276  1.00  0.00     0.152 HD
HETATM   30  H11 UNL     1      26.228   8.426  50.757  1.00  0.00     0.152 HD
ENDBRANCH   9  28
TORSDOF 5
ENDMDL
MODEL 9
REMARK VINA RESULT:      -6.7      4.786      7.567
REMARK  5 active torsions:
REMARK  status: ('A' for Active; 'I' for Inactive)
REMARK    1  A    between atoms: O1_2  and  C2_3 
REMARK    2  A    between atoms: C2_3  and  C3_4 
REMARK    3  A    between atoms: C8_12  and  N3_13 
REMARK    4  A    between atoms: C18_25  and  C19_26 
REMARK    5  A    between atoms: C19_26  and  O4_27 
ROOT
HETATM    1  C3  UNL     1      21.796   4.085  49.465  1.00  0.00     0.184 C 
HETATM    2  O2  UNL     1      22.184   5.099  48.520  1.00  0.00    -0.338 OA
HETATM    3  C4  UNL     1      23.406   5.713  48.719  1.00  0.00     0.104 A 
HETATM    4  C5  UNL     1      23.753   6.528  47.707  1.00  0.00     0.068 A 
HETATM    5  C6  UNL     1      25.010   7.198  47.852  1.00  0.00     0.051 A 
HETATM    6  N1  UNL     1      25.140   7.941  46.805  1.00  0.00    -0.246 NA
HETATM    7  C7  UNL     1      26.048   8.858  46.229  1.00  0.00     0.229 C 
HETATM    8  N2  UNL     1      27.183   9.370  46.541  1.00  0.00    -0.253 NA
HETATM    9  C8  UNL     1      28.119   9.256  47.666  1.00  0.00     0.235 C 
HETATM   10  C9  UNL     1      28.192   7.776  47.960  1.00  0.00    -0.006 A 
HETATM   11  C10 UNL     1      29.443   7.438  47.536  1.00  0.00     0.012 A 
HETATM   12  C11 UNL     1      29.916   6.149  47.614  1.00  0.00     0.002 A 
HETATM   13  C12 UNL     1      29.048   5.224  48.146  1.00  0.00     0.024 A 
HETATM   14  C13 UNL     1      27.795   5.588  48.566  1.00  0.00     0.042 A 
HETATM   15 CL1  UNL     1      26.770   4.344  49.205  1.00  0.00    -0.084 Cl
HETATM   16  C14 UNL     1      27.289   6.856  48.506  1.00  0.00    -0.013 A 
HETATM   17  C15 UNL     1      25.942   7.048  49.003  1.00  0.00     0.098 A 
HETATM   18  C16 UNL     1      25.432   6.145  50.019  1.00  0.00     0.028 A 
HETATM   19  C17 UNL     1      24.241   5.513  49.893  1.00  0.00     0.100 A 
HETATM   20  O3  UNL     1      23.630   4.642  50.744  1.00  0.00    -0.339 OA
HETATM   21  C18 UNL     1      22.164   4.661  50.822  1.00  0.00     0.184 C 
ENDROOT
BRANCH   1  22
HETATM   22  C2  UNL     1      22.707   2.918  49.204  1.00  0.00     0.202 C 
BRANCH  22  23
HETATM   23  O1  UNL     1      22.127   2.021  48.342  1.00  0.00    -0.393 OA
HETATM   24  C1  UNL     1      21.466   1.015  49.010  1.00  0.00     0.201 C 
ENDBRANCH  22  23
ENDBRANCH   1  22
BRANCH  21  25
HETATM   25  C19 UNL     1      21.732   3.868  51.994  1.00  0.00     0.202 C 
BRANCH  25  26
HETATM   26  O4  UNL     1      20.475   3.457  52.012  1.00  0.00    -0.393 OA
HETATM   27  C20 UNL     1      19.967   2.272  52.280  1.00  0.00     0.201 C 
ENDBRANCH  25  26
ENDBRANCH  21  25
BRANCH   9  28
HETATM   28  N3  UNL     1      27.484   9.852  48.819  1.00  0.00    -0.406 N 
HETATM   29  H10 UNL     1      26.532  10.202  48.644  1.00  0.00     0.152 HD
HETATM   30  H11 UNL     1      28.106  10.443  49.378  1.00  0.00     0.152 HD
ENDBRANCH   9  28
TORSDOF 5
ENDMDL
