MODEL 1
REMARK VINA RESULT:      -7.6      0.000      0.000
REMARK  7 active torsions:
REMARK  status: ('A' for Active; 'I' for Inactive)
REMARK    1  A    between atoms: C4_4  and  C7_7 
REMARK    2  A    between atoms: C8_8  and  N1_9 
REMARK    3  A    between atoms: N1_9  and  C9_10 
REMARK    4  A    between atoms: C13_16  and  O1_17 
REMARK    5  A    between atoms: O1_17  and  C14_18 
REMARK    6  A    between atoms: C14_18  and  C16_20 
REMARK    7  A    between atoms: C16_20  and  O2_21 
ROOT
HETATM    1  C1  UNL     1      24.956   8.532  48.385  1.00  0.00     0.017 C 
HETATM    2  C2  UNL     1      26.077   8.131  48.194  1.00  0.00    -0.088 C 
HETATM    3  C3  UNL     1      27.423   7.628  47.979  1.00  0.00     0.084 C 
HETATM    4  C4  UNL     1      27.807   6.394  48.234  1.00  0.00     0.026 C 
HETATM    5  C5  UNL     1      29.178   5.994  47.983  1.00  0.00    -0.077 C 
HETATM    6  C6  UNL     1      30.318   5.665  47.794  1.00  0.00     0.018 C 
ENDROOT
BRANCH   4   7
HETATM    7  C7  UNL     1      26.893   5.402  48.780  1.00  0.00     0.038 C 
HETATM    8  C8  UNL     1      27.091   4.135  49.155  1.00  0.00     0.091 C 
BRANCH   8   9
HETATM    9  N1  UNL     1      26.073   3.286  49.679  1.00  0.00    -0.350 N 
HETATM   10  H6  UNL     1      25.393   3.302  48.871  1.00  0.00     0.166 HD
BRANCH   9  11
HETATM   11  C9  UNL     1      26.100   2.640  50.953  1.00  0.00     0.144 A 
HETATM   12  N2  UNL     1      27.254   2.466  51.615  1.00  0.00    -0.223 NA
HETATM   13  C10 UNL     1      27.288   1.854  52.823  1.00  0.00     0.236 A 
HETATM   14  N3  UNL     1      26.174   1.391  53.418  1.00  0.00    -0.241 NA
HETATM   15  C11 UNL     1      24.971   1.534  52.804  1.00  0.00     0.077 A 
HETATM   16  C12 UNL     1      23.790   1.067  53.393  1.00  0.00     0.072 A 
HETATM   17  C20 UNL     1      24.944   2.164  51.561  1.00  0.00     0.075 A 
HETATM   18  C13 UNL     1      22.550   1.219  52.752  1.00  0.00     0.107 A 
HETATM   19  C18 UNL     1      22.604   1.844  51.538  1.00  0.00     0.136 A 
HETATM   20  C19 UNL     1      23.722   2.326  50.905  1.00  0.00     0.121 A 
HETATM   21  O4  UNL     1      21.453   2.035  50.837  1.00  0.00    -0.344 OA
HETATM   22  O3  UNL     1      23.579   2.938  49.673  1.00  0.00    -0.345 OA
HETATM   23  C21 UNL     1      22.464   3.831  49.533  1.00  0.00     0.202 C 
HETATM   24  C22 UNL     1      21.185   3.235  50.098  1.00  0.00     0.202 C 
BRANCH  18  25
HETATM   25  O1  UNL     1      21.550   0.693  53.499  1.00  0.00    -0.341 OA
BRANCH  25  26
HETATM   26  C14 UNL     1      20.904  -0.508  53.273  1.00  0.00     0.148 C 
HETATM   27  C15 UNL     1      21.150  -1.559  54.344  1.00  0.00     0.042 C 
BRANCH  26  28
HETATM   28  C16 UNL     1      19.419  -0.311  53.084  1.00  0.00     0.199 C 
BRANCH  28  29
HETATM   29  O2  UNL     1      18.944  -0.393  51.836  1.00  0.00    -0.393 OA
HETATM   30  C17 UNL     1      18.254   0.602  51.243  1.00  0.00     0.201 C 
ENDBRANCH  28  29
ENDBRANCH  26  28
ENDBRANCH  25  26
ENDBRANCH  18  25
ENDBRANCH   9  11
ENDBRANCH   8   9
ENDBRANCH   4   7
TORSDOF 7
ENDMDL
MODEL 2
REMARK VINA RESULT:      -7.5      2.269      8.482
REMARK  7 active torsions:
REMARK  status: ('A' for Active; 'I' for Inactive)
REMARK    1  A    between atoms: C4_4  and  C7_7 
REMARK    2  A    between atoms: C8_8  and  N1_9 
REMARK    3  A    between atoms: N1_9  and  C9_10 
REMARK    4  A    between atoms: C13_16  and  O1_17 
REMARK    5  A    between atoms: O1_17  and  C14_18 
REMARK    6  A    between atoms: C14_18  and  C16_20 
REMARK    7  A    between atoms: C16_20  and  O2_21 
ROOT
HETATM    1  C1  UNL     1      23.579  -1.279  55.517  1.00  0.00     0.017 C 
HETATM    2  C2  UNL     1      22.505  -1.268  54.970  1.00  0.00    -0.088 C 
HETATM    3  C3  UNL     1      21.214  -1.232  54.304  1.00  0.00     0.084 C 
HETATM    4  C4  UNL     1      20.834  -0.290  53.465  1.00  0.00     0.026 C 
HETATM    5  C5  UNL     1      19.520  -0.347  52.855  1.00  0.00    -0.077 C 
HETATM    6  C6  UNL     1      18.425  -0.383  52.363  1.00  0.00     0.018 C 
ENDROOT
BRANCH   4   7
HETATM    7  C7  UNL     1      21.696   0.833  53.130  1.00  0.00     0.038 C 
HETATM    8  C8  UNL     1      21.944   1.435  51.963  1.00  0.00     0.091 C 
BRANCH   8   9
HETATM    9  N1  UNL     1      22.829   2.541  51.804  1.00  0.00    -0.350 N 
HETATM   10  H6  UNL     1      22.147   3.337  51.937  1.00  0.00     0.166 HD
BRANCH   9  11
HETATM   11  C9  UNL     1      24.233   2.456  51.557  1.00  0.00     0.144 A 
HETATM   12  N2  UNL     1      24.983   1.509  52.142  1.00  0.00    -0.223 NA
HETATM   13  C10 UNL     1      26.314   1.422  51.913  1.00  0.00     0.236 A 
HETATM   14  N3  UNL     1      26.952   2.275  51.092  1.00  0.00    -0.241 NA
HETATM   15  C11 UNL     1      26.256   3.257  50.465  1.00  0.00     0.077 A 
HETATM   16  C12 UNL     1      26.885   4.163  49.601  1.00  0.00     0.072 A 
HETATM   17  C20 UNL     1      24.886   3.342  50.706  1.00  0.00     0.075 A 
HETATM   18  C13 UNL     1      26.157   5.176  48.956  1.00  0.00     0.107 A 
HETATM   19  C18 UNL     1      24.822   5.195  49.244  1.00  0.00     0.136 A 
HETATM   20  C19 UNL     1      24.142   4.342  50.076  1.00  0.00     0.121 A 
HETATM   21  O4  UNL     1      24.031   6.143  48.669  1.00  0.00    -0.344 OA
HETATM   22  O3  UNL     1      22.780   4.515  50.240  1.00  0.00    -0.345 OA
HETATM   23  C21 UNL     1      22.029   4.806  49.052  1.00  0.00     0.202 C 
HETATM   24  C22 UNL     1      22.704   5.868  48.200  1.00  0.00     0.202 C 
BRANCH  18  25
HETATM   25  O1  UNL     1      26.965   5.932  48.176  1.00  0.00    -0.341 OA
BRANCH  25  26
HETATM   26  C14 UNL     1      28.140   6.547  48.568  1.00  0.00     0.148 C 
HETATM   27  C15 UNL     1      29.384   6.007  47.880  1.00  0.00     0.042 C 
BRANCH  26  28
HETATM   28  C16 UNL     1      28.068   8.044  48.390  1.00  0.00     0.199 C 
BRANCH  28  29
HETATM   29  O2  UNL     1      27.875   8.783  49.488  1.00  0.00    -0.393 OA
HETATM   30  C17 UNL     1      26.706   8.811  50.162  1.00  0.00     0.201 C 
ENDBRANCH  28  29
ENDBRANCH  26  28
ENDBRANCH  25  26
ENDBRANCH  18  25
ENDBRANCH   9  11
ENDBRANCH   8   9
ENDBRANCH   4   7
TORSDOF 7
ENDMDL
MODEL 3
REMARK VINA RESULT:      -7.5      1.491      2.870
REMARK  7 active torsions:
REMARK  status: ('A' for Active; 'I' for Inactive)
REMARK    1  A    between atoms: C4_4  and  C7_7 
REMARK    2  A    between atoms: C8_8  and  N1_9 
REMARK    3  A    between atoms: N1_9  and  C9_10 
REMARK    4  A    between atoms: C13_16  and  O1_17 
REMARK    5  A    between atoms: O1_17  and  C14_18 
REMARK    6  A    between atoms: C14_18  and  C16_20 
REMARK    7  A    between atoms: C16_20  and  O2_21 
ROOT
HETATM    1  C1  UNL     1      24.633   7.755  47.303  1.00  0.00     0.017 C 
HETATM    2  C2  UNL     1      25.825   7.592  47.379  1.00  0.00    -0.088 C 
HETATM    3  C3  UNL     1      27.258   7.382  47.491  1.00  0.00     0.084 C 
HETATM    4  C4  UNL     1      27.817   6.415  48.189  1.00  0.00     0.026 C 
HETATM    5  C5  UNL     1      29.262   6.293  48.235  1.00  0.00    -0.077 C 
HETATM    6  C6  UNL     1      30.458   6.202  48.290  1.00  0.00     0.018 C 
ENDROOT
BRANCH   4   7
HETATM    7  C7  UNL     1      27.025   5.452  48.939  1.00  0.00     0.038 C 
HETATM    8  C8  UNL     1      27.073   4.117  48.985  1.00  0.00     0.091 C 
BRANCH   8   9
HETATM    9  N1  UNL     1      26.212   3.311  49.785  1.00  0.00    -0.350 N 
HETATM   10  H6  UNL     1      26.932   2.713  50.276  1.00  0.00     0.166 HD
BRANCH   9  11
HETATM   11  C9  UNL     1      24.787   3.404  49.831  1.00  0.00     0.144 A 
HETATM   12  N2  UNL     1      24.116   4.166  48.954  1.00  0.00    -0.223 NA
HETATM   13  C10 UNL     1      22.765   4.260  48.991  1.00  0.00     0.236 A 
HETATM   14  N3  UNL     1      22.031   3.598  49.903  1.00  0.00    -0.241 NA
HETATM   15  C11 UNL     1      22.645   2.807  50.820  1.00  0.00     0.077 A 
HETATM   16  C12 UNL     1      21.914   2.101  51.783  1.00  0.00     0.072 A 
HETATM   17  C20 UNL     1      24.035   2.716  50.777  1.00  0.00     0.075 A 
HETATM   18  C13 UNL     1      22.557   1.285  52.729  1.00  0.00     0.107 A 
HETATM   19  C18 UNL     1      23.919   1.249  52.623  1.00  0.00     0.136 A 
HETATM   20  C19 UNL     1      24.696   1.911  51.707  1.00  0.00     0.121 A 
HETATM   21  O4  UNL     1      24.633   0.487  53.497  1.00  0.00    -0.344 OA
HETATM   22  O3  UNL     1      26.068   1.746  51.753  1.00  0.00    -0.345 OA
HETATM   23  C21 UNL     1      26.540   0.410  51.980  1.00  0.00     0.202 C 
HETATM   24  C22 UNL     1      25.781  -0.277  53.103  1.00  0.00     0.202 C 
BRANCH  18  25
HETATM   25  O1  UNL     1      21.659   0.705  53.559  1.00  0.00    -0.341 OA
BRANCH  25  26
HETATM   26  C14 UNL     1      21.250  -0.615  53.531  1.00  0.00     0.148 C 
HETATM   27  C15 UNL     1      21.753  -1.448  54.699  1.00  0.00     0.042 C 
BRANCH  26  28
HETATM   28  C16 UNL     1      19.748  -0.728  53.433  1.00  0.00     0.199 C 
BRANCH  28  29
HETATM   29  O2  UNL     1      19.112   0.183  52.689  1.00  0.00    -0.393 OA
HETATM   30  C17 UNL     1      18.450  -0.123  51.554  1.00  0.00     0.201 C 
ENDBRANCH  28  29
ENDBRANCH  26  28
ENDBRANCH  25  26
ENDBRANCH  18  25
ENDBRANCH   9  11
ENDBRANCH   8   9
ENDBRANCH   4   7
TORSDOF 7
ENDMDL
MODEL 4
REMARK VINA RESULT:      -7.3      2.989      8.594
REMARK  7 active torsions:
REMARK  status: ('A' for Active; 'I' for Inactive)
REMARK    1  A    between atoms: C4_4  and  C7_7 
REMARK    2  A    between atoms: C8_8  and  N1_9 
REMARK    3  A    between atoms: N1_9  and  C9_10 
REMARK    4  A    between atoms: C13_16  and  O1_17 
REMARK    5  A    between atoms: O1_17  and  C14_18 
REMARK    6  A    between atoms: C14_18  and  C16_20 
REMARK    7  A    between atoms: C16_20  and  O2_21 
ROOT
HETATM    1  C1  UNL     1      27.096  -0.222  52.372  1.00  0.00     0.017 C 
HETATM    2  C2  UNL     1      26.053  -0.466  52.925  1.00  0.00    -0.088 C 
HETATM    3  C3  UNL     1      24.788  -0.738  53.585  1.00  0.00     0.084 C 
HETATM    4  C4  UNL     1      23.689  -0.033  53.410  1.00  0.00     0.026 C 
HETATM    5  C5  UNL     1      22.476  -0.390  54.120  1.00  0.00    -0.077 C 
HETATM    6  C6  UNL     1      21.475  -0.672  54.721  1.00  0.00     0.018 C 
ENDROOT
BRANCH   4   7
HETATM    7  C7  UNL     1      23.649   1.118  52.521  1.00  0.00     0.038 C 
HETATM    8  C8  UNL     1      23.880   2.415  52.749  1.00  0.00     0.091 C 
BRANCH   8   9
HETATM    9  N1  UNL     1      23.798   3.431  51.753  1.00  0.00    -0.350 N 
HETATM   10  H6  UNL     1      22.825   3.793  51.945  1.00  0.00     0.166 HD
BRANCH   9  11
HETATM   11  C9  UNL     1      24.830   3.774  50.827  1.00  0.00     0.144 A 
HETATM   12  N2  UNL     1      25.793   2.895  50.506  1.00  0.00    -0.223 NA
HETATM   13  C10 UNL     1      26.774   3.214  49.629  1.00  0.00     0.236 A 
HETATM   14  N3  UNL     1      26.836   4.420  49.037  1.00  0.00    -0.241 NA
HETATM   15  C11 UNL     1      25.894   5.358  49.315  1.00  0.00     0.077 A 
HETATM   16  C12 UNL     1      25.924   6.624  48.717  1.00  0.00     0.072 A 
HETATM   17  C20 UNL     1      24.887   5.024  50.219  1.00  0.00     0.075 A 
HETATM   18  C13 UNL     1      24.946   7.588  49.010  1.00  0.00     0.107 A 
HETATM   19  C18 UNL     1      23.995   7.187  49.904  1.00  0.00     0.136 A 
HETATM   20  C19 UNL     1      23.905   5.967  50.525  1.00  0.00     0.121 A 
HETATM   21  O4  UNL     1      23.005   8.053  50.254  1.00  0.00    -0.344 OA
HETATM   22  O3  UNL     1      22.860   5.741  51.403  1.00  0.00    -0.345 OA
HETATM   23  C21 UNL     1      21.572   6.225  50.996  1.00  0.00     0.202 C 
HETATM   24  C22 UNL     1      21.644   7.641  50.447  1.00  0.00     0.202 C 
BRANCH  18  25
HETATM   25  O1  UNL     1      25.174   8.733  48.324  1.00  0.00    -0.341 OA
BRANCH  25  26
HETATM   26  C14 UNL     1      26.407   9.224  47.937  1.00  0.00     0.148 C 
HETATM   27  C15 UNL     1      26.474   9.665  46.483  1.00  0.00     0.042 C 
BRANCH  26  28
HETATM   28  C16 UNL     1      26.861  10.352  48.832  1.00  0.00     0.199 C 
BRANCH  28  29
HETATM   29  O2  UNL     1      28.141  10.350  49.219  1.00  0.00    -0.393 OA
HETATM   30  C17 UNL     1      28.866   9.222  49.365  1.00  0.00     0.201 C 
ENDBRANCH  28  29
ENDBRANCH  26  28
ENDBRANCH  25  26
ENDBRANCH  18  25
ENDBRANCH   9  11
ENDBRANCH   8   9
ENDBRANCH   4   7
TORSDOF 7
ENDMDL
MODEL 5
REMARK VINA RESULT:      -7.3      1.823      2.409
REMARK  7 active torsions:
REMARK  status: ('A' for Active; 'I' for Inactive)
REMARK    1  A    between atoms: C4_4  and  C7_7 
REMARK    2  A    between atoms: C8_8  and  N1_9 
REMARK    3  A    between atoms: N1_9  and  C9_10 
REMARK    4  A    between atoms: C13_16  and  O1_17 
REMARK    5  A    between atoms: O1_17  and  C14_18 
REMARK    6  A    between atoms: C14_18  and  C16_20 
REMARK    7  A    between atoms: C16_20  and  O2_21 
ROOT
HETATM    1  C1  UNL     1      23.433   7.883  50.320  1.00  0.00     0.017 C 
HETATM    2  C2  UNL     1      24.516   7.559  49.902  1.00  0.00    -0.088 C 
HETATM    3  C3  UNL     1      25.816   7.145  49.403  1.00  0.00     0.084 C 
HETATM    4  C4  UNL     1      26.153   5.897  49.145  1.00  0.00     0.026 C 
HETATM    5  C5  UNL     1      27.481   5.591  48.650  1.00  0.00    -0.077 C 
HETATM    6  C6  UNL     1      28.586   5.333  48.258  1.00  0.00     0.018 C 
ENDROOT
BRANCH   4   7
HETATM    7  C7  UNL     1      25.228   4.794  49.353  1.00  0.00     0.038 C 
HETATM    8  C8  UNL     1      25.042   3.986  50.401  1.00  0.00     0.091 C 
BRANCH   8   9
HETATM    9  N1  UNL     1      24.077   2.938  50.445  1.00  0.00    -0.350 N 
HETATM   10  H6  UNL     1      23.477   3.213  49.621  1.00  0.00     0.166 HD
BRANCH   9  11
HETATM   11  C9  UNL     1      24.057   1.862  51.385  1.00  0.00     0.144 A 
HETATM   12  N2  UNL     1      25.196   1.299  51.817  1.00  0.00    -0.223 NA
HETATM   13  C10 UNL     1      25.185   0.279  52.708  1.00  0.00     0.236 A 
HETATM   14  N3  UNL     1      24.038  -0.219  53.203  1.00  0.00    -0.241 NA
HETATM   15  C11 UNL     1      22.848   0.303  52.811  1.00  0.00     0.077 A 
HETATM   16  C12 UNL     1      21.634  -0.188  53.307  1.00  0.00     0.072 A 
HETATM   17  C20 UNL     1      22.867   1.352  51.893  1.00  0.00     0.075 A 
HETATM   18  C13 UNL     1      20.408   0.359  52.896  1.00  0.00     0.107 A 
HETATM   19  C18 UNL     1      20.508   1.381  51.995  1.00  0.00     0.136 A 
HETATM   20  C19 UNL     1      21.660   1.911  51.471  1.00  0.00     0.121 A 
HETATM   21  O4  UNL     1      19.373   1.974  51.534  1.00  0.00    -0.344 OA
HETATM   22  O3  UNL     1      21.562   2.955  50.568  1.00  0.00    -0.345 OA
HETATM   23  C21 UNL     1      20.602   3.975  50.878  1.00  0.00     0.202 C 
HETATM   24  C22 UNL     1      19.270   3.388  51.315  1.00  0.00     0.202 C 
BRANCH  18  25
HETATM   25  O1  UNL     1      19.371  -0.271  53.498  1.00  0.00    -0.341 OA
BRANCH  25  26
HETATM   26  C14 UNL     1      18.496  -1.161  52.903  1.00  0.00     0.148 C 
HETATM   27  C15 UNL     1      18.061  -2.304  53.807  1.00  0.00     0.042 C 
BRANCH  26  28
HETATM   28  C16 UNL     1      17.281  -0.458  52.349  1.00  0.00     0.199 C 
BRANCH  28  29
HETATM   29  O2  UNL     1      16.182  -0.441  53.112  1.00  0.00    -0.393 OA
HETATM   30  C17 UNL     1      15.038   0.173  52.745  1.00  0.00     0.201 C 
ENDBRANCH  28  29
ENDBRANCH  26  28
ENDBRANCH  25  26
ENDBRANCH  18  25
ENDBRANCH   9  11
ENDBRANCH   8   9
ENDBRANCH   4   7
TORSDOF 7
ENDMDL
MODEL 6
REMARK VINA RESULT:      -7.2      2.976      5.693
REMARK  7 active torsions:
REMARK  status: ('A' for Active; 'I' for Inactive)
REMARK    1  A    between atoms: C4_4  and  C7_7 
REMARK    2  A    between atoms: C8_8  and  N1_9 
REMARK    3  A    between atoms: N1_9  and  C9_10 
REMARK    4  A    between atoms: C13_16  and  O1_17 
REMARK    5  A    between atoms: O1_17  and  C14_18 
REMARK    6  A    between atoms: C14_18  and  C16_20 
REMARK    7  A    between atoms: C16_20  and  O2_21 
ROOT
HETATM    1  C1  UNL     1      25.633   4.121  49.920  1.00  0.00     0.017 C 
HETATM    2  C2  UNL     1      26.143   3.169  50.457  1.00  0.00    -0.088 C 
HETATM    3  C3  UNL     1      26.737   2.019  51.117  1.00  0.00     0.084 C 
HETATM    4  C4  UNL     1      26.059   1.120  51.800  1.00  0.00     0.026 C 
HETATM    5  C5  UNL     1      26.750   0.007  52.422  1.00  0.00    -0.077 C 
HETATM    6  C6  UNL     1      27.323  -0.905  52.954  1.00  0.00     0.018 C 
ENDROOT
BRANCH   4   7
HETATM    7  C7  UNL     1      24.616   1.209  51.967  1.00  0.00     0.038 C 
HETATM    8  C8  UNL     1      23.873   1.713  52.957  1.00  0.00     0.091 C 
BRANCH   8   9
HETATM    9  N1  UNL     1      22.448   1.724  52.964  1.00  0.00    -0.350 N 
HETATM   10  H6  UNL     1      22.274   2.718  52.655  1.00  0.00     0.166 HD
BRANCH   9  11
HETATM   11  C9  UNL     1      21.609   0.617  53.299  1.00  0.00     0.144 A 
HETATM   12  N2  UNL     1      22.041  -0.358  54.113  1.00  0.00    -0.223 NA
HETATM   13  C10 UNL     1      21.252  -1.410  54.435  1.00  0.00     0.236 A 
HETATM   14  N3  UNL     1      20.000  -1.532  53.957  1.00  0.00    -0.241 NA
HETATM   15  C11 UNL     1      19.497  -0.582  53.129  1.00  0.00     0.077 A 
HETATM   16  C12 UNL     1      18.198  -0.673  52.614  1.00  0.00     0.072 A 
HETATM   17  C20 UNL     1      20.316   0.498  52.802  1.00  0.00     0.075 A 
HETATM   18  C13 UNL     1      17.686   0.314  51.757  1.00  0.00     0.107 A 
HETATM   19  C18 UNL     1      18.547   1.338  51.482  1.00  0.00     0.136 A 
HETATM   20  C19 UNL     1      19.827   1.491  51.951  1.00  0.00     0.121 A 
HETATM   21  O4  UNL     1      18.142   2.344  50.658  1.00  0.00    -0.344 OA
HETATM   22  O3  UNL     1      20.550   2.605  51.564  1.00  0.00    -0.345 OA
HETATM   23  C21 UNL     1      19.838   3.851  51.550  1.00  0.00     0.202 C 
HETATM   24  C22 UNL     1      18.475   3.720  50.890  1.00  0.00     0.202 C 
BRANCH  18  25
HETATM   25  O1  UNL     1      16.419   0.019  51.381  1.00  0.00    -0.341 OA
BRANCH  25  26
HETATM   26  C14 UNL     1      15.345   0.890  51.365  1.00  0.00     0.148 C 
HETATM   27  C15 UNL     1      14.224   0.479  50.424  1.00  0.00     0.042 C 
BRANCH  26  28
HETATM   28  C16 UNL     1      14.791   1.113  52.751  1.00  0.00     0.199 C 
BRANCH  28  29
HETATM   29  O2  UNL     1      14.506   2.372  53.102  1.00  0.00    -0.393 OA
HETATM   30  C17 UNL     1      15.168   3.442  52.615  1.00  0.00     0.201 C 
ENDBRANCH  28  29
ENDBRANCH  26  28
ENDBRANCH  25  26
ENDBRANCH  18  25
ENDBRANCH   9  11
ENDBRANCH   8   9
ENDBRANCH   4   7
TORSDOF 7
ENDMDL
MODEL 7
REMARK VINA RESULT:      -7.1      2.875      5.735
REMARK  7 active torsions:
REMARK  status: ('A' for Active; 'I' for Inactive)
REMARK    1  A    between atoms: C4_4  and  C7_7 
REMARK    2  A    between atoms: C8_8  and  N1_9 
REMARK    3  A    between atoms: N1_9  and  C9_10 
REMARK    4  A    between atoms: C13_16  and  O1_17 
REMARK    5  A    between atoms: O1_17  and  C14_18 
REMARK    6  A    between atoms: C14_18  and  C16_20 
REMARK    7  A    between atoms: C16_20  and  O2_21 
ROOT
HETATM    1  C1  UNL     1      26.213  -0.969  53.311  1.00  0.00     0.017 C 
HETATM    2  C2  UNL     1      26.492  -0.052  52.580  1.00  0.00    -0.088 C 
HETATM    3  C3  UNL     1      26.804   1.055  51.693  1.00  0.00     0.084 C 
HETATM    4  C4  UNL     1      25.915   1.901  51.215  1.00  0.00     0.026 C 
HETATM    5  C5  UNL     1      26.333   2.975  50.334  1.00  0.00    -0.077 C 
HETATM    6  C6  UNL     1      26.674   3.853  49.589  1.00  0.00     0.018 C 
ENDROOT
BRANCH   4   7
HETATM    7  C7  UNL     1      24.500   1.790  51.535  1.00  0.00     0.038 C 
HETATM    8  C8  UNL     1      23.784   2.291  52.546  1.00  0.00     0.091 C 
BRANCH   8   9
HETATM    9  N1  UNL     1      22.384   2.086  52.716  1.00  0.00    -0.350 N 
HETATM   10  H6  UNL     1      22.024   3.025  52.393  1.00  0.00     0.166 HD
BRANCH   9  11
HETATM   11  C9  UNL     1      21.768   0.884  53.183  1.00  0.00     0.144 A 
HETATM   12  N2  UNL     1      22.430   0.034  53.982  1.00  0.00    -0.223 NA
HETATM   13  C10 UNL     1      21.854  -1.107  54.429  1.00  0.00     0.236 A 
HETATM   14  N3  UNL     1      20.595  -1.445  54.097  1.00  0.00    -0.241 NA
HETATM   15  C11 UNL     1      19.866  -0.630  53.293  1.00  0.00     0.077 A 
HETATM   16  C12 UNL     1      18.552  -0.948  52.927  1.00  0.00     0.072 A 
HETATM   17  C20 UNL     1      20.466   0.542  52.836  1.00  0.00     0.075 A 
HETATM   18  C13 UNL     1      17.805  -0.099  52.094  1.00  0.00     0.107 A 
HETATM   19  C18 UNL     1      18.461   1.028  51.687  1.00  0.00     0.136 A 
HETATM   20  C19 UNL     1      19.742   1.400  52.006  1.00  0.00     0.121 A 
HETATM   21  O4  UNL     1      17.820   1.912  50.874  1.00  0.00    -0.344 OA
HETATM   22  O3  UNL     1      20.237   2.589  51.499  1.00  0.00    -0.345 OA
HETATM   23  C21 UNL     1      19.340   3.709  51.515  1.00  0.00     0.202 C 
HETATM   24  C22 UNL     1      17.954   3.334  51.014  1.00  0.00     0.202 C 
BRANCH  18  25
HETATM   25  O1  UNL     1      16.569  -0.604  51.871  1.00  0.00    -0.341 OA
BRANCH  25  26
HETATM   26  C14 UNL     1      15.457  -0.435  52.676  1.00  0.00     0.148 C 
HETATM   27  C15 UNL     1      14.903   0.981  52.682  1.00  0.00     0.042 C 
BRANCH  26  28
HETATM   28  C16 UNL     1      14.361  -1.409  52.319  1.00  0.00     0.199 C 
BRANCH  28  29
HETATM   29  O2  UNL     1      13.352  -0.948  51.571  1.00  0.00    -0.393 OA
HETATM   30  C17 UNL     1      12.949  -1.541  50.428  1.00  0.00     0.201 C 
ENDBRANCH  28  29
ENDBRANCH  26  28
ENDBRANCH  25  26
ENDBRANCH  18  25
ENDBRANCH   9  11
ENDBRANCH   8   9
ENDBRANCH   4   7
TORSDOF 7
ENDMDL
MODEL 8
REMARK VINA RESULT:      -7.0      2.429      8.522
REMARK  7 active torsions:
REMARK  status: ('A' for Active; 'I' for Inactive)
REMARK    1  A    between atoms: C4_4  and  C7_7 
REMARK    2  A    between atoms: C8_8  and  N1_9 
REMARK    3  A    between atoms: N1_9  and  C9_10 
REMARK    4  A    between atoms: C13_16  and  O1_17 
REMARK    5  A    between atoms: O1_17  and  C14_18 
REMARK    6  A    between atoms: C14_18  and  C16_20 
REMARK    7  A    between atoms: C16_20  and  O2_21 
ROOT
HETATM    1  C1  UNL     1      17.785   0.467  50.927  1.00  0.00     0.017 C 
HETATM    2  C2  UNL     1      18.456   0.001  51.814  1.00  0.00    -0.088 C 
HETATM    3  C3  UNL     1      19.285  -0.554  52.870  1.00  0.00     0.084 C 
HETATM    4  C4  UNL     1      20.574  -0.316  53.009  1.00  0.00     0.026 C 
HETATM    5  C5  UNL     1      21.310  -0.923  54.101  1.00  0.00    -0.077 C 
HETATM    6  C6  UNL     1      21.927  -1.439  54.993  1.00  0.00     0.018 C 
ENDROOT
BRANCH   4   7
HETATM    7  C7  UNL     1      21.300   0.541  52.085  1.00  0.00     0.038 C 
HETATM    8  C8  UNL     1      22.107   1.584  52.301  1.00  0.00     0.091 C 
BRANCH   8   9
HETATM    9  N1  UNL     1      22.752   2.326  51.268  1.00  0.00    -0.350 N 
HETATM   10  H6  UNL     1      21.905   2.690  50.753  1.00  0.00     0.166 HD
BRANCH   9  11
HETATM   11  C9  UNL     1      24.163   2.471  51.103  1.00  0.00     0.144 A 
HETATM   12  N2  UNL     1      25.019   1.604  51.668  1.00  0.00    -0.223 NA
HETATM   13  C10 UNL     1      26.358   1.735  51.516  1.00  0.00     0.236 A 
HETATM   14  N3  UNL     1      26.898   2.735  50.796  1.00  0.00    -0.241 NA
HETATM   15  C11 UNL     1      26.092   3.647  50.196  1.00  0.00     0.077 A 
HETATM   16  C12 UNL     1      26.617   4.700  49.437  1.00  0.00     0.072 A 
HETATM   17  C20 UNL     1      24.714   3.507  50.357  1.00  0.00     0.075 A 
HETATM   18  C13 UNL     1      25.776   5.640  48.819  1.00  0.00     0.107 A 
HETATM   19  C18 UNL     1      24.441   5.437  49.024  1.00  0.00     0.136 A 
HETATM   20  C19 UNL     1      23.859   4.430  49.752  1.00  0.00     0.121 A 
HETATM   21  O4  UNL     1      23.544   6.297  48.468  1.00  0.00    -0.344 OA
HETATM   22  O3  UNL     1      22.479   4.384  49.843  1.00  0.00    -0.345 OA
HETATM   23  C21 UNL     1      21.754   4.651  48.634  1.00  0.00     0.202 C 
HETATM   24  C22 UNL     1      22.301   5.864  47.899  1.00  0.00     0.202 C 
BRANCH  18  25
HETATM   25  O1  UNL     1      26.497   6.566  48.145  1.00  0.00    -0.341 OA
BRANCH  25  26
HETATM   26  C14 UNL     1      26.907   7.795  48.626  1.00  0.00     0.148 C 
HETATM   27  C15 UNL     1      26.411   8.112  50.028  1.00  0.00     0.042 C 
BRANCH  26  28
HETATM   28  C16 UNL     1      28.409   7.938  48.573  1.00  0.00     0.199 C 
BRANCH  28  29
HETATM   29  O2  UNL     1      28.962   8.880  49.346  1.00  0.00    -0.393 OA
HETATM   30  C17 UNL     1      29.264  10.117  48.899  1.00  0.00     0.201 C 
ENDBRANCH  28  29
ENDBRANCH  26  28
ENDBRANCH  25  26
ENDBRANCH  18  25
ENDBRANCH   9  11
ENDBRANCH   8   9
ENDBRANCH   4   7
TORSDOF 7
ENDMDL
MODEL 9
REMARK VINA RESULT:      -7.0      2.446      4.137
REMARK  7 active torsions:
REMARK  status: ('A' for Active; 'I' for Inactive)
REMARK    1  A    between atoms: C4_4  and  C7_7 
REMARK    2  A    between atoms: C8_8  and  N1_9 
REMARK    3  A    between atoms: N1_9  and  C9_10 
REMARK    4  A    between atoms: C13_16  and  O1_17 
REMARK    5  A    between atoms: O1_17  and  C14_18 
REMARK    6  A    between atoms: C14_18  and  C16_20 
REMARK    7  A    between atoms: C16_20  and  O2_21 
ROOT
HETATM    1  C1  UNL     1      22.850   7.467  50.803  1.00  0.00     0.017 C 
HETATM    2  C2  UNL     1      23.888   7.104  50.309  1.00  0.00    -0.088 C 
HETATM    3  C3  UNL     1      25.137   6.644  49.725  1.00  0.00     0.084 C 
HETATM    4  C4  UNL     1      25.513   5.383  49.666  1.00  0.00     0.026 C 
HETATM    5  C5  UNL     1      26.783   5.031  49.061  1.00  0.00    -0.077 C 
HETATM    6  C6  UNL     1      27.842   4.738  48.577  1.00  0.00     0.018 C 
ENDROOT
BRANCH   4   7
HETATM    7  C7  UNL     1      24.691   4.311  50.206  1.00  0.00     0.038 C 
HETATM    8  C8  UNL     1      24.819   2.982  50.138  1.00  0.00     0.091 C 
BRANCH   8   9
HETATM    9  N1  UNL     1      23.913   2.057  50.732  1.00  0.00    -0.350 N 
HETATM   10  H6  UNL     1      24.525   1.676  51.504  1.00  0.00     0.166 HD
BRANCH   9  11
HETATM   11  C9  UNL     1      22.567   1.823  50.313  1.00  0.00     0.144 A 
HETATM   12  N2  UNL     1      22.141   2.218  49.103  1.00  0.00    -0.223 NA
HETATM   13  C10 UNL     1      20.867   2.000  48.699  1.00  0.00     0.236 A 
HETATM   14  N3  UNL     1      19.968   1.379  49.484  1.00  0.00    -0.241 NA
HETATM   15  C11 UNL     1      20.331   0.951  50.720  1.00  0.00     0.077 A 
HETATM   16  C12 UNL     1      19.424   0.299  51.564  1.00  0.00     0.072 A 
HETATM   17  C20 UNL     1      21.643   1.180  51.130  1.00  0.00     0.075 A 
HETATM   18  C13 UNL     1      19.808  -0.140  52.842  1.00  0.00     0.107 A 
HETATM   19  C18 UNL     1      21.107   0.122  53.172  1.00  0.00     0.136 A 
HETATM   20  C19 UNL     1      22.047   0.752  52.396  1.00  0.00     0.121 A 
HETATM   21  O4  UNL     1      21.574  -0.263  54.391  1.00  0.00    -0.344 OA
HETATM   22  O3  UNL     1      23.323   0.924  52.902  1.00  0.00    -0.345 OA
HETATM   23  C21 UNL     1      23.882  -0.194  53.609  1.00  0.00     0.202 C 
HETATM   24  C22 UNL     1      22.889  -0.802  54.585  1.00  0.00     0.202 C 
BRANCH  18  25
HETATM   25  O1  UNL     1      18.774  -0.736  53.480  1.00  0.00    -0.341 OA
BRANCH  25  26
HETATM   26  C14 UNL     1      17.784  -1.505  52.895  1.00  0.00     0.148 C 
HETATM   27  C15 UNL     1      17.630  -2.890  53.504  1.00  0.00     0.042 C 
BRANCH  26  28
HETATM   28  C16 UNL     1      16.453  -0.794  52.903  1.00  0.00     0.199 C 
BRANCH  28  29
HETATM   29  O2  UNL     1      15.843  -0.622  51.724  1.00  0.00    -0.393 OA
HETATM   30  C17 UNL     1      15.343  -1.642  50.997  1.00  0.00     0.201 C 
ENDBRANCH  28  29
ENDBRANCH  26  28
ENDBRANCH  25  26
ENDBRANCH  18  25
ENDBRANCH   9  11
ENDBRANCH   8   9
ENDBRANCH   4   7
TORSDOF 7
ENDMDL
