MODEL 1
REMARK VINA RESULT:      -7.2      0.000      0.000
REMARK  1 active torsions:
REMARK  status: ('A' for Active; 'I' for Inactive)
REMARK    1  A    between atoms: O1_2  and  C2_3 
ROOT
HETATM    1  C2  UNL     1      26.227   2.058  53.227  1.00  0.00     0.071 A 
HETATM    2  C3  UNL     1      24.946   2.321  53.008  1.00  0.00     0.073 A 
HETATM    3  C4  UNL     1      24.683   2.640  51.604  1.00  0.00     0.211 A 
HETATM    4  N1  UNL     1      24.300   3.998  51.326  1.00  0.00    -0.139 NA
HETATM    5  S1  UNL     1      23.570   3.782  49.888  1.00  0.00    -0.104 SA
HETATM    6  C5  UNL     1      22.703   5.228  49.441  1.00  0.00     0.086 C 
HETATM    7  C6  UNL     1      23.305   5.639  48.096  1.00  0.00     0.038 C 
HETATM    8  C7  UNL     1      22.983   6.969  47.620  1.00  0.00    -0.026 C 
HETATM    9  C8  UNL     1      24.161   7.644  47.576  1.00  0.00    -0.004 C 
HETATM   10  C9  UNL     1      25.512   7.233  47.921  1.00  0.00    -0.004 C 
HETATM   11  C10 UNL     1      26.473   6.480  48.330  1.00  0.00    -0.019 C 
HETATM   12  C11 UNL     1      27.126   5.282  48.855  1.00  0.00     0.110 C 
HETATM   13  C12 UNL     1      26.955   4.003  49.299  1.00  0.00     0.115 C 
HETATM   14  O2  UNL     1      26.553   2.696  49.722  1.00  0.00    -0.349 OA
HETATM   15  C13 UNL     1      26.060   2.522  51.017  1.00  0.00     0.105 A 
HETATM   16  C14 UNL     1      26.937   2.186  51.955  1.00  0.00     0.073 A 
HETATM   17  C15 UNL     1      22.707   2.351  50.472  1.00  0.00     0.251 C 
HETATM   18  O3  UNL     1      23.824   1.736  51.097  1.00  0.00    -0.343 OA
ENDROOT
BRANCH   1  19
HETATM   19  O1  UNL     1      26.597   1.739  54.526  1.00  0.00    -0.356 OA
HETATM   20  C1  UNL     1      26.630   0.363  54.919  1.00  0.00     0.210 C 
ENDBRANCH   1  19
TORSDOF 1
ENDMDL
MODEL 2
REMARK VINA RESULT:      -7.1      2.769      6.201
REMARK  1 active torsions:
REMARK  status: ('A' for Active; 'I' for Inactive)
REMARK    1  A    between atoms: O1_2  and  C2_3 
ROOT
HETATM    1  C2  UNL     1      26.393   3.357  50.034  1.00  0.00     0.071 A 
HETATM    2  C3  UNL     1      25.119   3.670  49.847  1.00  0.00     0.073 A 
HETATM    3  C4  UNL     1      24.308   3.398  51.035  1.00  0.00     0.211 A 
HETATM    4  N1  UNL     1      23.350   2.332  50.914  1.00  0.00    -0.139 NA
HETATM    5  S1  UNL     1      22.339   2.741  52.122  1.00  0.00    -0.104 SA
HETATM    6  C5  UNL     1      20.876   1.799  52.015  1.00  0.00     0.086 C 
HETATM    7  C6  UNL     1      20.789   1.067  53.356  1.00  0.00     0.038 C 
HETATM    8  C7  UNL     1      19.831  -0.015  53.444  1.00  0.00    -0.026 C 
HETATM    9  C8  UNL     1      20.560  -1.142  53.657  1.00  0.00    -0.004 C 
HETATM   10  C9  UNL     1      21.994  -1.345  53.773  1.00  0.00    -0.004 C 
HETATM   11  C10 UNL     1      23.251  -1.065  53.797  1.00  0.00    -0.019 C 
HETATM   12  C11 UNL     1      24.457  -0.243  53.723  1.00  0.00     0.110 C 
HETATM   13  C12 UNL     1      24.962   1.009  53.524  1.00  0.00     0.115 C 
HETATM   14  O2  UNL     1      25.274   2.386  53.289  1.00  0.00    -0.349 OA
HETATM   15  C13 UNL     1      25.343   2.854  51.975  1.00  0.00     0.105 A 
HETATM   16  C14 UNL     1      26.536   2.836  51.392  1.00  0.00     0.073 A 
HETATM   17  C15 UNL     1      22.356   4.445  51.640  1.00  0.00     0.251 C 
HETATM   18  O3  UNL     1      23.763   4.549  51.472  1.00  0.00    -0.343 OA
ENDROOT
BRANCH   1  19
HETATM   19  O1  UNL     1      27.262   3.574  48.972  1.00  0.00    -0.356 OA
HETATM   20  C1  UNL     1      27.610   4.919  48.626  1.00  0.00     0.210 C 
ENDBRANCH   1  19
TORSDOF 1
ENDMDL
MODEL 3
REMARK VINA RESULT:      -6.9      2.529      6.611
REMARK  1 active torsions:
REMARK  status: ('A' for Active; 'I' for Inactive)
REMARK    1  A    between atoms: O1_2  and  C2_3 
ROOT
HETATM    1  C2  UNL     1      22.137   5.922  50.799  1.00  0.00     0.071 A 
HETATM    2  C3  UNL     1      23.462   5.915  50.775  1.00  0.00     0.073 A 
HETATM    3  C4  UNL     1      23.999   4.578  50.516  1.00  0.00     0.211 A 
HETATM    4  N1  UNL     1      24.701   3.958  51.608  1.00  0.00    -0.139 NA
HETATM    5  S1  UNL     1      25.580   2.868  50.777  1.00  0.00    -0.104 SA
HETATM    6  C5  UNL     1      26.794   2.170  51.816  1.00  0.00     0.086 C 
HETATM    7  C6  UNL     1      26.507   0.667  51.789  1.00  0.00     0.038 C 
HETATM    8  C7  UNL     1      27.174  -0.139  52.790  1.00  0.00    -0.026 C 
HETATM    9  C8  UNL     1      26.188  -0.661  53.566  1.00  0.00    -0.004 C 
HETATM   10  C9  UNL     1      24.744  -0.504  53.510  1.00  0.00    -0.004 C 
HETATM   11  C10 UNL     1      23.593  -0.090  53.106  1.00  0.00    -0.019 C 
HETATM   12  C11 UNL     1      22.628   0.645  52.293  1.00  0.00     0.110 C 
HETATM   13  C12 UNL     1      22.451   1.513  51.255  1.00  0.00     0.115 C 
HETATM   14  O2  UNL     1      22.495   2.423  50.150  1.00  0.00    -0.349 OA
HETATM   15  C13 UNL     1      22.736   3.777  50.392  1.00  0.00     0.105 A 
HETATM   16  C14 UNL     1      21.674   4.557  50.554  1.00  0.00     0.073 A 
HETATM   17  C15 UNL     1      26.018   4.067  49.550  1.00  0.00     0.251 C 
HETATM   18  O3  UNL     1      24.713   4.600  49.375  1.00  0.00    -0.343 OA
ENDROOT
BRANCH   1  19
HETATM   19  O1  UNL     1      21.513   7.140  51.035  1.00  0.00    -0.356 OA
HETATM   20  C1  UNL     1      21.242   8.006  49.928  1.00  0.00     0.210 C 
ENDBRANCH   1  19
TORSDOF 1
ENDMDL
MODEL 4
REMARK VINA RESULT:      -6.9      3.341      6.979
REMARK  1 active torsions:
REMARK  status: ('A' for Active; 'I' for Inactive)
REMARK    1  A    between atoms: O1_2  and  C2_3 
ROOT
HETATM    1  C2  UNL     1      19.506   3.068  51.748  1.00  0.00     0.071 A 
HETATM    2  C3  UNL     1      20.605   3.674  51.320  1.00  0.00     0.073 A 
HETATM    3  C4  UNL     1      21.697   2.729  51.084  1.00  0.00     0.211 A 
HETATM    4  N1  UNL     1      22.819   2.827  51.979  1.00  0.00    -0.139 NA
HETATM    5  S1  UNL     1      23.953   2.097  51.067  1.00  0.00    -0.104 SA
HETATM    6  C5  UNL     1      25.531   2.355  51.765  1.00  0.00     0.086 C 
HETATM    7  C6  UNL     1      26.073   0.947  52.024  1.00  0.00     0.038 C 
HETATM    8  C7  UNL     1      27.245   0.849  52.868  1.00  0.00    -0.026 C 
HETATM    9  C8  UNL     1      26.854   0.157  53.970  1.00  0.00    -0.004 C 
HETATM   10  C9  UNL     1      25.564  -0.401  54.340  1.00  0.00    -0.004 C 
HETATM   11  C10 UNL     1      24.314  -0.697  54.259  1.00  0.00    -0.019 C 
HETATM   12  C11 UNL     1      22.967  -0.748  53.693  1.00  0.00     0.110 C 
HETATM   13  C12 UNL     1      22.162  -0.377  52.656  1.00  0.00     0.115 C 
HETATM   14  O2  UNL     1      21.504   0.113  51.482  1.00  0.00    -0.349 OA
HETATM   15  C13 UNL     1      21.044   1.431  51.461  1.00  0.00     0.105 A 
HETATM   16  C14 UNL     1      19.787   1.636  51.837  1.00  0.00     0.073 A 
HETATM   17  C15 UNL     1      23.447   2.982  49.620  1.00  0.00     0.251 C 
HETATM   18  O3  UNL     1      22.052   2.775  49.787  1.00  0.00    -0.343 OA
ENDROOT
BRANCH   1  19
HETATM   19  O1  UNL     1      18.399   3.866  52.004  1.00  0.00    -0.356 OA
HETATM   20  C1  UNL     1      17.097   3.369  51.676  1.00  0.00     0.210 C 
ENDBRANCH   1  19
TORSDOF 1
ENDMDL
MODEL 5
REMARK VINA RESULT:      -6.8      1.861      2.164
REMARK  1 active torsions:
REMARK  status: ('A' for Active; 'I' for Inactive)
REMARK    1  A    between atoms: O1_2  and  C2_3 
ROOT
HETATM    1  C2  UNL     1      27.095   1.477  53.631  1.00  0.00     0.071 A 
HETATM    2  C3  UNL     1      25.838   1.616  54.027  1.00  0.00     0.073 A 
HETATM    3  C4  UNL     1      24.971   2.084  52.944  1.00  0.00     0.211 A 
HETATM    4  N1  UNL     1      24.442   3.414  53.090  1.00  0.00    -0.139 NA
HETATM    5  S1  UNL     1      23.165   3.307  52.086  1.00  0.00    -0.104 SA
HETATM    6  C5  UNL     1      22.123   4.688  52.302  1.00  0.00     0.086 C 
HETATM    7  C6  UNL     1      22.054   5.340  50.920  1.00  0.00     0.038 C 
HETATM    8  C7  UNL     1      21.494   6.674  50.859  1.00  0.00    -0.026 C 
HETATM    9  C8  UNL     1      22.501   7.481  50.432  1.00  0.00    -0.004 C 
HETATM   10  C9  UNL     1      23.883   7.188  50.094  1.00  0.00    -0.004 C 
HETATM   11  C10 UNL     1      24.960   6.504  49.921  1.00  0.00    -0.019 C 
HETATM   12  C11 UNL     1      25.833   5.331  49.907  1.00  0.00     0.110 C 
HETATM   13  C12 UNL     1      25.934   3.994  50.158  1.00  0.00     0.115 C 
HETATM   14  O2  UNL     1      25.821   2.604  50.485  1.00  0.00    -0.349 OA
HETATM   15  C13 UNL     1      25.954   2.205  51.817  1.00  0.00     0.105 A 
HETATM   16  C14 UNL     1      27.169   1.852  52.220  1.00  0.00     0.073 A 
HETATM   17  C15 UNL     1      22.714   1.720  52.730  1.00  0.00     0.251 C 
HETATM   18  O3  UNL     1      24.020   1.162  52.707  1.00  0.00    -0.343 OA
ENDROOT
BRANCH   1  19
HETATM   19  O1  UNL     1      28.012   1.034  54.575  1.00  0.00    -0.356 OA
HETATM   20  C1  UNL     1      29.185   0.343  54.131  1.00  0.00     0.210 C 
ENDBRANCH   1  19
TORSDOF 1
ENDMDL
MODEL 6
REMARK VINA RESULT:      -6.8      3.907      6.877
REMARK  1 active torsions:
REMARK  status: ('A' for Active; 'I' for Inactive)
REMARK    1  A    between atoms: O1_2  and  C2_3 
ROOT
HETATM    1  C2  UNL     1      19.044   1.324  51.045  1.00  0.00     0.071 A 
HETATM    2  C3  UNL     1      19.462   0.311  51.791  1.00  0.00     0.073 A 
HETATM    3  C4  UNL     1      20.646   0.660  52.577  1.00  0.00     0.211 A 
HETATM    4  N1  UNL     1      21.867  -0.005  52.207  1.00  0.00    -0.139 NA
HETATM    5  S1  UNL     1      22.703   0.181  53.591  1.00  0.00    -0.104 SA
HETATM    6  C5  UNL     1      24.130  -0.821  53.561  1.00  0.00     0.086 C 
HETATM    7  C6  UNL     1      25.293   0.157  53.743  1.00  0.00     0.038 C 
HETATM    8  C7  UNL     1      26.619  -0.354  53.467  1.00  0.00    -0.026 C 
HETATM    9  C8  UNL     1      27.082   0.363  52.410  1.00  0.00    -0.004 C 
HETATM   10  C9  UNL     1      26.466   1.425  51.632  1.00  0.00    -0.004 C 
HETATM   11  C10 UNL     1      25.575   2.269  51.242  1.00  0.00    -0.019 C 
HETATM   12  C11 UNL     1      24.295   2.972  51.217  1.00  0.00     0.110 C 
HETATM   13  C12 UNL     1      23.056   3.087  51.778  1.00  0.00     0.115 C 
HETATM   14  O2  UNL     1      21.823   3.037  52.506  1.00  0.00    -0.349 OA
HETATM   15  C13 UNL     1      20.865   2.084  52.155  1.00  0.00     0.105 A 
HETATM   16  C14 UNL     1      19.940   2.456  51.278  1.00  0.00     0.073 A 
HETATM   17  C15 UNL     1      21.299  -0.269  54.572  1.00  0.00     0.251 C 
HETATM   18  O3  UNL     1      20.359   0.545  53.887  1.00  0.00    -0.343 OA
ENDROOT
BRANCH   1  19
HETATM   19  O1  UNL     1      17.922   1.110  50.255  1.00  0.00    -0.356 OA
HETATM   20  C1  UNL     1      17.264  -0.160  50.317  1.00  0.00     0.210 C 
ENDBRANCH   1  19
TORSDOF 1
ENDMDL
MODEL 7
REMARK VINA RESULT:      -6.7      2.549      6.647
REMARK  1 active torsions:
REMARK  status: ('A' for Active; 'I' for Inactive)
REMARK    1  A    between atoms: O1_2  and  C2_3 
ROOT
HETATM    1  C2  UNL     1      23.755   5.673  49.566  1.00  0.00     0.071 A 
HETATM    2  C3  UNL     1      24.719   5.319  50.404  1.00  0.00     0.073 A 
HETATM    3  C4  UNL     1      24.805   3.866  50.562  1.00  0.00     0.211 A 
HETATM    4  N1  UNL     1      24.436   3.350  51.853  1.00  0.00    -0.139 NA
HETATM    5  S1  UNL     1      25.198   1.912  51.793  1.00  0.00    -0.104 SA
HETATM    6  C5  UNL     1      25.203   1.179  53.375  1.00  0.00     0.086 C 
HETATM    7  C6  UNL     1      24.498  -0.166  53.180  1.00  0.00     0.038 C 
HETATM    8  C7  UNL     1      24.096  -0.868  54.380  1.00  0.00    -0.026 C 
HETATM    9  C8  UNL     1      22.739  -0.929  54.340  1.00  0.00    -0.004 C 
HETATM   10  C9  UNL     1      21.789  -0.423  53.364  1.00  0.00    -0.004 C 
HETATM   11  C10 UNL     1      21.347   0.171  52.310  1.00  0.00    -0.019 C 
HETATM   12  C11 UNL     1      21.397   0.926  51.060  1.00  0.00     0.110 C 
HETATM   13  C12 UNL     1      22.195   1.553  50.148  1.00  0.00     0.115 C 
HETATM   14  O2  UNL     1      23.206   2.146  49.326  1.00  0.00    -0.349 OA
HETATM   15  C13 UNL     1      23.696   3.411  49.658  1.00  0.00     0.105 A 
HETATM   16  C14 UNL     1      23.102   4.454  49.090  1.00  0.00     0.073 A 
HETATM   17  C15 UNL     1      26.666   2.649  51.131  1.00  0.00     0.251 C 
HETATM   18  O3  UNL     1      26.015   3.446  50.151  1.00  0.00    -0.343 OA
ENDROOT
BRANCH   1  19
HETATM   19  O1  UNL     1      23.580   7.031  49.336  1.00  0.00    -0.356 OA
HETATM   20  C1  UNL     1      23.584   7.928  50.451  1.00  0.00     0.210 C 
ENDBRANCH   1  19
TORSDOF 1
ENDMDL
MODEL 8
REMARK VINA RESULT:      -6.7      2.521      5.607
REMARK  1 active torsions:
REMARK  status: ('A' for Active; 'I' for Inactive)
REMARK    1  A    between atoms: O1_2  and  C2_3 
ROOT
HETATM    1  C2  UNL     1      26.387   3.789  49.806  1.00  0.00     0.071 A 
HETATM    2  C3  UNL     1      25.343   4.577  49.591  1.00  0.00     0.073 A 
HETATM    3  C4  UNL     1      24.288   4.375  50.586  1.00  0.00     0.211 A 
HETATM    4  N1  UNL     1      23.071   3.782  50.101  1.00  0.00    -0.139 NA
HETATM    5  S1  UNL     1      22.052   4.267  51.275  1.00  0.00    -0.104 SA
HETATM    6  C5  UNL     1      20.404   3.968  50.789  1.00  0.00     0.086 C 
HETATM    7  C6  UNL     1      19.841   3.051  51.878  1.00  0.00     0.038 C 
HETATM    8  C7  UNL     1      18.579   2.401  51.590  1.00  0.00    -0.026 C 
HETATM    9  C8  UNL     1      18.844   1.068  51.566  1.00  0.00    -0.004 C 
HETATM   10  C9  UNL     1      20.085   0.337  51.758  1.00  0.00    -0.004 C 
HETATM   11  C10 UNL     1      21.338   0.128  51.971  1.00  0.00    -0.019 C 
HETATM   12  C11 UNL     1      22.740   0.449  52.227  1.00  0.00     0.110 C 
HETATM   13  C12 UNL     1      23.658   1.442  52.411  1.00  0.00     0.115 C 
HETATM   14  O2  UNL     1      24.445   2.627  52.576  1.00  0.00    -0.349 OA
HETATM   15  C13 UNL     1      24.899   3.304  51.442  1.00  0.00     0.105 A 
HETATM   16  C14 UNL     1      26.103   2.977  50.989  1.00  0.00     0.073 A 
HETATM   17  C15 UNL     1      22.718   5.907  51.260  1.00  0.00     0.251 C 
HETATM   18  O3  UNL     1      24.085   5.524  51.257  1.00  0.00    -0.343 OA
ENDROOT
BRANCH   1  19
HETATM   19  O1  UNL     1      27.454   3.894  48.925  1.00  0.00    -0.356 OA
HETATM   20  C1  UNL     1      27.889   5.196  48.515  1.00  0.00     0.210 C 
ENDBRANCH   1  19
TORSDOF 1
ENDMDL
MODEL 9
REMARK VINA RESULT:      -6.7      3.562      5.577
REMARK  1 active torsions:
REMARK  status: ('A' for Active; 'I' for Inactive)
REMARK    1  A    between atoms: O1_2  and  C2_3 
ROOT
HETATM    1  C2  UNL     1      25.210  -0.486  53.220  1.00  0.00     0.071 A 
HETATM    2  C3  UNL     1      25.266   0.618  52.488  1.00  0.00     0.073 A 
HETATM    3  C4  UNL     1      24.018   1.380  52.549  1.00  0.00     0.211 A 
HETATM    4  N1  UNL     1      23.253   1.436  51.332  1.00  0.00    -0.139 NA
HETATM    5  S1  UNL     1      22.361   2.763  51.636  1.00  0.00    -0.104 SA
HETATM    6  C5  UNL     1      21.551   3.279  50.180  1.00  0.00     0.086 C 
HETATM    7  C6  UNL     1      20.063   3.257  50.538  1.00  0.00     0.038 C 
HETATM    8  C7  UNL     1      19.130   3.359  49.435  1.00  0.00    -0.026 C 
HETATM    9  C8  UNL     1      18.441   2.188  49.422  1.00  0.00    -0.004 C 
HETATM   10  C9  UNL     1      18.540   1.010  50.268  1.00  0.00    -0.004 C 
HETATM   11  C10 UNL     1      18.965   0.232  51.202  1.00  0.00    -0.019 C 
HETATM   12  C11 UNL     1      19.783  -0.209  52.329  1.00  0.00     0.110 C 
HETATM   13  C12 UNL     1      20.806   0.105  53.176  1.00  0.00     0.115 C 
HETATM   14  O2  UNL     1      21.891   0.631  53.948  1.00  0.00    -0.349 OA
HETATM   15  C13 UNL     1      23.193   0.516  53.458  1.00  0.00     0.105 A 
HETATM   16  C14 UNL     1      23.887  -0.551  53.839  1.00  0.00     0.073 A 
HETATM   17  C15 UNL     1      23.769   3.643  52.251  1.00  0.00     0.251 C 
HETATM   18  O3  UNL     1      24.265   2.596  53.072  1.00  0.00    -0.343 OA
ENDROOT
BRANCH   1  19
HETATM   19  O1  UNL     1      26.341  -1.292  53.241  1.00  0.00    -0.356 OA
HETATM   20  C1  UNL     1      27.627  -0.683  53.083  1.00  0.00     0.210 C 
ENDBRANCH   1  19
TORSDOF 1
ENDMDL
