MODEL 1
REMARK VINA RESULT:      -7.8      0.000      0.000
REMARK  2 active torsions:
REMARK  status: ('A' for Active; 'I' for Inactive)
REMARK    1  A    between atoms: C4_5  and  N2_6 
REMARK    2  A    between atoms: N2_6  and  C5_7 
ROOT
HETATM    1  C1  UNL     1      22.513  -0.914  53.859  1.00  0.00     0.180 C 
HETATM    2  N1  UNL     1      21.927   0.029  52.928  1.00  0.00    -0.271 NA
HETATM    3  C2  UNL     1      22.590   1.051  52.497  1.00  0.00     0.167 C 
HETATM    4  C3  UNL     1      23.845   1.048  53.057  1.00  0.00     0.117 C 
HETATM    5  C4  UNL     1      25.104   1.087  52.554  1.00  0.00     0.241 C 
HETATM    6  N3  UNL     1      25.512   2.251  52.037  1.00  0.00     0.107 N 
HETATM    7  C11 UNL     1      24.638   3.254  51.721  1.00  0.00     0.193 A 
HETATM    8  C12 UNL     1      23.669   3.891  52.474  1.00  0.00     0.041 C 
HETATM    9  C13 UNL     1      22.343   3.977  52.104  1.00  0.00     0.027 C 
HETATM   10  C14 UNL     1      21.400   2.972  52.049  1.00  0.00     0.144 C 
HETATM   11  O1  UNL     1      22.023   1.882  51.656  1.00  0.00    -0.304 OA
HETATM   12  C15 UNL     1      25.474   2.939  50.531  1.00  0.00     0.443 A 
HETATM   13  N4  UNL     1      26.491   3.165  51.562  1.00  0.00    -0.209 N 
HETATM   14  H18 UNL     1      27.288   3.432  52.180  1.00  0.00     0.190 HD
ENDROOT
BRANCH   5  15
HETATM   15  N2  UNL     1      26.047  -0.008  52.520  1.00  0.00    -0.359 N 
HETATM   16  H5  UNL     1      26.198  -0.323  51.513  1.00  0.00     0.161 HD
BRANCH  15  17
HETATM   17  C5  UNL     1      26.813  -0.760  53.468  1.00  0.00     0.109 A 
HETATM   18  C6  UNL     1      27.762   0.084  54.269  1.00  0.00    -0.002 A 
HETATM   19  C7  UNL     1      29.067  -0.017  54.420  1.00  0.00    -0.002 A 
HETATM   20  C8  UNL     1      29.762  -1.094  53.729  1.00  0.00    -0.004 A 
HETATM   21  C9  UNL     1      28.999  -1.888  52.998  1.00  0.00    -0.024 A 
HETATM   22  C10 UNL     1      27.535  -1.874  52.756  1.00  0.00     0.056 A 
ENDBRANCH  15  17
ENDBRANCH   5  15
TORSDOF 2
ENDMDL
MODEL 2
REMARK VINA RESULT:      -7.7      1.529      2.172
REMARK  2 active torsions:
REMARK  status: ('A' for Active; 'I' for Inactive)
REMARK    1  A    between atoms: C4_5  and  N2_6 
REMARK    2  A    between atoms: N2_6  and  C5_7 
ROOT
HETATM    1  C1  UNL     1      24.095  -0.614  54.175  1.00  0.00     0.180 C 
HETATM    2  N1  UNL     1      23.249  -0.447  53.010  1.00  0.00    -0.271 NA
HETATM    3  C2  UNL     1      23.044   0.716  52.486  1.00  0.00     0.167 C 
HETATM    4  C3  UNL     1      23.733   1.664  53.203  1.00  0.00     0.117 C 
HETATM    5  C4  UNL     1      24.643   2.617  52.879  1.00  0.00     0.241 C 
HETATM    6  N3  UNL     1      24.189   3.683  52.210  1.00  0.00     0.107 N 
HETATM    7  C11 UNL     1      22.969   3.690  51.593  1.00  0.00     0.193 A 
HETATM    8  C12 UNL     1      21.702   3.410  52.070  1.00  0.00     0.041 C 
HETATM    9  C13 UNL     1      20.862   2.467  51.513  1.00  0.00     0.027 C 
HETATM   10  C14 UNL     1      20.986   1.094  51.522  1.00  0.00     0.144 C 
HETATM   11  O1  UNL     1      22.270   0.824  51.433  1.00  0.00    -0.304 OA
HETATM   12  C15 UNL     1      24.018   4.073  50.610  1.00  0.00     0.443 A 
HETATM   13  N4  UNL     1      24.277   5.009  51.708  1.00  0.00    -0.209 N 
HETATM   14  H18 UNL     1      24.460   5.797  52.367  1.00  0.00     0.190 HD
ENDROOT
BRANCH   5  15
HETATM   15  N2  UNL     1      26.055   2.592  53.184  1.00  0.00    -0.359 N 
HETATM   16  H5  UNL     1      26.254   3.212  54.027  1.00  0.00     0.161 HD
BRANCH  15  17
HETATM   17  C5  UNL     1      27.229   1.961  52.658  1.00  0.00     0.109 A 
HETATM   18  C6  UNL     1      27.078   0.478  52.477  1.00  0.00    -0.002 A 
HETATM   19  C7  UNL     1      27.800  -0.513  52.960  1.00  0.00    -0.002 A 
HETATM   20  C8  UNL     1      28.938  -0.191  53.808  1.00  0.00    -0.004 A 
HETATM   21  C9  UNL     1      29.144   1.097  54.020  1.00  0.00    -0.024 A 
HETATM   22  C10 UNL     1      28.409   2.291  53.535  1.00  0.00     0.056 A 
ENDBRANCH  15  17
ENDBRANCH   5  15
TORSDOF 2
ENDMDL
MODEL 3
REMARK VINA RESULT:      -7.6      2.496      5.588
REMARK  2 active torsions:
REMARK  status: ('A' for Active; 'I' for Inactive)
REMARK    1  A    between atoms: C4_5  and  N2_6 
REMARK    2  A    between atoms: N2_6  and  C5_7 
ROOT
HETATM    1  C1  UNL     1      27.951   2.082  53.456  1.00  0.00     0.180 C 
HETATM    2  N1  UNL     1      27.193   0.869  53.224  1.00  0.00    -0.271 NA
HETATM    3  C2  UNL     1      25.949   0.907  52.877  1.00  0.00     0.167 C 
HETATM    4  C3  UNL     1      25.543   2.217  52.786  1.00  0.00     0.117 C 
HETATM    5  C4  UNL     1      24.960   2.959  51.811  1.00  0.00     0.241 C 
HETATM    6  N3  UNL     1      23.672   2.709  51.550  1.00  0.00     0.107 N 
HETATM    7  C11 UNL     1      23.049   1.571  51.983  1.00  0.00     0.193 A 
HETATM    8  C12 UNL     1      22.935   1.016  53.243  1.00  0.00     0.041 C 
HETATM    9  C13 UNL     1      23.317  -0.273  53.552  1.00  0.00     0.027 C 
HETATM   10  C14 UNL     1      24.591  -0.798  53.621  1.00  0.00     0.144 C 
HETATM   11  O1  UNL     1      25.298  -0.214  52.678  1.00  0.00    -0.304 OA
HETATM   12  C15 UNL     1      22.864   1.703  50.512  1.00  0.00     0.443 A 
HETATM   13  N4  UNL     1      22.400   3.007  50.993  1.00  0.00    -0.209 N 
HETATM   14  H18 UNL     1      21.930   3.906  51.237  1.00  0.00     0.190 HD
ENDROOT
BRANCH   5  15
HETATM   15  N2  UNL     1      25.595   3.993  51.026  1.00  0.00    -0.359 N 
HETATM   16  H5  UNL     1      26.094   4.680  51.671  1.00  0.00     0.161 HD
BRANCH  15  17
HETATM   17  C5  UNL     1      25.726   4.323  49.639  1.00  0.00     0.109 A 
HETATM   18  C6  UNL     1      27.127   4.169  49.120  1.00  0.00    -0.002 A 
HETATM   19  C7  UNL     1      27.912   5.044  48.524  1.00  0.00    -0.002 A 
HETATM   20  C8  UNL     1      27.405   6.390  48.302  1.00  0.00    -0.004 A 
HETATM   21  C9  UNL     1      26.174   6.613  48.729  1.00  0.00    -0.024 A 
HETATM   22  C10 UNL     1      25.203   5.717  49.405  1.00  0.00     0.056 A 
ENDBRANCH  15  17
ENDBRANCH   5  15
TORSDOF 2
ENDMDL
MODEL 4
REMARK VINA RESULT:      -7.5      1.714      3.614
REMARK  2 active torsions:
REMARK  status: ('A' for Active; 'I' for Inactive)
REMARK    1  A    between atoms: C4_5  and  N2_6 
REMARK    2  A    between atoms: N2_6  and  C5_7 
ROOT
HETATM    1  C1  UNL     1      23.639   4.131  51.611  1.00  0.00     0.180 C 
HETATM    2  N1  UNL     1      22.271   4.030  52.078  1.00  0.00    -0.271 NA
HETATM    3  C2  UNL     1      21.742   2.889  52.375  1.00  0.00     0.167 C 
HETATM    4  C3  UNL     1      22.667   1.893  52.172  1.00  0.00     0.117 C 
HETATM    5  C4  UNL     1      23.176   0.903  52.948  1.00  0.00     0.241 C 
HETATM    6  N3  UNL     1      22.366  -0.125  53.222  1.00  0.00     0.107 N 
HETATM    7  C11 UNL     1      21.014  -0.060  53.028  1.00  0.00     0.193 A 
HETATM    8  C12 UNL     1      20.267   0.274  51.914  1.00  0.00     0.041 C 
HETATM    9  C13 UNL     1      19.309   1.268  51.900  1.00  0.00     0.027 C 
HETATM   10  C14 UNL     1      19.488   2.633  51.980  1.00  0.00     0.144 C 
HETATM   11  O1  UNL     1      20.501   2.840  52.793  1.00  0.00    -0.304 OA
HETATM   12  C15 UNL     1      21.288  -0.475  54.430  1.00  0.00     0.443 A 
HETATM   13  N4  UNL     1      22.081  -1.444  53.668  1.00  0.00    -0.209 N 
HETATM   14  H18 UNL     1      22.567  -2.253  53.224  1.00  0.00     0.190 HD
ENDROOT
BRANCH   5  15
HETATM   15  N2  UNL     1      24.506   0.852  53.508  1.00  0.00    -0.359 N 
HETATM   16  H5  UNL     1      24.914   1.836  53.562  1.00  0.00     0.161 HD
BRANCH  15  17
HETATM   17  C5  UNL     1      25.398  -0.155  54.001  1.00  0.00     0.109 A 
HETATM   18  C6  UNL     1      26.502   0.395  54.857  1.00  0.00    -0.002 A 
HETATM   19  C7  UNL     1      27.809   0.282  54.733  1.00  0.00    -0.002 A 
HETATM   20  C8  UNL     1      28.334  -0.484  53.612  1.00  0.00    -0.004 A 
HETATM   21  C9  UNL     1      27.427  -1.007  52.805  1.00  0.00    -0.024 A 
HETATM   22  C10 UNL     1      25.944  -0.949  52.842  1.00  0.00     0.056 A 
ENDBRANCH  15  17
ENDBRANCH   5  15
TORSDOF 2
ENDMDL
MODEL 5
REMARK VINA RESULT:      -7.5      2.374      5.335
REMARK  2 active torsions:
REMARK  status: ('A' for Active; 'I' for Inactive)
REMARK    1  A    between atoms: C4_5  and  N2_6 
REMARK    2  A    between atoms: N2_6  and  C5_7 
ROOT
HETATM    1  C1  UNL     1      21.982   2.597  50.211  1.00  0.00     0.180 C 
HETATM    2  N1  UNL     1      21.989   2.026  51.543  1.00  0.00    -0.271 NA
HETATM    3  C2  UNL     1      23.090   1.678  52.123  1.00  0.00     0.167 C 
HETATM    4  C3  UNL     1      24.146   1.941  51.284  1.00  0.00     0.117 C 
HETATM    5  C4  UNL     1      25.297   2.650  51.408  1.00  0.00     0.241 C 
HETATM    6  N3  UNL     1      26.250   2.124  52.184  1.00  0.00     0.107 N 
HETATM    7  C11 UNL     1      25.994   1.112  53.067  1.00  0.00     0.193 A 
HETATM    8  C12 UNL     1      25.409  -0.128  52.890  1.00  0.00     0.041 C 
HETATM    9  C13 UNL     1      24.317  -0.571  53.609  1.00  0.00     0.027 C 
HETATM   10  C14 UNL     1      23.011  -0.132  53.544  1.00  0.00     0.144 C 
HETATM   11  O1  UNL     1      23.052   1.165  53.329  1.00  0.00    -0.304 OA
HETATM   12  C15 UNL     1      26.648   2.238  53.787  1.00  0.00     0.443 A 
HETATM   13  N4  UNL     1      27.577   2.010  52.677  1.00  0.00    -0.209 N 
HETATM   14  H18 UNL     1      28.362   1.845  52.010  1.00  0.00     0.190 HD
ENDROOT
BRANCH   5  15
HETATM   15  N2  UNL     1      25.591   3.919  50.784  1.00  0.00    -0.359 N 
HETATM   16  H5  UNL     1      25.691   4.674  51.530  1.00  0.00     0.161 HD
BRANCH  15  17
HETATM   17  C5  UNL     1      25.780   4.414  49.452  1.00  0.00     0.109 A 
HETATM   18  C6  UNL     1      27.190   4.270  48.959  1.00  0.00    -0.002 A 
HETATM   19  C7  UNL     1      28.025   5.180  48.499  1.00  0.00    -0.002 A 
HETATM   20  C8  UNL     1      27.574   6.563  48.432  1.00  0.00    -0.004 A 
HETATM   21  C9  UNL     1      26.338   6.779  48.849  1.00  0.00    -0.024 A 
HETATM   22  C10 UNL     1      25.314   5.845  49.380  1.00  0.00     0.056 A 
ENDBRANCH  15  17
ENDBRANCH   5  15
TORSDOF 2
ENDMDL
MODEL 6
REMARK VINA RESULT:      -7.4      1.559      3.332
REMARK  2 active torsions:
REMARK  status: ('A' for Active; 'I' for Inactive)
REMARK    1  A    between atoms: C4_5  and  N2_6 
REMARK    2  A    between atoms: N2_6  and  C5_7 
ROOT
HETATM    1  C1  UNL     1      26.740   2.471  51.460  1.00  0.00     0.180 C 
HETATM    2  N1  UNL     1      25.573   3.226  51.051  1.00  0.00    -0.271 NA
HETATM    3  C2  UNL     1      24.388   2.712  51.092  1.00  0.00     0.167 C 
HETATM    4  C3  UNL     1      24.469   1.422  51.562  1.00  0.00     0.117 C 
HETATM    5  C4  UNL     1      23.876   0.748  52.579  1.00  0.00     0.241 C 
HETATM    6  N3  UNL     1      22.583   0.442  52.428  1.00  0.00     0.107 N 
HETATM    7  C11 UNL     1      21.800   1.038  51.478  1.00  0.00     0.193 A 
HETATM    8  C12 UNL     1      21.962   1.168  50.112  1.00  0.00     0.041 C 
HETATM    9  C13 UNL     1      21.947   2.378  49.448  1.00  0.00     0.027 C 
HETATM   10  C14 UNL     1      22.883   3.390  49.486  1.00  0.00     0.144 C 
HETATM   11  O1  UNL     1      23.358   3.428  50.712  1.00  0.00    -0.304 OA
HETATM   12  C15 UNL     1      21.153   1.185  52.810  1.00  0.00     0.443 A 
HETATM   13  N4  UNL     1      21.390  -0.260  52.749  1.00  0.00    -0.209 N 
HETATM   14  H18 UNL     1      21.392  -1.303  52.750  1.00  0.00     0.190 HD
ENDROOT
BRANCH   5  15
HETATM   15  N2  UNL     1      24.505   0.331  53.811  1.00  0.00    -0.359 N 
HETATM   16  H5  UNL     1      24.014   0.786  54.640  1.00  0.00     0.161 HD
BRANCH  15  17
HETATM   17  C5  UNL     1      25.593  -0.518  54.197  1.00  0.00     0.109 A 
HETATM   18  C6  UNL     1      26.662   0.199  54.970  1.00  0.00    -0.002 A 
HETATM   19  C7  UNL     1      27.953   0.309  54.731  1.00  0.00    -0.002 A 
HETATM   20  C8  UNL     1      28.496  -0.344  53.548  1.00  0.00    -0.004 A 
HETATM   21  C9  UNL     1      27.619  -1.001  52.808  1.00  0.00    -0.024 A 
HETATM   22  C10 UNL     1      26.157  -1.194  52.975  1.00  0.00     0.056 A 
ENDBRANCH  15  17
ENDBRANCH   5  15
TORSDOF 2
ENDMDL
MODEL 7
REMARK VINA RESULT:      -7.1      2.293      5.705
REMARK  2 active torsions:
REMARK  status: ('A' for Active; 'I' for Inactive)
REMARK    1  A    between atoms: C4_5  and  N2_6 
REMARK    2  A    between atoms: N2_6  and  C5_7 
ROOT
HETATM    1  C1  UNL     1      24.399  -1.436  55.512  1.00  0.00     0.180 C 
HETATM    2  N1  UNL     1      25.583  -0.648  55.791  1.00  0.00    -0.271 NA
HETATM    3  C2  UNL     1      26.226  -0.040  54.850  1.00  0.00     0.167 C 
HETATM    4  C3  UNL     1      25.605  -0.279  53.648  1.00  0.00     0.117 C 
HETATM    5  C4  UNL     1      25.112   0.515  52.665  1.00  0.00     0.241 C 
HETATM    6  N3  UNL     1      26.004   1.149  51.896  1.00  0.00     0.107 N 
HETATM    7  C11 UNL     1      27.318   1.272  52.254  1.00  0.00     0.193 A 
HETATM    8  C12 UNL     1      28.256   0.325  52.620  1.00  0.00     0.041 C 
HETATM    9  C13 UNL     1      28.967   0.365  53.802  1.00  0.00     0.027 C 
HETATM   10  C14 UNL     1      28.508   0.160  55.087  1.00  0.00     0.144 C 
HETATM   11  O1  UNL     1      27.294   0.662  55.145  1.00  0.00    -0.304 OA
HETATM   12  C15 UNL     1      26.763   2.620  51.955  1.00  0.00     0.443 A 
HETATM   13  N4  UNL     1      26.412   1.873  50.744  1.00  0.00    -0.209 N 
HETATM   14  H18 UNL     1      26.232   1.475  49.796  1.00  0.00     0.190 HD
ENDROOT
BRANCH   5  15
HETATM   15  N2  UNL     1      23.716   0.745  52.369  1.00  0.00    -0.359 N 
HETATM   16  H5  UNL     1      23.531   0.561  51.336  1.00  0.00     0.161 HD
BRANCH  15  17
HETATM   17  C5  UNL     1      22.545   1.146  53.090  1.00  0.00     0.109 A 
HETATM   18  C6  UNL     1      21.873   0.013  53.810  1.00  0.00    -0.002 A 
HETATM   19  C7  UNL     1      20.633  -0.426  53.731  1.00  0.00    -0.002 A 
HETATM   20  C8  UNL     1      19.717   0.247  52.821  1.00  0.00    -0.004 A 
HETATM   21  C9  UNL     1      20.229   1.260  52.144  1.00  0.00    -0.024 A 
HETATM   22  C10 UNL     1      21.594   1.842  52.150  1.00  0.00     0.056 A 
ENDBRANCH  15  17
ENDBRANCH   5  15
TORSDOF 2
ENDMDL
MODEL 8
REMARK VINA RESULT:      -6.8      3.133      5.633
REMARK  2 active torsions:
REMARK  status: ('A' for Active; 'I' for Inactive)
REMARK    1  A    between atoms: C4_5  and  N2_6 
REMARK    2  A    between atoms: N2_6  and  C5_7 
ROOT
HETATM    1  C1  UNL     1      18.801   0.034  51.521  1.00  0.00     0.180 C 
HETATM    2  N1  UNL     1      19.378   0.071  52.849  1.00  0.00    -0.271 NA
HETATM    3  C2  UNL     1      20.650   0.208  53.028  1.00  0.00     0.167 C 
HETATM    4  C3  UNL     1      21.273   0.301  51.807  1.00  0.00     0.117 C 
HETATM    5  C4  UNL     1      22.113   1.205  51.242  1.00  0.00     0.241 C 
HETATM    6  N3  UNL     1      23.368   1.235  51.704  1.00  0.00     0.107 N 
HETATM    7  C11 UNL     1      23.723   0.644  52.885  1.00  0.00     0.193 A 
HETATM    8  C12 UNL     1      23.548  -0.646  53.350  1.00  0.00     0.041 C 
HETATM    9  C13 UNL     1      22.917  -0.957  54.537  1.00  0.00     0.027 C 
HETATM   10  C14 UNL     1      21.581  -0.842  54.855  1.00  0.00     0.144 C 
HETATM   11  O1  UNL     1      21.133   0.236  54.247  1.00  0.00    -0.304 OA
HETATM   12  C15 UNL     1      24.153   2.068  52.901  1.00  0.00     0.443 A 
HETATM   13  N4  UNL     1      24.742   1.589  51.648  1.00  0.00    -0.209 N 
HETATM   14  H18 UNL     1      25.309   1.319  50.814  1.00  0.00     0.190 HD
ENDROOT
BRANCH   5  15
HETATM   15  N2  UNL     1      21.784   2.138  50.189  1.00  0.00    -0.359 N 
HETATM   16  H5  UNL     1      21.373   1.614  49.357  1.00  0.00     0.161 HD
BRANCH  15  17
HETATM   17  C5  UNL     1      21.864   3.553  49.981  1.00  0.00     0.109 A 
HETATM   18  C6  UNL     1      23.204   4.005  49.474  1.00  0.00    -0.002 A 
HETATM   19  C7  UNL     1      24.043   4.891  49.969  1.00  0.00    -0.002 A 
HETATM   20  C8  UNL     1      23.678   5.579  51.199  1.00  0.00    -0.004 A 
HETATM   21  C9  UNL     1      22.509   5.241  51.715  1.00  0.00    -0.024 A 
HETATM   22  C10 UNL     1      21.488   4.268  51.253  1.00  0.00     0.056 A 
ENDBRANCH  15  17
ENDBRANCH   5  15
TORSDOF 2
ENDMDL
MODEL 9
REMARK VINA RESULT:      -6.7      2.991      5.216
REMARK  2 active torsions:
REMARK  status: ('A' for Active; 'I' for Inactive)
REMARK    1  A    between atoms: C4_5  and  N2_6 
REMARK    2  A    between atoms: N2_6  and  C5_7 
ROOT
HETATM    1  C1  UNL     1      20.719   4.127  49.381  1.00  0.00     0.180 C 
HETATM    2  N1  UNL     1      20.466   3.742  50.754  1.00  0.00    -0.271 NA
HETATM    3  C2  UNL     1      21.244   2.922  51.380  1.00  0.00     0.167 C 
HETATM    4  C3  UNL     1      22.261   2.533  50.541  1.00  0.00     0.117 C 
HETATM    5  C4  UNL     1      23.615   2.552  50.627  1.00  0.00     0.241 C 
HETATM    6  N3  UNL     1      24.181   1.672  51.459  1.00  0.00     0.107 N 
HETATM    7  C11 UNL     1      23.463   1.011  52.418  1.00  0.00     0.193 A 
HETATM    8  C12 UNL     1      22.316   0.243  52.332  1.00  0.00     0.041 C 
HETATM    9  C13 UNL     1      21.173   0.487  53.065  1.00  0.00     0.027 C 
HETATM   10  C14 UNL     1      20.280   1.531  52.942  1.00  0.00     0.144 C 
HETATM   11  O1  UNL     1      20.980   2.598  52.623  1.00  0.00    -0.304 OA
HETATM   12  C15 UNL     1      24.624   1.689  53.055  1.00  0.00     0.443 A 
HETATM   13  N4  UNL     1      25.271   0.927  51.984  1.00  0.00    -0.209 N 
HETATM   14  H18 UNL     1      25.839   0.329  51.346  1.00  0.00     0.190 HD
ENDROOT
BRANCH   5  15
HETATM   15  N2  UNL     1      24.506   3.433  49.906  1.00  0.00    -0.359 N 
HETATM   16  H5  UNL     1      24.242   3.449  48.874  1.00  0.00     0.161 HD
BRANCH  15  17
HETATM   17  C5  UNL     1      25.626   4.271  50.215  1.00  0.00     0.109 A 
HETATM   18  C6  UNL     1      25.385   5.722  49.910  1.00  0.00    -0.002 A 
HETATM   19  C7  UNL     1      26.063   6.552  49.144  1.00  0.00    -0.002 A 
HETATM   20  C8  UNL     1      27.242   6.050  48.454  1.00  0.00    -0.004 A 
HETATM   21  C9  UNL     1      27.529   4.777  48.667  1.00  0.00    -0.024 A 
HETATM   22  C10 UNL     1      26.849   3.755  49.500  1.00  0.00     0.056 A 
ENDBRANCH  15  17
ENDBRANCH   5  15
TORSDOF 2
ENDMDL
