MODEL 1
REMARK VINA RESULT:      -8.6      0.000      0.000
REMARK  5 active torsions:
REMARK  status: ('A' for Active; 'I' for Inactive)
REMARK    1  A    between atoms: C5_5  and  C6_6 
REMARK    2  A    between atoms: C8_8  and  C9_9 
REMARK    3  A    between atoms: C10_10  and  C11_11 
REMARK    4  A    between atoms: C12_12  and  C14_14 
REMARK    5  A    between atoms: N2_18  and  C17_19 
ROOT
HETATM    1  C6  UNL     1      26.191   2.279  52.265  1.00  0.00     0.147 C 
HETATM    2  C7  UNL     1      26.585   2.656  50.850  1.00  0.00     0.093 C 
HETATM    3  C8  UNL     1      25.396   3.454  50.446  1.00  0.00     0.057 C 
HETATM    4  N1  UNL     1      24.424   3.085  51.177  1.00  0.00    -0.174 NA
HETATM    5  N2  UNL     1      24.769   2.083  52.096  1.00  0.00    -0.237 N 
ENDROOT
BRANCH   3   6
HETATM    6  C9  UNL     1      25.364   4.474  49.405  1.00  0.00     0.029 C 
HETATM    7  C10 UNL     1      25.820   5.691  49.662  1.00  0.00     0.003 C 
BRANCH   7   8
HETATM    8  C11 UNL     1      25.792   6.719  48.630  1.00  0.00     0.007 C 
HETATM    9  C12 UNL     1      26.811   7.107  47.896  1.00  0.00    -0.056 C 
HETATM   10  C13 UNL     1      26.691   8.171  46.860  1.00  0.00     0.049 C 
BRANCH   9  11
HETATM   11  C14 UNL     1      28.148   6.500  48.060  1.00  0.00    -0.052 A 
HETATM   12  C15 UNL     1      29.492   6.733  48.210  1.00  0.00    -0.014 A 
HETATM   13  C16 UNL     1      29.047   5.337  48.184  1.00  0.00     0.066 A 
ENDBRANCH   9  11
ENDBRANCH   7   8
ENDBRANCH   3   6
BRANCH   1  14
HETATM   14  C5  UNL     1      26.937   1.067  52.639  1.00  0.00    -0.051 A 
HETATM   15  C4  UNL     1      27.936   1.084  53.538  1.00  0.00     0.005 A 
HETATM   16  C3  UNL     1      28.523  -0.220  53.745  1.00  0.00     0.003 A 
HETATM   17  C2  UNL     1      27.869  -1.039  52.960  1.00  0.00    -0.080 A 
HETATM   18  C1  UNL     1      28.158  -2.513  52.857  1.00  0.00     0.043 C 
HETATM   19  C21 UNL     1      26.798  -0.324  52.183  1.00  0.00     0.070 A 
ENDBRANCH   1  14
BRANCH   5  20
HETATM   20  C17 UNL     1      23.744   1.173  52.620  1.00  0.00     0.190 A 
HETATM   21  N3  UNL     1      23.464   0.434  53.433  1.00  0.00    -0.228 NA
HETATM   22  C18 UNL     1      22.405  -0.287  53.661  1.00  0.00     0.040 A 
HETATM   23  C19 UNL     1      22.203  -1.237  54.815  1.00  0.00     0.071 C 
HETATM   24  C20 UNL     1      21.426  -0.096  52.701  1.00  0.00     0.080 A 
HETATM   25  S1  UNL     1      22.135   1.094  51.579  1.00  0.00    -0.060 SA
ENDBRANCH   5  20
TORSDOF 5
ENDMDL
MODEL 2
REMARK VINA RESULT:      -8.5      1.852      4.014
REMARK  5 active torsions:
REMARK  status: ('A' for Active; 'I' for Inactive)
REMARK    1  A    between atoms: C5_5  and  C6_6 
REMARK    2  A    between atoms: C8_8  and  C9_9 
REMARK    3  A    between atoms: C10_10  and  C11_11 
REMARK    4  A    between atoms: C12_12  and  C14_14 
REMARK    5  A    between atoms: N2_18  and  C17_19 
ROOT
HETATM    1  C6  UNL     1      24.892   1.605  51.153  1.00  0.00     0.147 C 
HETATM    2  C7  UNL     1      24.552   3.079  51.044  1.00  0.00     0.093 C 
HETATM    3  C8  UNL     1      25.821   3.603  50.471  1.00  0.00     0.057 C 
HETATM    4  N1  UNL     1      26.743   2.782  50.774  1.00  0.00    -0.174 NA
HETATM    5  N2  UNL     1      26.288   1.686  51.521  1.00  0.00    -0.237 N 
ENDROOT
BRANCH   3   6
HETATM    6  C9  UNL     1      25.968   4.832  49.700  1.00  0.00     0.029 C 
HETATM    7  C10 UNL     1      27.064   5.032  48.983  1.00  0.00     0.003 C 
BRANCH   7   8
HETATM    8  C11 UNL     1      27.222   6.256  48.209  1.00  0.00     0.007 C 
HETATM    9  C12 UNL     1      28.359   6.763  47.787  1.00  0.00    -0.056 C 
HETATM   10  C13 UNL     1      28.427   8.026  46.998  1.00  0.00     0.049 C 
BRANCH   9  11
HETATM   11  C14 UNL     1      29.648   6.098  48.073  1.00  0.00    -0.052 A 
HETATM   12  C15 UNL     1      30.502   5.080  47.730  1.00  0.00    -0.014 A 
HETATM   13  C16 UNL     1      30.907   5.963  48.828  1.00  0.00     0.066 A 
ENDBRANCH   9  11
ENDBRANCH   7   8
ENDBRANCH   3   6
BRANCH   1  14
HETATM   14  C5  UNL     1      24.021   1.010  52.178  1.00  0.00    -0.051 A 
HETATM   15  C4  UNL     1      22.784   1.471  52.430  1.00  0.00     0.005 A 
HETATM   16  C3  UNL     1      22.116   0.733  53.477  1.00  0.00     0.003 A 
HETATM   17  C2  UNL     1      22.960  -0.189  53.865  1.00  0.00    -0.080 A 
HETATM   18  C1  UNL     1      22.669  -1.191  54.950  1.00  0.00     0.043 C 
HETATM   19  C21 UNL     1      24.247  -0.123  53.089  1.00  0.00     0.070 A 
ENDBRANCH   1  14
BRANCH   5  20
HETATM   20  C17 UNL     1      27.208   0.954  52.398  1.00  0.00     0.190 A 
HETATM   21  N3  UNL     1      27.846   0.026  52.534  1.00  0.00    -0.228 NA
HETATM   22  C18 UNL     1      28.614  -0.399  53.494  1.00  0.00     0.040 A 
HETATM   23  C19 UNL     1      29.402  -1.686  53.504  1.00  0.00     0.071 C 
HETATM   24  C20 UNL     1      28.649   0.480  54.564  1.00  0.00     0.080 A 
HETATM   25  S1  UNL     1      27.575   1.815  54.072  1.00  0.00    -0.060 SA
ENDBRANCH   5  20
TORSDOF 5
ENDMDL
MODEL 3
REMARK VINA RESULT:      -8.4      3.463      7.166
REMARK  5 active torsions:
REMARK  status: ('A' for Active; 'I' for Inactive)
REMARK    1  A    between atoms: C5_5  and  C6_6 
REMARK    2  A    between atoms: C8_8  and  C9_9 
REMARK    3  A    between atoms: C10_10  and  C11_11 
REMARK    4  A    between atoms: C12_12  and  C14_14 
REMARK    5  A    between atoms: N2_18  and  C17_19 
ROOT
HETATM    1  C6  UNL     1      22.008   0.595  53.321  1.00  0.00     0.147 C 
HETATM    2  C7  UNL     1      22.909  -0.606  53.110  1.00  0.00     0.093 C 
HETATM    3  C8  UNL     1      24.244   0.050  53.149  1.00  0.00     0.057 C 
HETATM    4  N1  UNL     1      24.074   1.273  52.844  1.00  0.00    -0.174 NA
HETATM    5  N2  UNL     1      22.737   1.600  52.580  1.00  0.00    -0.237 N 
ENDROOT
BRANCH   3   6
HETATM    6  C9  UNL     1      25.506  -0.597  53.483  1.00  0.00     0.029 C 
HETATM    7  C10 UNL     1      26.558  -0.433  52.695  1.00  0.00     0.003 C 
BRANCH   7   8
HETATM    8  C11 UNL     1      27.825  -1.076  53.018  1.00  0.00     0.007 C 
HETATM    9  C12 UNL     1      28.898  -0.480  53.489  1.00  0.00    -0.056 C 
HETATM   10  C13 UNL     1      30.156  -1.219  53.791  1.00  0.00     0.049 C 
BRANCH   9  11
HETATM   11  C14 UNL     1      28.913   0.975  53.750  1.00  0.00    -0.052 A 
HETATM   12  C15 UNL     1      29.368   1.979  54.567  1.00  0.00    -0.014 A 
HETATM   13  C16 UNL     1      28.530   2.363  53.427  1.00  0.00     0.066 A 
ENDBRANCH   9  11
ENDBRANCH   7   8
ENDBRANCH   3   6
BRANCH   1  14
HETATM   14  C5  UNL     1      20.681   0.272  52.777  1.00  0.00    -0.051 A 
HETATM   15  C4  UNL     1      19.748  -0.382  53.490  1.00  0.00     0.005 A 
HETATM   16  C3  UNL     1      18.524  -0.588  52.750  1.00  0.00     0.003 A 
HETATM   17  C2  UNL     1      18.718  -0.051  51.572  1.00  0.00    -0.080 A 
HETATM   18  C1  UNL     1      17.688  -0.041  50.474  1.00  0.00     0.043 C 
HETATM   19  C21 UNL     1      20.090   0.554  51.459  1.00  0.00     0.070 A 
ENDBRANCH   1  14
BRANCH   5  20
HETATM   20  C17 UNL     1      22.409   2.744  51.721  1.00  0.00     0.190 A 
HETATM   21  N3  UNL     1      21.928   3.768  51.656  1.00  0.00    -0.228 NA
HETATM   22  C18 UNL     1      21.764   4.620  50.686  1.00  0.00     0.040 A 
HETATM   23  C19 UNL     1      21.083   5.963  50.783  1.00  0.00     0.071 C 
HETATM   24  C20 UNL     1      22.297   4.163  49.493  1.00  0.00     0.080 A 
HETATM   25  S1  UNL     1      22.972   2.564  49.897  1.00  0.00    -0.060 SA
ENDBRANCH   5  20
TORSDOF 5
ENDMDL
MODEL 4
REMARK VINA RESULT:      -8.2      2.446      7.597
REMARK  5 active torsions:
REMARK  status: ('A' for Active; 'I' for Inactive)
REMARK    1  A    between atoms: C5_5  and  C6_6 
REMARK    2  A    between atoms: C8_8  and  C9_9 
REMARK    3  A    between atoms: C10_10  and  C11_11 
REMARK    4  A    between atoms: C12_12  and  C14_14 
REMARK    5  A    between atoms: N2_18  and  C17_19 
ROOT
HETATM    1  C6  UNL     1      24.698  -0.368  52.703  1.00  0.00     0.147 C 
HETATM    2  C7  UNL     1      23.739  -0.559  53.861  1.00  0.00     0.093 C 
HETATM    3  C8  UNL     1      22.466  -0.119  53.229  1.00  0.00     0.057 C 
HETATM    4  N1  UNL     1      22.768   0.649  52.262  1.00  0.00    -0.174 NA
HETATM    5  N2  UNL     1      24.150   0.829  52.104  1.00  0.00    -0.237 N 
ENDROOT
BRANCH   3   6
HETATM    6  C9  UNL     1      21.124  -0.507  53.646  1.00  0.00     0.029 C 
HETATM    7  C10 UNL     1      20.111  -0.385  52.802  1.00  0.00     0.003 C 
BRANCH   7   8
HETATM    8  C11 UNL     1      18.766  -0.770  53.209  1.00  0.00     0.007 C 
HETATM    9  C12 UNL     1      17.675  -0.652  52.484  1.00  0.00    -0.056 C 
HETATM   10  C13 UNL     1      16.335  -1.073  52.983  1.00  0.00     0.049 C 
BRANCH   9  11
HETATM   11  C14 UNL     1      17.720  -0.091  51.117  1.00  0.00    -0.052 A 
HETATM   12  C15 UNL     1      17.172  -0.117  49.860  1.00  0.00    -0.014 A 
HETATM   13  C16 UNL     1      18.281   0.812  50.096  1.00  0.00     0.066 A 
ENDBRANCH   9  11
ENDBRANCH   7   8
ENDBRANCH   3   6
BRANCH   1  14
HETATM   14  C5  UNL     1      26.054  -0.214  53.252  1.00  0.00    -0.051 A 
HETATM   15  C4  UNL     1      26.280   0.216  54.505  1.00  0.00     0.005 A 
HETATM   16  C3  UNL     1      27.687   0.290  54.824  1.00  0.00     0.003 A 
HETATM   17  C2  UNL     1      28.323  -0.101  53.748  1.00  0.00    -0.080 A 
HETATM   18  C1  UNL     1      29.822  -0.177  53.640  1.00  0.00     0.043 C 
HETATM   19  C21 UNL     1      27.370  -0.466  52.644  1.00  0.00     0.070 A 
ENDBRANCH   1  14
BRANCH   5  20
HETATM   20  C17 UNL     1      24.671   2.034  51.450  1.00  0.00     0.190 A 
HETATM   21  N3  UNL     1      25.480   2.475  50.790  1.00  0.00    -0.228 NA
HETATM   22  C18 UNL     1      25.715   3.674  50.342  1.00  0.00     0.040 A 
HETATM   23  C19 UNL     1      26.865   4.087  49.457  1.00  0.00     0.071 C 
HETATM   24  C20 UNL     1      24.766   4.587  50.770  1.00  0.00     0.080 A 
HETATM   25  S1  UNL     1      23.646   3.624  51.767  1.00  0.00    -0.060 SA
ENDBRANCH   5  20
TORSDOF 5
ENDMDL
MODEL 5
REMARK VINA RESULT:      -7.7      2.300      3.777
REMARK  5 active torsions:
REMARK  status: ('A' for Active; 'I' for Inactive)
REMARK    1  A    between atoms: C5_5  and  C6_6 
REMARK    2  A    between atoms: C8_8  and  C9_9 
REMARK    3  A    between atoms: C10_10  and  C11_11 
REMARK    4  A    between atoms: C12_12  and  C14_14 
REMARK    5  A    between atoms: N2_18  and  C17_19 
ROOT
HETATM    1  C6  UNL     1      24.166   2.558  51.777  1.00  0.00     0.147 C 
HETATM    2  C7  UNL     1      25.554   2.246  51.254  1.00  0.00     0.093 C 
HETATM    3  C8  UNL     1      25.601   3.143  50.068  1.00  0.00     0.057 C 
HETATM    4  N1  UNL     1      24.401   3.375  49.720  1.00  0.00    -0.174 NA
HETATM    5  N2  UNL     1      23.452   2.737  50.532  1.00  0.00    -0.237 N 
ENDROOT
BRANCH   3   6
HETATM    6  C9  UNL     1      26.807   3.661  49.434  1.00  0.00     0.029 C 
HETATM    7  C10 UNL     1      26.837   4.912  48.999  1.00  0.00     0.003 C 
BRANCH   7   8
HETATM    8  C11 UNL     1      28.037   5.440  48.363  1.00  0.00     0.007 C 
HETATM    9  C12 UNL     1      28.350   6.710  48.235  1.00  0.00    -0.056 C 
HETATM   10  C13 UNL     1      29.603   7.161  47.566  1.00  0.00     0.049 C 
BRANCH   9  11
HETATM   11  C14 UNL     1      27.465   7.774  48.756  1.00  0.00    -0.052 A 
HETATM   12  C15 UNL     1      26.483   8.684  48.456  1.00  0.00    -0.014 A 
HETATM   13  C16 UNL     1      26.954   8.629  49.843  1.00  0.00     0.066 A 
ENDBRANCH   9  11
ENDBRANCH   7   8
ENDBRANCH   3   6
BRANCH   1  14
HETATM   14  C5  UNL     1      23.714   1.415  52.585  1.00  0.00    -0.051 A 
HETATM   15  C4  UNL     1      24.495   0.348  52.826  1.00  0.00     0.005 A 
HETATM   16  C3  UNL     1      23.840  -0.649  53.641  1.00  0.00     0.003 A 
HETATM   17  C2  UNL     1      22.645  -0.180  53.897  1.00  0.00    -0.080 A 
HETATM   18  C1  UNL     1      21.618  -0.905  54.724  1.00  0.00     0.043 C 
HETATM   19  C21 UNL     1      22.435   1.170  53.270  1.00  0.00     0.070 A 
ENDBRANCH   1  14
BRANCH   5  20
HETATM   20  C17 UNL     1      22.115   2.430  50.011  1.00  0.00     0.190 A 
HETATM   21  N3  UNL     1      21.117   1.932  50.209  1.00  0.00    -0.228 NA
HETATM   22  C18 UNL     1      20.029   1.800  49.508  1.00  0.00     0.040 A 
HETATM   23  C19 UNL     1      18.770   1.088  49.939  1.00  0.00     0.071 C 
HETATM   24  C20 UNL     1      20.130   2.403  48.266  1.00  0.00     0.080 A 
HETATM   25  S1  UNL     1      21.774   3.089  48.243  1.00  0.00    -0.060 SA
ENDBRANCH   5  20
TORSDOF 5
ENDMDL
MODEL 6
REMARK VINA RESULT:      -7.7      2.037      2.891
REMARK  5 active torsions:
REMARK  status: ('A' for Active; 'I' for Inactive)
REMARK    1  A    between atoms: C5_5  and  C6_6 
REMARK    2  A    between atoms: C8_8  and  C9_9 
REMARK    3  A    between atoms: C10_10  and  C11_11 
REMARK    4  A    between atoms: C12_12  and  C14_14 
REMARK    5  A    between atoms: N2_18  and  C17_19 
ROOT
HETATM    1  C6  UNL     1      25.274   3.498  51.157  1.00  0.00     0.147 C 
HETATM    2  C7  UNL     1      26.417   3.880  50.237  1.00  0.00     0.093 C 
HETATM    3  C8  UNL     1      25.714   4.807  49.309  1.00  0.00     0.057 C 
HETATM    4  N1  UNL     1      24.478   4.513  49.343  1.00  0.00    -0.174 NA
HETATM    5  N2  UNL     1      24.182   3.452  50.211  1.00  0.00    -0.237 N 
ENDROOT
BRANCH   3   6
HETATM    6  C9  UNL     1      26.338   5.858  48.515  1.00  0.00     0.029 C 
HETATM    7  C10 UNL     1      27.658   5.916  48.419  1.00  0.00     0.003 C 
BRANCH   7   8
HETATM    8  C11 UNL     1      28.292   6.963  47.629  1.00  0.00     0.007 C 
HETATM    9  C12 UNL     1      29.569   7.038  47.327  1.00  0.00    -0.056 C 
HETATM   10  C13 UNL     1      30.133   8.150  46.511  1.00  0.00     0.049 C 
BRANCH   9  11
HETATM   11  C14 UNL     1      30.527   6.010  47.785  1.00  0.00    -0.052 A 
HETATM   12  C15 UNL     1      31.377   5.614  48.786  1.00  0.00    -0.014 A 
HETATM   13  C16 UNL     1      31.270   4.748  47.608  1.00  0.00     0.066 A 
ENDBRANCH   9  11
ENDBRANCH   7   8
ENDBRANCH   3   6
BRANCH   1  14
HETATM   14  C5  UNL     1      25.601   2.207  51.781  1.00  0.00    -0.051 A 
HETATM   15  C4  UNL     1      26.615   1.435  51.353  1.00  0.00     0.005 A 
HETATM   16  C3  UNL     1      26.746   0.214  52.115  1.00  0.00     0.003 A 
HETATM   17  C2  UNL     1      25.797   0.246  53.016  1.00  0.00    -0.080 A 
HETATM   18  C1  UNL     1      25.566  -0.841  54.031  1.00  0.00     0.043 C 
HETATM   19  C21 UNL     1      24.977   1.502  52.912  1.00  0.00     0.070 A 
ENDBRANCH   1  14
BRANCH   5  20
HETATM   20  C17 UNL     1      22.983   2.634  49.999  1.00  0.00     0.190 A 
HETATM   21  N3  UNL     1      22.159   2.023  50.483  1.00  0.00    -0.228 NA
HETATM   22  C18 UNL     1      21.151   1.349  50.011  1.00  0.00     0.040 A 
HETATM   23  C19 UNL     1      20.136   0.579  50.820  1.00  0.00     0.071 C 
HETATM   24  C20 UNL     1      21.087   1.401  48.630  1.00  0.00     0.080 A 
HETATM   25  S1  UNL     1      22.479   2.411  48.162  1.00  0.00    -0.060 SA
ENDBRANCH   5  20
TORSDOF 5
ENDMDL
MODEL 7
REMARK VINA RESULT:      -7.6      1.738      2.357
REMARK  5 active torsions:
REMARK  status: ('A' for Active; 'I' for Inactive)
REMARK    1  A    between atoms: C5_5  and  C6_6 
REMARK    2  A    between atoms: C8_8  and  C9_9 
REMARK    3  A    between atoms: C10_10  and  C11_11 
REMARK    4  A    between atoms: C12_12  and  C14_14 
REMARK    5  A    between atoms: N2_18  and  C17_19 
ROOT
HETATM    1  C6  UNL     1      25.529   2.586  51.582  1.00  0.00     0.147 C 
HETATM    2  C7  UNL     1      26.543   2.846  50.486  1.00  0.00     0.093 C 
HETATM    3  C8  UNL     1      25.804   3.847  49.670  1.00  0.00     0.057 C 
HETATM    4  N1  UNL     1      24.565   3.688  49.905  1.00  0.00    -0.174 NA
HETATM    5  N2  UNL     1      24.300   2.661  50.823  1.00  0.00    -0.237 N 
ENDROOT
BRANCH   3   6
HETATM    6  C9  UNL     1      26.401   4.829  48.773  1.00  0.00     0.029 C 
HETATM    7  C10 UNL     1      27.669   5.177  48.929  1.00  0.00     0.003 C 
BRANCH   7   8
HETATM    8  C11 UNL     1      28.276   6.158  48.038  1.00  0.00     0.007 C 
HETATM    9  C12 UNL     1      28.098   7.460  48.083  1.00  0.00    -0.056 C 
HETATM   10  C13 UNL     1      28.762   8.391  47.128  1.00  0.00     0.049 C 
BRANCH   9  11
HETATM   11  C14 UNL     1      27.218   8.077  49.098  1.00  0.00    -0.052 A 
HETATM   12  C15 UNL     1      25.925   8.279  49.511  1.00  0.00    -0.014 A 
HETATM   13  C16 UNL     1      26.994   8.868  50.323  1.00  0.00     0.066 A 
ENDBRANCH   9  11
ENDBRANCH   7   8
ENDBRANCH   3   6
BRANCH   1  14
HETATM   14  C5  UNL     1      25.812   1.264  52.162  1.00  0.00    -0.051 A 
HETATM   15  C4  UNL     1      25.281   0.859  53.328  1.00  0.00     0.005 A 
HETATM   16  C3  UNL     1      25.700  -0.472  53.700  1.00  0.00     0.003 A 
HETATM   17  C2  UNL     1      26.497  -0.880  52.745  1.00  0.00    -0.080 A 
HETATM   18  C1  UNL     1      27.168  -2.228  52.729  1.00  0.00     0.043 C 
HETATM   19  C21 UNL     1      26.651   0.161  51.671  1.00  0.00     0.070 A 
ENDBRANCH   1  14
BRANCH   5  20
HETATM   20  C17 UNL     1      23.002   1.977  50.816  1.00  0.00     0.190 A 
HETATM   21  N3  UNL     1      22.227   1.418  51.425  1.00  0.00    -0.228 NA
HETATM   22  C18 UNL     1      21.081   0.875  51.133  1.00  0.00     0.040 A 
HETATM   23  C19 UNL     1      20.164   0.155  52.091  1.00  0.00     0.071 C 
HETATM   24  C20 UNL     1      20.758   1.024  49.796  1.00  0.00     0.080 A 
HETATM   25  S1  UNL     1      22.133   1.924  49.107  1.00  0.00    -0.060 SA
ENDBRANCH   5  20
TORSDOF 5
ENDMDL
MODEL 8
REMARK VINA RESULT:      -7.6      2.948      8.239
REMARK  5 active torsions:
REMARK  status: ('A' for Active; 'I' for Inactive)
REMARK    1  A    between atoms: C5_5  and  C6_6 
REMARK    2  A    between atoms: C8_8  and  C9_9 
REMARK    3  A    between atoms: C10_10  and  C11_11 
REMARK    4  A    between atoms: C12_12  and  C14_14 
REMARK    5  A    between atoms: N2_18  and  C17_19 
ROOT
HETATM    1  C6  UNL     1      23.138   1.837  52.609  1.00  0.00     0.147 C 
HETATM    2  C7  UNL     1      21.803   1.322  52.105  1.00  0.00     0.093 C 
HETATM    3  C8  UNL     1      21.484   0.328  53.164  1.00  0.00     0.057 C 
HETATM    4  N1  UNL     1      22.581  -0.021  53.701  1.00  0.00    -0.174 NA
HETATM    5  N2  UNL     1      23.700   0.618  53.147  1.00  0.00    -0.237 N 
ENDROOT
BRANCH   3   6
HETATM    6  C9  UNL     1      20.152  -0.148  53.517  1.00  0.00     0.029 C 
HETATM    7  C10 UNL     1      19.269  -0.402  52.563  1.00  0.00     0.003 C 
BRANCH   7   8
HETATM    8  C11 UNL     1      17.935  -0.878  52.904  1.00  0.00     0.007 C 
HETATM    9  C12 UNL     1      16.860  -0.771  52.154  1.00  0.00    -0.056 C 
HETATM   10  C13 UNL     1      15.530  -1.288  52.585  1.00  0.00     0.049 C 
BRANCH   9  11
HETATM   11  C14 UNL     1      16.913  -0.125  50.826  1.00  0.00    -0.052 A 
HETATM   12  C15 UNL     1      16.766  -0.295  49.472  1.00  0.00    -0.014 A 
HETATM   13  C16 UNL     1      17.130   1.042  49.950  1.00  0.00     0.066 A 
ENDBRANCH   9  11
ENDBRANCH   7   8
ENDBRANCH   3   6
BRANCH   1  14
HETATM   14  C5  UNL     1      23.872   2.398  51.465  1.00  0.00    -0.051 A 
HETATM   15  C4  UNL     1      23.359   2.430  50.223  1.00  0.00     0.005 A 
HETATM   16  C3  UNL     1      24.260   3.025  49.263  1.00  0.00     0.003 A 
HETATM   17  C2  UNL     1      25.334   3.359  49.932  1.00  0.00    -0.080 A 
HETATM   18  C1  UNL     1      26.539   4.016  49.314  1.00  0.00     0.043 C 
HETATM   19  C21 UNL     1      25.209   3.009  51.389  1.00  0.00     0.070 A 
ENDBRANCH   1  14
BRANCH   5  20
HETATM   20  C17 UNL     1      25.025  -0.006  53.226  1.00  0.00     0.190 A 
HETATM   21  N3  UNL     1      25.674  -0.885  52.924  1.00  0.00    -0.228 NA
HETATM   22  C18 UNL     1      26.912  -1.207  53.162  1.00  0.00     0.040 A 
HETATM   23  C19 UNL     1      27.624  -2.443  52.669  1.00  0.00     0.071 C 
HETATM   24  C20 UNL     1      27.555  -0.267  53.949  1.00  0.00     0.080 A 
HETATM   25  S1  UNL     1      26.312   0.972  54.259  1.00  0.00    -0.060 SA
ENDBRANCH   5  20
TORSDOF 5
ENDMDL
MODEL 9
REMARK VINA RESULT:      -7.5      2.079      4.476
REMARK  5 active torsions:
REMARK  status: ('A' for Active; 'I' for Inactive)
REMARK    1  A    between atoms: C5_5  and  C6_6 
REMARK    2  A    between atoms: C8_8  and  C9_9 
REMARK    3  A    between atoms: C10_10  and  C11_11 
REMARK    4  A    between atoms: C12_12  and  C14_14 
REMARK    5  A    between atoms: N2_18  and  C17_19 
ROOT
HETATM    1  C6  UNL     1      24.953   1.411  51.146  1.00  0.00     0.147 C 
HETATM    2  C7  UNL     1      24.643   2.875  50.902  1.00  0.00     0.093 C 
HETATM    3  C8  UNL     1      25.941   3.333  50.337  1.00  0.00     0.057 C 
HETATM    4  N1  UNL     1      26.837   2.527  50.742  1.00  0.00    -0.174 NA
HETATM    5  N2  UNL     1      26.336   1.503  51.560  1.00  0.00    -0.237 N 
ENDROOT
BRANCH   3   6
HETATM    6  C9  UNL     1      26.138   4.490  49.473  1.00  0.00     0.029 C 
HETATM    7  C10 UNL     1      25.583   5.650  49.790  1.00  0.00     0.003 C 
BRANCH   7   8
HETATM    8  C11 UNL     1      25.773   6.814  48.934  1.00  0.00     0.007 C 
HETATM    9  C12 UNL     1      24.913   7.275  48.053  1.00  0.00    -0.056 C 
HETATM   10  C13 UNL     1      25.193   8.476  47.217  1.00  0.00     0.049 C 
BRANCH   9  11
HETATM   11  C14 UNL     1      23.606   6.618  47.842  1.00  0.00    -0.052 A 
HETATM   12  C15 UNL     1      22.244   6.734  47.957  1.00  0.00    -0.014 A 
HETATM   13  C16 UNL     1      22.772   5.482  47.407  1.00  0.00     0.066 A 
ENDBRANCH   9  11
ENDBRANCH   7   8
ENDBRANCH   3   6
BRANCH   1  14
HETATM   14  C5  UNL     1      24.034   0.916  52.182  1.00  0.00    -0.051 A 
HETATM   15  C4  UNL     1      22.903   1.562  52.512  1.00  0.00     0.005 A 
HETATM   16  C3  UNL     1      22.161   0.890  53.554  1.00  0.00     0.003 A 
HETATM   17  C2  UNL     1      22.853  -0.178  53.860  1.00  0.00    -0.080 A 
HETATM   18  C1  UNL     1      22.440  -1.173  54.911  1.00  0.00     0.043 C 
HETATM   19  C21 UNL     1      24.102  -0.285  53.029  1.00  0.00     0.070 A 
ENDBRANCH   1  14
BRANCH   5  20
HETATM   20  C17 UNL     1      27.210   0.834  52.530  1.00  0.00     0.190 A 
HETATM   21  N3  UNL     1      28.014   0.052  52.693  1.00  0.00    -0.228 NA
HETATM   22  C18 UNL     1      28.652  -0.368  53.747  1.00  0.00     0.040 A 
HETATM   23  C19 UNL     1      29.712  -1.442  53.779  1.00  0.00     0.071 C 
HETATM   24  C20 UNL     1      28.253   0.290  54.897  1.00  0.00     0.080 A 
HETATM   25  S1  UNL     1      27.008   1.437  54.339  1.00  0.00    -0.060 SA
ENDBRANCH   5  20
TORSDOF 5
ENDMDL
