MODEL 1
REMARK VINA RESULT:      -8.6      0.000      0.000
REMARK  9 active torsions:
REMARK  status: ('A' for Active; 'I' for Inactive)
REMARK    1  A    between atoms: C2_2  and  N1_3 
REMARK    2  A    between atoms: C2_2  and  N5_24 
REMARK    3  A    between atoms: N1_3  and  C3_4 
REMARK    4  A    between atoms: C3_4  and  C5_6 
REMARK    5  A    between atoms: C6_7  and  C7_8 
REMARK    6  A    between atoms: C7_8  and  N2_9 
REMARK    7  A    between atoms: N2_9  and  C8_10 
REMARK    8  A    between atoms: C12_16  and  O1_17 
REMARK    9  A    between atoms: C14_19  and  O2_20 
ROOT
HETATM    1  C7  UNL     1      26.358   3.951  49.709  1.00  0.00     0.148 C 
ENDROOT
BRANCH   1   2
HETATM    2  C6  UNL     1      27.520   4.533  48.945  1.00  0.00    -0.009 C 
HETATM    3  C5  UNL     1      27.618   5.812  48.574  1.00  0.00    -0.005 C 
BRANCH   3   4
HETATM    4  C3  UNL     1      28.726   6.450  47.824  1.00  0.00     0.101 C 
HETATM    5  C4  UNL     1      28.235   7.744  47.205  1.00  0.00     0.036 C 
BRANCH   4   6
HETATM    6  N1  UNL     1      29.835   6.734  48.744  1.00  0.00    -0.372 N 
HETATM    7  H3  UNL     1      29.646   6.946  49.761  1.00  0.00     0.161 HD
BRANCH   6   8
HETATM    8  C2  UNL     1      31.197   6.733  48.331  1.00  0.00     0.084 C 
HETATM    9  C1  UNL     1      31.748   7.729  48.995  1.00  0.00     0.084 C 
BRANCH   8  10
HETATM   10  N5  UNL     1      31.819   5.836  47.383  1.00  0.00    -0.321 N 
HETATM   11  C18 UNL     1      32.260   6.466  46.187  1.00  0.00     0.097 A 
HETATM   12  C19 UNL     1      32.824   5.643  45.330  1.00  0.00     0.033 A 
HETATM   13  C20 UNL     1      33.067   4.188  45.418  1.00  0.00     0.240 A 
HETATM   14  F1  UNL     1      34.374   3.852  45.192  1.00  0.00    -0.239 F 
HETATM   15  C21 UNL     1      32.547   3.699  46.723  1.00  0.00     0.065 A 
HETATM   16 CL1  UNL     1      32.751   1.979  47.004  1.00  0.00    -0.084 Cl
HETATM   17  C22 UNL     1      31.967   4.447  47.645  1.00  0.00     0.120 A 
ENDBRANCH   8  10
ENDBRANCH   6   8
ENDBRANCH   4   6
ENDBRANCH   3   4
ENDBRANCH   1   2
BRANCH   1  18
HETATM   18  N2  UNL     1      26.721   3.203  50.843  1.00  0.00    -0.371 N 
HETATM   19  H12 UNL     1      27.635   3.743  50.776  1.00  0.00     0.161 HD
BRANCH  18  20
HETATM   20  C8  UNL     1      27.099   2.445  51.997  1.00  0.00     0.137 A 
HETATM   21  N3  UNL     1      28.254   2.427  52.677  1.00  0.00    -0.224 NA
HETATM   22  C9  UNL     1      28.462   1.682  53.763  1.00  0.00     0.235 A 
HETATM   23  N4  UNL     1      27.423   0.943  54.137  1.00  0.00    -0.241 NA
HETATM   24  C10 UNL     1      26.239   0.891  53.533  1.00  0.00     0.075 A 
HETATM   25  C11 UNL     1      25.224   0.087  54.066  1.00  0.00     0.072 A 
HETATM   26  C17 UNL     1      26.020   1.679  52.377  1.00  0.00     0.041 A 
HETATM   27  C12 UNL     1      23.971   0.010  53.521  1.00  0.00     0.103 A 
HETATM   28  C14 UNL     1      23.797   0.790  52.397  1.00  0.00     0.102 A 
HETATM   29  C16 UNL     1      24.759   1.589  51.839  1.00  0.00     0.057 A 
BRANCH  27  30
HETATM   30  O1  UNL     1      23.061  -0.701  53.991  1.00  0.00    -0.353 OA
HETATM   31  C13 UNL     1      22.408  -1.296  54.979  1.00  0.00     0.210 C 
ENDBRANCH  27  30
BRANCH  28  32
HETATM   32  O2  UNL     1      22.527   0.752  51.781  1.00  0.00    -0.353 OA
HETATM   33  C15 UNL     1      22.306   1.331  50.509  1.00  0.00     0.210 C 
ENDBRANCH  28  32
ENDBRANCH  18  20
ENDBRANCH   1  18
TORSDOF 9
ENDMDL
MODEL 2
REMARK VINA RESULT:      -8.1      2.630      3.246
REMARK  9 active torsions:
REMARK  status: ('A' for Active; 'I' for Inactive)
REMARK    1  A    between atoms: C2_2  and  N1_3 
REMARK    2  A    between atoms: C2_2  and  N5_24 
REMARK    3  A    between atoms: N1_3  and  C3_4 
REMARK    4  A    between atoms: C3_4  and  C5_6 
REMARK    5  A    between atoms: C6_7  and  C7_8 
REMARK    6  A    between atoms: C7_8  and  N2_9 
REMARK    7  A    between atoms: N2_9  and  C8_10 
REMARK    8  A    between atoms: C12_16  and  O1_17 
REMARK    9  A    between atoms: C14_19  and  O2_20 
ROOT
HETATM    1  C7  UNL     1      26.221   3.848  49.643  1.00  0.00     0.148 C 
ENDROOT
BRANCH   1   2
HETATM    2  C6  UNL     1      27.356   4.592  48.986  1.00  0.00    -0.009 C 
HETATM    3  C5  UNL     1      27.285   5.855  48.557  1.00  0.00    -0.005 C 
BRANCH   3   4
HETATM    4  C3  UNL     1      28.356   6.645  47.905  1.00  0.00     0.101 C 
HETATM    5  C4  UNL     1      27.734   7.783  47.119  1.00  0.00     0.036 C 
BRANCH   4   6
HETATM    6  N1  UNL     1      29.253   7.189  48.933  1.00  0.00    -0.372 N 
HETATM    7  H3  UNL     1      28.895   7.385  49.907  1.00  0.00     0.161 HD
BRANCH   6   8
HETATM    8  C2  UNL     1      30.627   7.470  48.686  1.00  0.00     0.084 C 
HETATM    9  C1  UNL     1      31.261   6.368  49.034  1.00  0.00     0.084 C 
BRANCH   8  10
HETATM   10  N5  UNL     1      31.185   8.702  48.176  1.00  0.00    -0.321 N 
HETATM   11  C18 UNL     1      30.693   9.874  48.814  1.00  0.00     0.097 A 
HETATM   12  C19 UNL     1      31.205  10.990  48.344  1.00  0.00     0.033 A 
HETATM   13  C20 UNL     1      32.199  11.210  47.272  1.00  0.00     0.240 A 
HETATM   14  F1  UNL     1      33.258  11.975  47.677  1.00  0.00    -0.239 F 
HETATM   15  C21 UNL     1      32.601   9.888  46.720  1.00  0.00     0.065 A 
HETATM   16 CL1  UNL     1      33.785   9.955  45.426  1.00  0.00    -0.084 Cl
HETATM   17  C22 UNL     1      32.143   8.717  47.126  1.00  0.00     0.120 A 
ENDBRANCH   8  10
ENDBRANCH   6   8
ENDBRANCH   4   6
ENDBRANCH   3   4
ENDBRANCH   1   2
BRANCH   1  18
HETATM   18  N2  UNL     1      26.589   3.106  50.779  1.00  0.00    -0.371 N 
HETATM   19  H12 UNL     1      26.779   2.328  50.079  1.00  0.00     0.161 HD
BRANCH  18  20
HETATM   20  C8  UNL     1      26.965   2.342  51.930  1.00  0.00     0.137 A 
HETATM   21  N3  UNL     1      28.118   2.320  52.612  1.00  0.00    -0.224 NA
HETATM   22  C9  UNL     1      28.323   1.569  53.695  1.00  0.00     0.235 A 
HETATM   23  N4  UNL     1      27.284   0.829  54.064  1.00  0.00    -0.241 NA
HETATM   24  C10 UNL     1      26.101   0.781  53.456  1.00  0.00     0.075 A 
HETATM   25  C11 UNL     1      25.084  -0.025  53.983  1.00  0.00     0.072 A 
HETATM   26  C17 UNL     1      25.884   1.575  52.304  1.00  0.00     0.041 A 
HETATM   27  C12 UNL     1      23.832  -0.099  53.435  1.00  0.00     0.103 A 
HETATM   28  C14 UNL     1      23.661   0.686  52.315  1.00  0.00     0.102 A 
HETATM   29  C16 UNL     1      24.625   1.488  51.763  1.00  0.00     0.057 A 
BRANCH  27  30
HETATM   30  O1  UNL     1      22.921  -0.812  53.900  1.00  0.00    -0.353 OA
HETATM   31  C13 UNL     1      22.128  -1.244  54.870  1.00  0.00     0.210 C 
ENDBRANCH  27  30
BRANCH  28  32
HETATM   32  O2  UNL     1      22.392   0.653  51.696  1.00  0.00    -0.353 OA
HETATM   33  C15 UNL     1      21.979   1.669  50.803  1.00  0.00     0.210 C 
ENDBRANCH  28  32
ENDBRANCH  18  20
ENDBRANCH   1  18
TORSDOF 9
ENDMDL
MODEL 3
REMARK VINA RESULT:      -8.1      2.152      2.627
REMARK  9 active torsions:
REMARK  status: ('A' for Active; 'I' for Inactive)
REMARK    1  A    between atoms: C2_2  and  N1_3 
REMARK    2  A    between atoms: C2_2  and  N5_24 
REMARK    3  A    between atoms: N1_3  and  C3_4 
REMARK    4  A    between atoms: C3_4  and  C5_6 
REMARK    5  A    between atoms: C6_7  and  C7_8 
REMARK    6  A    between atoms: C7_8  and  N2_9 
REMARK    7  A    between atoms: N2_9  and  C8_10 
REMARK    8  A    between atoms: C12_16  and  O1_17 
REMARK    9  A    between atoms: C14_19  and  O2_20 
ROOT
HETATM    1  C7  UNL     1      26.155   4.151  49.894  1.00  0.00     0.148 C 
ENDROOT
BRANCH   1   2
HETATM    2  C6  UNL     1      27.253   4.604  48.965  1.00  0.00    -0.009 C 
HETATM    3  C5  UNL     1      27.516   5.880  48.670  1.00  0.00    -0.005 C 
BRANCH   3   4
HETATM    4  C3  UNL     1      28.574   6.395  47.768  1.00  0.00     0.101 C 
HETATM    5  C4  UNL     1      28.121   7.709  47.161  1.00  0.00     0.036 C 
BRANCH   4   6
HETATM    6  N1  UNL     1      29.806   6.607  48.538  1.00  0.00    -0.372 N 
HETATM    7  H3  UNL     1      29.772   7.060  49.492  1.00  0.00     0.161 HD
BRANCH   6   8
HETATM    8  C2  UNL     1      31.090   6.219  48.059  1.00  0.00     0.084 C 
HETATM    9  C1  UNL     1      30.936   4.970  47.668  1.00  0.00     0.084 C 
BRANCH   8  10
HETATM   10  N5  UNL     1      32.288   7.028  48.027  1.00  0.00    -0.321 N 
HETATM   11  C18 UNL     1      33.462   6.346  48.450  1.00  0.00     0.097 A 
HETATM   12  C19 UNL     1      34.548   7.088  48.419  1.00  0.00     0.033 A 
HETATM   13  C20 UNL     1      34.732   8.498  48.018  1.00  0.00     0.240 A 
HETATM   14  F1  UNL     1      35.706   8.659  47.071  1.00  0.00    -0.239 F 
HETATM   15  C21 UNL     1      33.413   9.050  47.608  1.00  0.00     0.065 A 
HETATM   16 CL1  UNL     1      33.438  10.728  47.095  1.00  0.00    -0.084 Cl
HETATM   17  C22 UNL     1      32.271   8.385  47.606  1.00  0.00     0.120 A 
ENDBRANCH   8  10
ENDBRANCH   6   8
ENDBRANCH   4   6
ENDBRANCH   3   4
ENDBRANCH   1   2
BRANCH   1  18
HETATM   18  N2  UNL     1      26.583   3.311  50.937  1.00  0.00    -0.371 N 
HETATM   19  H12 UNL     1      25.819   3.794  51.498  1.00  0.00     0.161 HD
BRANCH  18  20
HETATM   20  C8  UNL     1      27.012   2.460  52.006  1.00  0.00     0.137 A 
HETATM   21  N3  UNL     1      28.195   2.391  52.632  1.00  0.00    -0.224 NA
HETATM   22  C9  UNL     1      28.450   1.557  53.642  1.00  0.00     0.235 A 
HETATM   23  N4  UNL     1      27.429   0.784  53.996  1.00  0.00    -0.241 NA
HETATM   24  C10 UNL     1      26.221   0.778  53.440  1.00  0.00     0.075 A 
HETATM   25  C11 UNL     1      25.230  -0.074  53.946  1.00  0.00     0.072 A 
HETATM   26  C17 UNL     1      25.951   1.660  52.365  1.00  0.00     0.041 A 
HETATM   27  C12 UNL     1      23.955  -0.111  53.450  1.00  0.00     0.103 A 
HETATM   28  C14 UNL     1      23.732   0.760  52.405  1.00  0.00     0.102 A 
HETATM   29  C16 UNL     1      24.668   1.609  51.876  1.00  0.00     0.057 A 
BRANCH  27  30
HETATM   30  O1  UNL     1      23.067  -0.864  53.897  1.00  0.00    -0.353 OA
HETATM   31  C13 UNL     1      22.107  -1.194  54.748  1.00  0.00     0.210 C 
ENDBRANCH  27  30
BRANCH  28  32
HETATM   32  O2  UNL     1      22.437   0.768  51.842  1.00  0.00    -0.353 OA
HETATM   33  C15 UNL     1      22.075   1.694  50.836  1.00  0.00     0.210 C 
ENDBRANCH  28  32
ENDBRANCH  18  20
ENDBRANCH   1  18
TORSDOF 9
ENDMDL
MODEL 4
REMARK VINA RESULT:      -8.1      2.024      3.125
REMARK  9 active torsions:
REMARK  status: ('A' for Active; 'I' for Inactive)
REMARK    1  A    between atoms: C2_2  and  N1_3 
REMARK    2  A    between atoms: C2_2  and  N5_24 
REMARK    3  A    between atoms: N1_3  and  C3_4 
REMARK    4  A    between atoms: C3_4  and  C5_6 
REMARK    5  A    between atoms: C6_7  and  C7_8 
REMARK    6  A    between atoms: C7_8  and  N2_9 
REMARK    7  A    between atoms: N2_9  and  C8_10 
REMARK    8  A    between atoms: C12_16  and  O1_17 
REMARK    9  A    between atoms: C14_19  and  O2_20 
ROOT
HETATM    1  C7  UNL     1      26.283   3.313  49.504  1.00  0.00     0.148 C 
ENDROOT
BRANCH   1   2
HETATM    2  C6  UNL     1      26.850   4.634  49.048  1.00  0.00    -0.009 C 
HETATM    3  C5  UNL     1      28.091   4.805  48.585  1.00  0.00    -0.005 C 
BRANCH   3   4
HETATM    4  C3  UNL     1      28.712   6.070  48.123  1.00  0.00     0.101 C 
HETATM    5  C4  UNL     1      27.667   7.168  48.110  1.00  0.00     0.036 C 
BRANCH   4   6
HETATM    6  N1  UNL     1      29.801   6.437  49.037  1.00  0.00    -0.372 N 
HETATM    7  H3  UNL     1      29.630   6.498  50.078  1.00  0.00     0.161 HD
BRANCH   6   8
HETATM    8  C2  UNL     1      31.122   6.720  48.588  1.00  0.00     0.084 C 
HETATM    9  C1  UNL     1      31.177   8.035  48.520  1.00  0.00     0.084 C 
BRANCH   8  10
HETATM   10  N5  UNL     1      32.157   5.762  48.270  1.00  0.00    -0.321 N 
HETATM   11  C18 UNL     1      33.476   6.214  48.549  1.00  0.00     0.097 A 
HETATM   12  C19 UNL     1      34.412   5.338  48.256  1.00  0.00     0.033 A 
HETATM   13  C20 UNL     1      34.304   3.976  47.692  1.00  0.00     0.240 A 
HETATM   14  F1  UNL     1      34.948   3.034  48.447  1.00  0.00    -0.239 F 
HETATM   15  C21 UNL     1      32.867   3.669  47.464  1.00  0.00     0.065 A 
HETATM   16 CL1  UNL     1      32.546   2.080  46.792  1.00  0.00    -0.084 Cl
HETATM   17  C22 UNL     1      31.859   4.483  47.726  1.00  0.00     0.120 A 
ENDBRANCH   8  10
ENDBRANCH   6   8
ENDBRANCH   4   6
ENDBRANCH   3   4
ENDBRANCH   1   2
BRANCH   1  18
HETATM   18  N2  UNL     1      24.959   3.377  49.973  1.00  0.00    -0.371 N 
HETATM   19  H12 UNL     1      24.703   3.145  48.967  1.00  0.00     0.161 HD
BRANCH  18  20
HETATM   20  C8  UNL     1      23.608   3.441  50.442  1.00  0.00     0.137 A 
HETATM   21  N3  UNL     1      22.609   4.260  50.086  1.00  0.00    -0.224 NA
HETATM   22  C9  UNL     1      21.377   4.189  50.593  1.00  0.00     0.235 A 
HETATM   23  N4  UNL     1      21.201   3.228  51.493  1.00  0.00    -0.241 NA
HETATM   24  C10 UNL     1      22.125   2.367  51.912  1.00  0.00     0.075 A 
HETATM   25  C11 UNL     1      21.781   1.381  52.846  1.00  0.00     0.072 A 
HETATM   26  C17 UNL     1      23.434   2.445  51.376  1.00  0.00     0.041 A 
HETATM   27  C12 UNL     1      22.666   0.439  53.296  1.00  0.00     0.103 A 
HETATM   28  C14 UNL     1      23.928   0.549  52.753  1.00  0.00     0.102 A 
HETATM   29  C16 UNL     1      24.312   1.495  51.840  1.00  0.00     0.057 A 
BRANCH  27  30
HETATM   30  O1  UNL     1      22.366  -0.443  54.124  1.00  0.00    -0.353 OA
HETATM   31  C13 UNL     1      21.873  -1.620  54.481  1.00  0.00     0.210 C 
ENDBRANCH  27  30
BRANCH  28  32
HETATM   32  O2  UNL     1      24.893  -0.389  53.180  1.00  0.00    -0.353 OA
HETATM   33  C15 UNL     1      26.252  -0.276  52.801  1.00  0.00     0.210 C 
ENDBRANCH  28  32
ENDBRANCH  18  20
ENDBRANCH   1  18
TORSDOF 9
ENDMDL
MODEL 5
REMARK VINA RESULT:      -8.0      4.578      9.626
REMARK  9 active torsions:
REMARK  status: ('A' for Active; 'I' for Inactive)
REMARK    1  A    between atoms: C2_2  and  N1_3 
REMARK    2  A    between atoms: C2_2  and  N5_24 
REMARK    3  A    between atoms: N1_3  and  C3_4 
REMARK    4  A    between atoms: C3_4  and  C5_6 
REMARK    5  A    between atoms: C6_7  and  C7_8 
REMARK    6  A    between atoms: C7_8  and  N2_9 
REMARK    7  A    between atoms: N2_9  and  C8_10 
REMARK    8  A    between atoms: C12_16  and  O1_17 
REMARK    9  A    between atoms: C14_19  and  O2_20 
ROOT
HETATM    1  C7  UNL     1      27.780   4.897  48.599  1.00  0.00     0.148 C 
ENDROOT
BRANCH   1   2
HETATM    2  C6  UNL     1      26.397   4.795  49.191  1.00  0.00    -0.009 C 
HETATM    3  C5  UNL     1      25.821   3.653  49.573  1.00  0.00    -0.005 C 
BRANCH   3   4
HETATM    4  C3  UNL     1      24.470   3.479  50.159  1.00  0.00     0.101 C 
HETATM    5  C4  UNL     1      23.448   3.374  49.044  1.00  0.00     0.036 C 
BRANCH   4   6
HETATM    6  N1  UNL     1      24.446   2.252  50.967  1.00  0.00    -0.372 N 
HETATM    7  H3  UNL     1      23.954   1.387  50.613  1.00  0.00     0.161 HD
BRANCH   6   8
HETATM    8  C2  UNL     1      25.074   2.156  52.240  1.00  0.00     0.084 C 
HETATM    9  C1  UNL     1      24.390   2.975  53.013  1.00  0.00     0.084 C 
BRANCH   8  10
HETATM   10  N5  UNL     1      26.218   1.342  52.588  1.00  0.00    -0.321 N 
HETATM   11  C18 UNL     1      27.323   2.078  53.098  1.00  0.00     0.097 A 
HETATM   12  C19 UNL     1      28.359   1.330  53.410  1.00  0.00     0.033 A 
HETATM   13  C20 UNL     1      28.548  -0.132  53.316  1.00  0.00     0.240 A 
HETATM   14  F1  UNL     1      28.950  -0.695  54.496  1.00  0.00    -0.239 F 
HETATM   15  C21 UNL     1      27.304  -0.736  52.768  1.00  0.00     0.065 A 
HETATM   16 CL1  UNL     1      27.345  -2.481  52.584  1.00  0.00    -0.084 Cl
HETATM   17  C22 UNL     1      26.215  -0.069  52.425  1.00  0.00     0.120 A 
ENDBRANCH   8  10
ENDBRANCH   6   8
ENDBRANCH   4   6
ENDBRANCH   3   4
ENDBRANCH   1   2
BRANCH   1  18
HETATM   18  N2  UNL     1      28.353   6.180  48.671  1.00  0.00    -0.371 N 
HETATM   19  H12 UNL     1      28.731   5.843  49.606  1.00  0.00     0.161 HD
BRANCH  18  20
HETATM   20  C8  UNL     1      28.939   7.483  48.754  1.00  0.00     0.137 A 
HETATM   21  N3  UNL     1      28.361   8.680  48.926  1.00  0.00    -0.224 NA
HETATM   22  C9  UNL     1      29.040   9.824  49.012  1.00  0.00     0.235 A 
HETATM   23  N4  UNL     1      30.359   9.697  48.916  1.00  0.00    -0.241 NA
HETATM   24  C10 UNL     1      31.026   8.558  48.745  1.00  0.00     0.075 A 
HETATM   25  C11 UNL     1      32.426   8.577  48.695  1.00  0.00     0.072 A 
HETATM   26  C17 UNL     1      30.304   7.343  48.650  1.00  0.00     0.041 A 
HETATM   27  C12 UNL     1      33.181   7.444  48.557  1.00  0.00     0.103 A 
HETATM   28  C14 UNL     1      32.443   6.283  48.467  1.00  0.00     0.102 A 
HETATM   29  C16 UNL     1      31.076   6.215  48.508  1.00  0.00     0.057 A 
BRANCH  27  30
HETATM   30  O1  UNL     1      34.427   7.452  48.516  1.00  0.00    -0.353 OA
HETATM   31  C13 UNL     1      35.607   8.024  48.319  1.00  0.00     0.210 C 
ENDBRANCH  27  30
BRANCH  28  32
HETATM   32  O2  UNL     1      33.162   5.076  48.317  1.00  0.00    -0.353 OA
HETATM   33  C15 UNL     1      33.307   4.455  47.054  1.00  0.00     0.210 C 
ENDBRANCH  28  32
ENDBRANCH  18  20
ENDBRANCH   1  18
TORSDOF 9
ENDMDL
MODEL 6
REMARK VINA RESULT:      -7.9      3.438      5.570
REMARK  9 active torsions:
REMARK  status: ('A' for Active; 'I' for Inactive)
REMARK    1  A    between atoms: C2_2  and  N1_3 
REMARK    2  A    between atoms: C2_2  and  N5_24 
REMARK    3  A    between atoms: N1_3  and  C3_4 
REMARK    4  A    between atoms: C3_4  and  C5_6 
REMARK    5  A    between atoms: C6_7  and  C7_8 
REMARK    6  A    between atoms: C7_8  and  N2_9 
REMARK    7  A    between atoms: N2_9  and  C8_10 
REMARK    8  A    between atoms: C12_16  and  O1_17 
REMARK    9  A    between atoms: C14_19  and  O2_20 
ROOT
HETATM    1  C7  UNL     1      21.871   0.999  50.170  1.00  0.00     0.148 C 
ENDROOT
BRANCH   1   2
HETATM    2  C6  UNL     1      22.196   2.470  50.115  1.00  0.00    -0.009 C 
HETATM    3  C5  UNL     1      23.142   3.064  50.847  1.00  0.00    -0.005 C 
BRANCH   3   4
HETATM    4  C3  UNL     1      23.513   4.500  50.845  1.00  0.00     0.101 C 
HETATM    5  C4  UNL     1      23.444   5.040  52.260  1.00  0.00     0.036 C 
BRANCH   4   6
HETATM    6  N1  UNL     1      24.880   4.647  50.328  1.00  0.00    -0.372 N 
HETATM    7  H3  UNL     1      25.661   4.038  50.695  1.00  0.00     0.161 HD
BRANCH   6   8
HETATM    8  C2  UNL     1      25.224   5.591  49.320  1.00  0.00     0.084 C 
HETATM    9  C1  UNL     1      24.069   5.988  48.825  1.00  0.00     0.084 C 
BRANCH   8  10
HETATM   10  N5  UNL     1      26.554   6.004  48.931  1.00  0.00    -0.321 N 
HETATM   11  C18 UNL     1      27.446   4.927  48.670  1.00  0.00     0.097 A 
HETATM   12  C19 UNL     1      28.654   5.311  48.318  1.00  0.00     0.033 A 
HETATM   13  C20 UNL     1      29.217   6.667  48.154  1.00  0.00     0.240 A 
HETATM   14  F1  UNL     1      29.799   6.857  46.931  1.00  0.00    -0.239 F 
HETATM   15  C21 UNL     1      28.156   7.662  48.464  1.00  0.00     0.065 A 
HETATM   16 CL1  UNL     1      28.648   9.340  48.320  1.00  0.00    -0.084 Cl
HETATM   17  C22 UNL     1      26.918   7.374  48.825  1.00  0.00     0.120 A 
ENDBRANCH   8  10
ENDBRANCH   6   8
ENDBRANCH   4   6
ENDBRANCH   3   4
ENDBRANCH   1   2
BRANCH   1  18
HETATM   18  N2  UNL     1      22.003   0.420  51.445  1.00  0.00    -0.371 N 
HETATM   19  H12 UNL     1      21.550  -0.429  50.989  1.00  0.00     0.161 HD
BRANCH  18  20
HETATM   20  C8  UNL     1      22.131  -0.179  52.739  1.00  0.00     0.137 A 
HETATM   21  N3  UNL     1      21.205  -0.748  53.522  1.00  0.00    -0.224 NA
HETATM   22  C9  UNL     1      21.474  -1.296  54.708  1.00  0.00     0.235 A 
HETATM   23  N4  UNL     1      22.751  -1.240  55.070  1.00  0.00    -0.241 NA
HETATM   24  C10 UNL     1      23.742  -0.699  54.366  1.00  0.00     0.075 A 
HETATM   25  C11 UNL     1      25.051  -0.746  54.864  1.00  0.00     0.072 A 
HETATM   26  C17 UNL     1      23.456  -0.114  53.108  1.00  0.00     0.041 A 
HETATM   27  C12 UNL     1      26.125  -0.243  54.182  1.00  0.00     0.103 A 
HETATM   28  C14 UNL     1      25.806   0.318  52.964  1.00  0.00     0.102 A 
HETATM   29  C16 UNL     1      24.544   0.389  52.437  1.00  0.00     0.057 A 
BRANCH  27  30
HETATM   30  O1  UNL     1      27.293  -0.284  54.617  1.00  0.00    -0.353 OA
HETATM   31  C13 UNL     1      28.612  -0.299  54.482  1.00  0.00     0.210 C 
ENDBRANCH  27  30
BRANCH  28  32
HETATM   32  O2  UNL     1      26.870   0.862  52.211  1.00  0.00    -0.353 OA
HETATM   33  C15 UNL     1      26.891   2.228  51.842  1.00  0.00     0.210 C 
ENDBRANCH  28  32
ENDBRANCH  18  20
ENDBRANCH   1  18
TORSDOF 9
ENDMDL
MODEL 7
REMARK VINA RESULT:      -7.9      5.321      9.555
REMARK  9 active torsions:
REMARK  status: ('A' for Active; 'I' for Inactive)
REMARK    1  A    between atoms: C2_2  and  N1_3 
REMARK    2  A    between atoms: C2_2  and  N5_24 
REMARK    3  A    between atoms: N1_3  and  C3_4 
REMARK    4  A    between atoms: C3_4  and  C5_6 
REMARK    5  A    between atoms: C6_7  and  C7_8 
REMARK    6  A    between atoms: C7_8  and  N2_9 
REMARK    7  A    between atoms: N2_9  and  C8_10 
REMARK    8  A    between atoms: C12_16  and  O1_17 
REMARK    9  A    between atoms: C14_19  and  O2_20 
ROOT
HETATM    1  C7  UNL     1      22.199  -0.547  54.413  1.00  0.00     0.148 C 
ENDROOT
BRANCH   1   2
HETATM    2  C6  UNL     1      21.144  -0.572  53.337  1.00  0.00    -0.009 C 
HETATM    3  C5  UNL     1      19.838  -0.743  53.561  1.00  0.00    -0.005 C 
BRANCH   3   4
HETATM    4  C3  UNL     1      18.750  -0.778  52.555  1.00  0.00     0.101 C 
HETATM    5  C4  UNL     1      17.443  -1.127  53.241  1.00  0.00     0.036 C 
BRANCH   4   6
HETATM    6  N1  UNL     1      18.634   0.540  51.918  1.00  0.00    -0.372 N 
HETATM    7  H3  UNL     1      18.514   1.411  52.505  1.00  0.00     0.161 HD
BRANCH   6   8
HETATM    8  C2  UNL     1      18.684   0.721  50.507  1.00  0.00     0.084 C 
HETATM    9  C1  UNL     1      17.550   0.214  50.066  1.00  0.00     0.084 C 
BRANCH   8  10
HETATM   10  N5  UNL     1      19.755   1.320  49.743  1.00  0.00    -0.321 N 
HETATM   11  C18 UNL     1      21.041   0.780  50.020  1.00  0.00     0.097 A 
HETATM   12  C19 UNL     1      22.010   1.331  49.321  1.00  0.00     0.033 A 
HETATM   13  C20 UNL     1      21.967   2.406  48.308  1.00  0.00     0.240 A 
HETATM   14  F1  UNL     1      22.565   2.051  47.130  1.00  0.00    -0.239 F 
HETATM   15  C21 UNL     1      20.556   2.848  48.145  1.00  0.00     0.065 A 
HETATM   16 CL1  UNL     1      20.312   4.130  46.972  1.00  0.00    -0.084 Cl
HETATM   17  C22 UNL     1      19.519   2.357  48.801  1.00  0.00     0.120 A 
ENDBRANCH   8  10
ENDBRANCH   6   8
ENDBRANCH   4   6
ENDBRANCH   3   4
ENDBRANCH   1   2
BRANCH   1  18
HETATM   18  N2  UNL     1      23.520  -0.481  53.934  1.00  0.00    -0.371 N 
HETATM   19  H12 UNL     1      23.078  -0.709  52.994  1.00  0.00     0.161 HD
BRANCH  18  20
HETATM   20  C8  UNL     1      24.861  -0.417  53.438  1.00  0.00     0.137 A 
HETATM   21  N3  UNL     1      25.871  -1.288  53.567  1.00  0.00    -0.224 NA
HETATM   22  C9  UNL     1      27.076  -1.109  53.022  1.00  0.00     0.235 A 
HETATM   23  N4  UNL     1      27.210   0.013  52.325  1.00  0.00    -0.241 NA
HETATM   24  C10 UNL     1      26.271   0.937  52.138  1.00  0.00     0.075 A 
HETATM   25  C11 UNL     1      26.551   2.058  51.346  1.00  0.00     0.072 A 
HETATM   26  C17 UNL     1      24.993   0.750  52.719  1.00  0.00     0.041 A 
HETATM   27  C12 UNL     1      25.626   3.032  51.079  1.00  0.00     0.103 A 
HETATM   28  C14 UNL     1      24.396   2.814  51.663  1.00  0.00     0.102 A 
HETATM   29  C16 UNL     1      24.077   1.736  52.446  1.00  0.00     0.057 A 
BRANCH  27  30
HETATM   30  O1  UNL     1      25.866   4.030  50.373  1.00  0.00    -0.353 OA
HETATM   31  C13 UNL     1      26.347   4.637  49.297  1.00  0.00     0.210 C 
ENDBRANCH  27  30
BRANCH  28  32
HETATM   32  O2  UNL     1      23.397   3.785  51.433  1.00  0.00    -0.353 OA
HETATM   33  C15 UNL     1      23.078   4.762  52.405  1.00  0.00     0.210 C 
ENDBRANCH  28  32
ENDBRANCH  18  20
ENDBRANCH   1  18
TORSDOF 9
ENDMDL
MODEL 8
REMARK VINA RESULT:      -7.7      4.143      8.696
REMARK  9 active torsions:
REMARK  status: ('A' for Active; 'I' for Inactive)
REMARK    1  A    between atoms: C2_2  and  N1_3 
REMARK    2  A    between atoms: C2_2  and  N5_24 
REMARK    3  A    between atoms: N1_3  and  C3_4 
REMARK    4  A    between atoms: C3_4  and  C5_6 
REMARK    5  A    between atoms: C6_7  and  C7_8 
REMARK    6  A    between atoms: C7_8  and  N2_9 
REMARK    7  A    between atoms: N2_9  and  C8_10 
REMARK    8  A    between atoms: C12_16  and  O1_17 
REMARK    9  A    between atoms: C14_19  and  O2_20 
ROOT
HETATM    1  C7  UNL     1      22.305   4.969  52.217  1.00  0.00     0.148 C 
ENDROOT
BRANCH   1   2
HETATM    2  C6  UNL     1      22.649   3.547  51.852  1.00  0.00    -0.009 C 
HETATM    3  C5  UNL     1      22.070   2.467  52.383  1.00  0.00    -0.005 C 
BRANCH   3   4
HETATM    4  C3  UNL     1      22.358   1.047  52.074  1.00  0.00     0.101 C 
HETATM    5  C4  UNL     1      21.677   0.667  50.773  1.00  0.00     0.036 C 
BRANCH   4   6
HETATM    6  N1  UNL     1      23.809   0.864  51.941  1.00  0.00    -0.372 N 
HETATM    7  H3  UNL     1      24.312   1.176  51.065  1.00  0.00     0.161 HD
BRANCH   6   8
HETATM    8  C2  UNL     1      24.608   0.276  52.962  1.00  0.00     0.084 C 
HETATM    9  C1  UNL     1      23.784  -0.519  53.614  1.00  0.00     0.084 C 
BRANCH   8  10
HETATM   10  N5  UNL     1      26.010   0.519  53.220  1.00  0.00    -0.321 N 
HETATM   11  C18 UNL     1      26.318   1.869  53.546  1.00  0.00     0.097 A 
HETATM   12  C19 UNL     1      27.595   2.081  53.777  1.00  0.00     0.033 A 
HETATM   13  C20 UNL     1      28.740   1.148  53.752  1.00  0.00     0.240 A 
HETATM   14  F1  UNL     1      29.472   1.171  54.908  1.00  0.00    -0.239 F 
HETATM   15  C21 UNL     1      28.240  -0.207  53.397  1.00  0.00     0.065 A 
HETATM   16 CL1  UNL     1      29.471  -1.455  53.319  1.00  0.00    -0.084 Cl
HETATM   17  C22 UNL     1      26.980  -0.517  53.147  1.00  0.00     0.120 A 
ENDBRANCH   8  10
ENDBRANCH   6   8
ENDBRANCH   4   6
ENDBRANCH   3   4
ENDBRANCH   1   2
BRANCH   1  18
HETATM   18  N2  UNL     1      22.740   5.931  51.289  1.00  0.00    -0.371 N 
HETATM   19  H12 UNL     1      21.959   6.526  51.699  1.00  0.00     0.161 HD
BRANCH  18  20
HETATM   20  C8  UNL     1      23.175   6.918  50.347  1.00  0.00     0.137 A 
HETATM   21  N3  UNL     1      22.605   8.074  49.983  1.00  0.00    -0.224 NA
HETATM   22  C9  UNL     1      23.141   8.919  49.101  1.00  0.00     0.235 A 
HETATM   23  N4  UNL     1      24.307   8.530  48.597  1.00  0.00    -0.241 NA
HETATM   24  C10 UNL     1      24.953   7.405  48.893  1.00  0.00     0.075 A 
HETATM   25  C11 UNL     1      26.197   7.146  48.304  1.00  0.00     0.072 A 
HETATM   26  C17 UNL     1      24.382   6.507  49.827  1.00  0.00     0.041 A 
HETATM   27  C12 UNL     1      26.937   6.029  48.586  1.00  0.00     0.103 A 
HETATM   28  C14 UNL     1      26.347   5.179  49.497  1.00  0.00     0.102 A 
HETATM   29  C16 UNL     1      25.134   5.389  50.097  1.00  0.00     0.057 A 
BRANCH  27  30
HETATM   30  O1  UNL     1      28.046   5.793  48.069  1.00  0.00    -0.353 OA
HETATM   31  C13 UNL     1      29.356   5.596  48.104  1.00  0.00     0.210 C 
ENDBRANCH  27  30
BRANCH  28  32
HETATM   32  O2  UNL     1      27.056   4.003  49.828  1.00  0.00    -0.353 OA
HETATM   33  C15 UNL     1      26.387   2.842  50.281  1.00  0.00     0.210 C 
ENDBRANCH  28  32
ENDBRANCH  18  20
ENDBRANCH   1  18
TORSDOF 9
ENDMDL
MODEL 9
REMARK VINA RESULT:      -7.6      3.579      4.914
REMARK  9 active torsions:
REMARK  status: ('A' for Active; 'I' for Inactive)
REMARK    1  A    between atoms: C2_2  and  N1_3 
REMARK    2  A    between atoms: C2_2  and  N5_24 
REMARK    3  A    between atoms: N1_3  and  C3_4 
REMARK    4  A    between atoms: C3_4  and  C5_6 
REMARK    5  A    between atoms: C6_7  and  C7_8 
REMARK    6  A    between atoms: C7_8  and  N2_9 
REMARK    7  A    between atoms: N2_9  and  C8_10 
REMARK    8  A    between atoms: C12_16  and  O1_17 
REMARK    9  A    between atoms: C14_19  and  O2_20 
ROOT
HETATM    1  C7  UNL     1      26.570   3.101  49.726  1.00  0.00     0.148 C 
ENDROOT
BRANCH   1   2
HETATM    2  C6  UNL     1      27.100   4.360  49.088  1.00  0.00    -0.009 C 
HETATM    3  C5  UNL     1      26.395   5.483  48.932  1.00  0.00    -0.005 C 
BRANCH   3   4
HETATM    4  C3  UNL     1      26.850   6.753  48.315  1.00  0.00     0.101 C 
HETATM    5  C4  UNL     1      25.734   7.776  48.389  1.00  0.00     0.036 C 
BRANCH   4   6
HETATM    6  N1  UNL     1      28.024   7.251  49.042  1.00  0.00    -0.372 N 
HETATM    7  H3  UNL     1      28.063   7.204  50.096  1.00  0.00     0.161 HD
BRANCH   6   8
HETATM    8  C2  UNL     1      29.157   7.809  48.384  1.00  0.00     0.084 C 
HETATM    9  C1  UNL     1      29.740   6.783  47.796  1.00  0.00     0.084 C 
BRANCH   8  10
HETATM   10  N5  UNL     1      29.568   9.195  48.382  1.00  0.00    -0.321 N 
HETATM   11  C18 UNL     1      28.593  10.093  48.897  1.00  0.00     0.097 A 
HETATM   12  C19 UNL     1      28.974  11.352  48.890  1.00  0.00     0.033 A 
HETATM   13  C20 UNL     1      30.240  11.966  48.440  1.00  0.00     0.240 A 
HETATM   14  F1  UNL     1      30.820  12.753  49.396  1.00  0.00    -0.239 F 
HETATM   15  C21 UNL     1      31.136  10.890  47.937  1.00  0.00     0.065 A 
HETATM   16 CL1  UNL     1      32.699  11.438  47.356  1.00  0.00    -0.084 Cl
HETATM   17  C22 UNL     1      30.843   9.602  47.903  1.00  0.00     0.120 A 
ENDBRANCH   8  10
ENDBRANCH   6   8
ENDBRANCH   4   6
ENDBRANCH   3   4
ENDBRANCH   1   2
BRANCH   1  18
HETATM   18  N2  UNL     1      25.213   3.158  50.092  1.00  0.00    -0.371 N 
HETATM   19  H12 UNL     1      25.054   2.636  49.179  1.00  0.00     0.161 HD
BRANCH  18  20
HETATM   20  C8  UNL     1      23.830   3.212  50.456  1.00  0.00     0.137 A 
HETATM   21  N3  UNL     1      22.848   4.002  50.000  1.00  0.00    -0.224 NA
HETATM   22  C9  UNL     1      21.583   3.924  50.416  1.00  0.00     0.235 A 
HETATM   23  N4  UNL     1      21.354   2.989  51.331  1.00  0.00    -0.241 NA
HETATM   24  C10 UNL     1      22.257   2.158  51.845  1.00  0.00     0.075 A 
HETATM   25  C11 UNL     1      21.859   1.196  52.783  1.00  0.00     0.072 A 
HETATM   26  C17 UNL     1      23.601   2.243  51.407  1.00  0.00     0.041 A 
HETATM   27  C12 UNL     1      22.722   0.285  53.328  1.00  0.00     0.103 A 
HETATM   28  C14 UNL     1      24.020   0.401  52.878  1.00  0.00     0.102 A 
HETATM   29  C16 UNL     1      24.457   1.325  51.966  1.00  0.00     0.057 A 
BRANCH  27  30
HETATM   30  O1  UNL     1      22.375  -0.576  54.160  1.00  0.00    -0.353 OA
HETATM   31  C13 UNL     1      21.632  -1.589  54.582  1.00  0.00     0.210 C 
ENDBRANCH  27  30
BRANCH  28  32
HETATM   32  O2  UNL     1      24.965  -0.506  53.406  1.00  0.00    -0.353 OA
HETATM   33  C15 UNL     1      26.205  -0.738  52.766  1.00  0.00     0.210 C 
ENDBRANCH  28  32
ENDBRANCH  18  20
ENDBRANCH   1  18
TORSDOF 9
ENDMDL
