MODEL 1
REMARK VINA RESULT:      -8.0      0.000      0.000
REMARK  4 active torsions:
REMARK  status: ('A' for Active; 'I' for Inactive)
REMARK    1  A    between atoms: C5_6  and  O1_7 
REMARK    2  A    between atoms: O1_7  and  C6_8 
REMARK    3  A    between atoms: C10_14  and  O2_15 
REMARK    4  A    between atoms: O2_15  and  C11_16 
ROOT
HETATM    1  C6  UNL     1      24.693  -0.176  54.070  1.00  0.00     0.186 A 
HETATM    2  N1  UNL     1      24.958  -1.025  55.074  1.00  0.00    -0.217 NA
HETATM    3  C7  UNL     1      24.030  -1.710  55.737  1.00  0.00     0.236 A 
HETATM    4  N2  UNL     1      22.740  -1.565  55.404  1.00  0.00    -0.241 NA
HETATM    5  C8  UNL     1      22.414  -0.732  54.412  1.00  0.00     0.075 A 
HETATM    6  C9  UNL     1      23.364  -0.006  53.706  1.00  0.00     0.081 A 
HETATM    7  C10 UNL     1      23.275   0.948  52.606  1.00  0.00     0.108 C 
HETATM    8  C12 UNL     1      22.310   1.682  52.064  1.00  0.00     0.172 C 
HETATM    9  O3  UNL     1      20.963   1.727  52.472  1.00  0.00    -0.357 OA
HETATM   10  C13 UNL     1      19.884   0.848  52.577  1.00  0.00     0.202 C 
HETATM   11  C14 UNL     1      20.068  -0.194  53.618  1.00  0.00     0.002 C 
HETATM   12  C15 UNL     1      20.941  -0.854  54.362  1.00  0.00     0.031 C 
ENDROOT
BRANCH   1  13
HETATM   13  O1  UNL     1      25.624   0.560  53.351  1.00  0.00    -0.291 OA
BRANCH  13  14
HETATM   14  C5  UNL     1      26.999   0.300  53.457  1.00  0.00     0.080 A 
HETATM   15  C4  UNL     1      27.676  -0.818  53.060  1.00  0.00     0.037 A 
HETATM   16  C3  UNL     1      29.038  -0.907  53.243  1.00  0.00     0.006 A 
HETATM   17  C2  UNL     1      29.779   0.116  53.827  1.00  0.00     0.042 A 
HETATM   18  C1  UNL     1      29.076   1.245  54.225  1.00  0.00     0.119 A 
HETATM   19  F1  UNL     1      29.814   2.226  54.791  1.00  0.00    -0.206 F 
HETATM   20  C16 UNL     1      27.698   1.346  54.046  1.00  0.00     0.079 A 
ENDBRANCH  13  14
ENDBRANCH   1  13
BRANCH   7  21
HETATM   21  O2  UNL     1      24.547   1.081  52.013  1.00  0.00    -0.338 OA
BRANCH  21  22
HETATM   22  C11 UNL     1      24.725   1.835  50.826  1.00  0.00     0.260 C 
HETATM   23 BR1  UNL     1      26.405   2.794  50.805  1.00  0.00    -0.067 Br
ENDBRANCH  21  22
ENDBRANCH   7  21
TORSDOF 4
ENDMDL
MODEL 2
REMARK VINA RESULT:      -7.7      1.528      1.863
REMARK  4 active torsions:
REMARK  status: ('A' for Active; 'I' for Inactive)
REMARK    1  A    between atoms: C5_6  and  O1_7 
REMARK    2  A    between atoms: O1_7  and  C6_8 
REMARK    3  A    between atoms: C10_14  and  O2_15 
REMARK    4  A    between atoms: O2_15  and  C11_16 
ROOT
HETATM    1  C6  UNL     1      24.250   0.980  53.038  1.00  0.00     0.186 A 
HETATM    2  N1  UNL     1      24.177  -0.214  53.643  1.00  0.00    -0.217 NA
HETATM    3  C7  UNL     1      23.038  -0.831  53.944  1.00  0.00     0.236 A 
HETATM    4  N2  UNL     1      21.871  -0.249  53.634  1.00  0.00    -0.241 NA
HETATM    5  C8  UNL     1      21.879   0.942  53.029  1.00  0.00     0.075 A 
HETATM    6  C9  UNL     1      23.055   1.606  52.706  1.00  0.00     0.081 A 
HETATM    7  C10 UNL     1      23.334   2.883  52.060  1.00  0.00     0.108 C 
HETATM    8  C12 UNL     1      22.639   3.986  51.802  1.00  0.00     0.172 C 
HETATM    9  O3  UNL     1      21.290   4.222  52.131  1.00  0.00    -0.357 OA
HETATM   10  C13 UNL     1      20.042   3.674  51.836  1.00  0.00     0.202 C 
HETATM   11  C14 UNL     1      19.844   2.314  52.397  1.00  0.00     0.002 C 
HETATM   12  C15 UNL     1      20.438   1.228  52.867  1.00  0.00     0.031 C 
ENDROOT
BRANCH   1  13
HETATM   13  O1  UNL     1      25.411   1.663  52.705  1.00  0.00    -0.291 OA
BRANCH  13  14
HETATM   14  C5  UNL     1      26.677   1.135  53.001  1.00  0.00     0.080 A 
HETATM   15  C4  UNL     1      27.139  -0.128  52.758  1.00  0.00     0.037 A 
HETATM   16  C3  UNL     1      28.421  -0.480  53.118  1.00  0.00     0.006 A 
HETATM   17  C2  UNL     1      29.293   0.413  53.733  1.00  0.00     0.042 A 
HETATM   18  C1  UNL     1      28.808   1.691  53.972  1.00  0.00     0.119 A 
HETATM   19  F1  UNL     1      29.671   2.544  54.571  1.00  0.00    -0.206 F 
HETATM   20  C16 UNL     1      27.514   2.060  53.613  1.00  0.00     0.079 A 
ENDBRANCH  13  14
ENDBRANCH   1  13
BRANCH   7  21
HETATM   21  O2  UNL     1      24.674   2.893  51.626  1.00  0.00    -0.338 OA
BRANCH  21  22
HETATM   22  C11 UNL     1      25.159   3.915  50.771  1.00  0.00     0.260 C 
HETATM   23 BR1  UNL     1      26.554   3.288  49.587  1.00  0.00    -0.067 Br
ENDBRANCH  21  22
ENDBRANCH   7  21
TORSDOF 4
ENDMDL
MODEL 3
REMARK VINA RESULT:      -7.6      2.961      4.552
REMARK  4 active torsions:
REMARK  status: ('A' for Active; 'I' for Inactive)
REMARK    1  A    between atoms: C5_6  and  O1_7 
REMARK    2  A    between atoms: O1_7  and  C6_8 
REMARK    3  A    between atoms: C10_14  and  O2_15 
REMARK    4  A    between atoms: O2_15  and  C11_16 
ROOT
HETATM    1  C6  UNL     1      25.326   1.442  51.947  1.00  0.00     0.186 A 
HETATM    2  N1  UNL     1      26.636   1.393  52.226  1.00  0.00    -0.217 NA
HETATM    3  C7  UNL     1      27.160   0.688  53.226  1.00  0.00     0.236 A 
HETATM    4  N2  UNL     1      26.354  -0.028  54.021  1.00  0.00    -0.241 NA
HETATM    5  C8  UNL     1      25.038  -0.018  53.793  1.00  0.00     0.075 A 
HETATM    6  C9  UNL     1      24.467   0.710  52.757  1.00  0.00     0.081 A 
HETATM    7  C10 UNL     1      23.093   0.887  52.301  1.00  0.00     0.108 C 
HETATM    8  C12 UNL     1      21.888   0.683  52.823  1.00  0.00     0.172 C 
HETATM    9  O3  UNL     1      21.607   0.183  54.109  1.00  0.00    -0.357 OA
HETATM   10  C13 UNL     1      21.838  -0.983  54.839  1.00  0.00     0.202 C 
HETATM   11  C14 UNL     1      23.269  -1.201  55.169  1.00  0.00     0.002 C 
HETATM   12  C15 UNL     1      24.521  -0.904  54.857  1.00  0.00     0.031 C 
ENDROOT
BRANCH   1  13
HETATM   13  O1  UNL     1      24.732   2.161  50.919  1.00  0.00    -0.291 OA
BRANCH  13  14
HETATM   14  C5  UNL     1      25.388   3.244  50.313  1.00  0.00     0.080 A 
HETATM   15  C4  UNL     1      26.506   3.216  49.526  1.00  0.00     0.037 A 
HETATM   16  C3  UNL     1      27.021   4.384  49.010  1.00  0.00     0.006 A 
HETATM   17  C2  UNL     1      26.441   5.625  49.255  1.00  0.00     0.042 A 
HETATM   18  C1  UNL     1      25.307   5.635  50.055  1.00  0.00     0.119 A 
HETATM   19  F1  UNL     1      24.760   6.852  50.282  1.00  0.00    -0.206 F 
HETATM   20  C16 UNL     1      24.777   4.461  50.584  1.00  0.00     0.079 A 
ENDBRANCH  13  14
ENDBRANCH   1  13
BRANCH   7  21
HETATM   21  O2  UNL     1      23.109   1.398  50.988  1.00  0.00    -0.338 OA
BRANCH  21  22
HETATM   22  C11 UNL     1      21.976   1.281  50.144  1.00  0.00     0.260 C 
HETATM   23 BR1  UNL     1      22.262   2.087  48.409  1.00  0.00    -0.067 Br
ENDBRANCH  21  22
ENDBRANCH   7  21
TORSDOF 4
ENDMDL
MODEL 4
REMARK VINA RESULT:      -7.5      1.852      2.481
REMARK  4 active torsions:
REMARK  status: ('A' for Active; 'I' for Inactive)
REMARK    1  A    between atoms: C5_6  and  O1_7 
REMARK    2  A    between atoms: O1_7  and  C6_8 
REMARK    3  A    between atoms: C10_14  and  O2_15 
REMARK    4  A    between atoms: O2_15  and  C11_16 
ROOT
HETATM    1  C6  UNL     1      22.869  -0.043  53.318  1.00  0.00     0.186 A 
HETATM    2  N1  UNL     1      23.274  -0.774  54.367  1.00  0.00    -0.217 NA
HETATM    3  C7  UNL     1      22.476  -1.564  55.081  1.00  0.00     0.236 A 
HETATM    4  N2  UNL     1      21.179  -1.656  54.756  1.00  0.00    -0.241 NA
HETATM    5  C8  UNL     1      20.716  -0.952  53.720  1.00  0.00     0.075 A 
HETATM    6  C9  UNL     1      21.529  -0.121  52.961  1.00  0.00     0.081 A 
HETATM    7  C10 UNL     1      21.279   0.736  51.807  1.00  0.00     0.108 C 
HETATM    8  C12 UNL     1      20.202   1.265  51.235  1.00  0.00     0.172 C 
HETATM    9  O3  UNL     1      18.868   1.107  51.656  1.00  0.00    -0.357 OA
HETATM   10  C13 UNL     1      17.952   0.069  51.826  1.00  0.00     0.202 C 
HETATM   11  C14 UNL     1      18.311  -0.863  52.924  1.00  0.00     0.002 C 
HETATM   12  C15 UNL     1      19.284  -1.321  53.696  1.00  0.00     0.031 C 
ENDROOT
BRANCH   1  13
HETATM   13  O1  UNL     1      23.661   0.794  52.545  1.00  0.00    -0.291 OA
BRANCH  13  14
HETATM   14  C5  UNL     1      25.003   1.038  52.876  1.00  0.00     0.080 A 
HETATM   15  C4  UNL     1      25.540   2.167  53.428  1.00  0.00     0.037 A 
HETATM   16  C3  UNL     1      26.890   2.237  53.689  1.00  0.00     0.006 A 
HETATM   17  C2  UNL     1      27.758   1.185  53.411  1.00  0.00     0.042 A 
HETATM   18  C1  UNL     1      27.196   0.046  52.851  1.00  0.00     0.119 A 
HETATM   19  F1  UNL     1      28.056  -0.965  52.589  1.00  0.00    -0.206 F 
HETATM   20  C16 UNL     1      25.832  -0.037  52.583  1.00  0.00     0.079 A 
ENDBRANCH  13  14
ENDBRANCH   1  13
BRANCH   7  21
HETATM   21  O2  UNL     1      22.508   1.045  51.192  1.00  0.00    -0.338 OA
BRANCH  21  22
HETATM   22  C11 UNL     1      22.554   1.692  49.932  1.00  0.00     0.260 C 
HETATM   23 BR1  UNL     1      23.857   3.121  49.882  1.00  0.00    -0.067 Br
ENDBRANCH  21  22
ENDBRANCH   7  21
TORSDOF 4
ENDMDL
MODEL 5
REMARK VINA RESULT:      -7.4      3.034      4.392
REMARK  4 active torsions:
REMARK  status: ('A' for Active; 'I' for Inactive)
REMARK    1  A    between atoms: C5_6  and  O1_7 
REMARK    2  A    between atoms: O1_7  and  C6_8 
REMARK    3  A    between atoms: C10_14  and  O2_15 
REMARK    4  A    between atoms: O2_15  and  C11_16 
ROOT
HETATM    1  C6  UNL     1      25.044   2.214  51.467  1.00  0.00     0.186 A 
HETATM    2  N1  UNL     1      26.079   2.988  51.111  1.00  0.00    -0.217 NA
HETATM    3  C7  UNL     1      26.075   3.802  50.059  1.00  0.00     0.236 A 
HETATM    4  N2  UNL     1      24.982   3.876  49.286  1.00  0.00    -0.241 NA
HETATM    5  C8  UNL     1      23.919   3.128  49.591  1.00  0.00     0.075 A 
HETATM    6  C9  UNL     1      23.899   2.271  50.683  1.00  0.00     0.081 A 
HETATM    7  C10 UNL     1      22.889   1.367  51.223  1.00  0.00     0.108 C 
HETATM    8  C12 UNL     1      21.773   0.811  50.765  1.00  0.00     0.172 C 
HETATM    9  O3  UNL     1      21.220   0.979  49.481  1.00  0.00    -0.357 OA
HETATM   10  C13 UNL     1      20.719   2.020  48.698  1.00  0.00     0.202 C 
HETATM   11  C14 UNL     1      21.754   2.997  48.279  1.00  0.00     0.002 C 
HETATM   12  C15 UNL     1      22.957   3.490  48.527  1.00  0.00     0.031 C 
ENDROOT
BRANCH   1  13
HETATM   13  O1  UNL     1      24.999   1.351  52.553  1.00  0.00    -0.291 OA
BRANCH  13  14
HETATM   14  C5  UNL     1      26.091   0.530  52.877  1.00  0.00     0.080 A 
HETATM   15  C4  UNL     1      26.435  -0.670  52.321  1.00  0.00     0.037 A 
HETATM   16  C3  UNL     1      27.549  -1.347  52.765  1.00  0.00     0.006 A 
HETATM   17  C2  UNL     1      28.365  -0.853  53.778  1.00  0.00     0.042 A 
HETATM   18  C1  UNL     1      28.002   0.367  54.331  1.00  0.00     0.119 A 
HETATM   19  F1  UNL     1      28.809   0.829  55.315  1.00  0.00    -0.206 F 
HETATM   20  C16 UNL     1      26.877   1.061  53.892  1.00  0.00     0.079 A 
ENDBRANCH  13  14
ENDBRANCH   1  13
BRANCH   7  21
HETATM   21  O2  UNL     1      23.231   1.040  52.550  1.00  0.00    -0.338 OA
BRANCH  21  22
HETATM   22  C11 UNL     1      22.244   0.625  53.480  1.00  0.00     0.260 C 
HETATM   23 BR1  UNL     1      22.756  -0.978  54.433  1.00  0.00    -0.067 Br
ENDBRANCH  21  22
ENDBRANCH   7  21
TORSDOF 4
ENDMDL
MODEL 6
REMARK VINA RESULT:      -7.3      3.011      6.256
REMARK  4 active torsions:
REMARK  status: ('A' for Active; 'I' for Inactive)
REMARK    1  A    between atoms: C5_6  and  O1_7 
REMARK    2  A    between atoms: O1_7  and  C6_8 
REMARK    3  A    between atoms: C10_14  and  O2_15 
REMARK    4  A    between atoms: O2_15  and  C11_16 
ROOT
HETATM    1  C6  UNL     1      23.947   0.237  53.414  1.00  0.00     0.186 A 
HETATM    2  N1  UNL     1      23.587  -0.761  54.233  1.00  0.00    -0.217 NA
HETATM    3  C7  UNL     1      24.396  -1.322  55.129  1.00  0.00     0.236 A 
HETATM    4  N2  UNL     1      25.656  -0.883  55.244  1.00  0.00    -0.241 NA
HETATM    5  C8  UNL     1      26.074   0.110  54.454  1.00  0.00     0.075 A 
HETATM    6  C9  UNL     1      25.249   0.710  53.512  1.00  0.00     0.081 A 
HETATM    7  C10 UNL     1      25.453   1.787  52.549  1.00  0.00     0.108 C 
HETATM    8  C12 UNL     1      26.508   2.389  52.011  1.00  0.00     0.172 C 
HETATM    9  O3  UNL     1      27.861   2.099  52.271  1.00  0.00    -0.357 OA
HETATM   10  C13 UNL     1      28.731   2.113  53.361  1.00  0.00     0.202 C 
HETATM   11  C14 UNL     1      28.411   1.090  54.388  1.00  0.00     0.002 C 
HETATM   12  C15 UNL     1      27.478   0.291  54.882  1.00  0.00     0.031 C 
ENDROOT
BRANCH   1  13
HETATM   13  O1  UNL     1      23.142   0.852  52.466  1.00  0.00    -0.291 OA
BRANCH  13  14
HETATM   14  C5  UNL     1      21.772   0.562  52.374  1.00  0.00     0.080 A 
HETATM   15  C4  UNL     1      20.942   0.102  53.358  1.00  0.00     0.037 A 
HETATM   16  C3  UNL     1      19.612  -0.132  53.092  1.00  0.00     0.006 A 
HETATM   17  C2  UNL     1      19.056   0.085  51.834  1.00  0.00     0.042 A 
HETATM   18  C1  UNL     1      19.912   0.552  50.847  1.00  0.00     0.119 A 
HETATM   19  F1  UNL     1      19.351   0.755  49.632  1.00  0.00    -0.206 F 
HETATM   20  C16 UNL     1      21.259   0.792  51.104  1.00  0.00     0.079 A 
ENDBRANCH  13  14
ENDBRANCH   1  13
BRANCH   7  21
HETATM   21  O2  UNL     1      24.197   2.263  52.124  1.00  0.00    -0.338 OA
BRANCH  21  22
HETATM   22  C11 UNL     1      24.055   3.562  51.572  1.00  0.00     0.260 C 
HETATM   23 BR1  UNL     1      22.482   4.475  52.229  1.00  0.00    -0.067 Br
ENDBRANCH  21  22
ENDBRANCH   7  21
TORSDOF 4
ENDMDL
MODEL 7
REMARK VINA RESULT:      -6.9      3.284      6.077
REMARK  4 active torsions:
REMARK  status: ('A' for Active; 'I' for Inactive)
REMARK    1  A    between atoms: C5_6  and  O1_7 
REMARK    2  A    between atoms: O1_7  and  C6_8 
REMARK    3  A    between atoms: C10_14  and  O2_15 
REMARK    4  A    between atoms: O2_15  and  C11_16 
ROOT
HETATM    1  C6  UNL     1      24.155   1.695  52.265  1.00  0.00     0.186 A 
HETATM    2  N1  UNL     1      25.040   0.736  52.571  1.00  0.00    -0.217 NA
HETATM    3  C7  UNL     1      26.280   0.683  52.091  1.00  0.00     0.236 A 
HETATM    4  N2  UNL     1      26.701   1.634  51.247  1.00  0.00    -0.241 NA
HETATM    5  C8  UNL     1      25.864   2.617  50.905  1.00  0.00     0.075 A 
HETATM    6  C9  UNL     1      24.566   2.694  51.391  1.00  0.00     0.081 A 
HETATM    7  C10 UNL     1      23.476   3.640  51.180  1.00  0.00     0.108 C 
HETATM    8  C12 UNL     1      23.195   4.576  50.280  1.00  0.00     0.172 C 
HETATM    9  O3  UNL     1      23.982   4.931  49.168  1.00  0.00    -0.357 OA
HETATM   10  C13 UNL     1      25.257   5.440  48.922  1.00  0.00     0.202 C 
HETATM   11  C14 UNL     1      26.349   4.498  49.276  1.00  0.00     0.002 C 
HETATM   12  C15 UNL     1      26.687   3.434  49.987  1.00  0.00     0.031 C 
ENDROOT
BRANCH   1  13
HETATM   13  O1  UNL     1      22.854   1.793  52.737  1.00  0.00    -0.291 OA
BRANCH  13  14
HETATM   14  C5  UNL     1      22.162   0.666  53.208  1.00  0.00     0.080 A 
HETATM   15  C4  UNL     1      20.924   0.223  52.835  1.00  0.00     0.037 A 
HETATM   16  C3  UNL     1      20.392  -0.912  53.405  1.00  0.00     0.006 A 
HETATM   17  C2  UNL     1      21.074  -1.651  54.368  1.00  0.00     0.042 A 
HETATM   18  C1  UNL     1      22.330  -1.187  54.735  1.00  0.00     0.119 A 
HETATM   19  F1  UNL     1      22.974  -1.919  55.672  1.00  0.00    -0.206 F 
HETATM   20  C16 UNL     1      22.878  -0.040  54.166  1.00  0.00     0.079 A 
ENDBRANCH  13  14
ENDBRANCH   1  13
BRANCH   7  21
HETATM   21  O2  UNL     1      22.523   3.475  52.205  1.00  0.00    -0.338 OA
BRANCH  21  22
HETATM   22  C11 UNL     1      21.420   4.358  52.327  1.00  0.00     0.260 C 
HETATM   23 BR1  UNL     1      19.782   3.595  51.638  1.00  0.00    -0.067 Br
ENDBRANCH  21  22
ENDBRANCH   7  21
TORSDOF 4
ENDMDL
MODEL 8
REMARK VINA RESULT:      -6.8      3.725      6.243
REMARK  4 active torsions:
REMARK  status: ('A' for Active; 'I' for Inactive)
REMARK    1  A    between atoms: C5_6  and  O1_7 
REMARK    2  A    between atoms: O1_7  and  C6_8 
REMARK    3  A    between atoms: C10_14  and  O2_15 
REMARK    4  A    between atoms: O2_15  and  C11_16 
ROOT
HETATM    1  C6  UNL     1      22.573   1.551  50.381  1.00  0.00     0.186 A 
HETATM    2  N1  UNL     1      21.518   0.973  49.788  1.00  0.00    -0.217 NA
HETATM    3  C7  UNL     1      20.897   1.469  48.720  1.00  0.00     0.236 A 
HETATM    4  N2  UNL     1      21.330   2.616  48.180  1.00  0.00    -0.241 NA
HETATM    5  C8  UNL     1      22.378   3.238  48.727  1.00  0.00     0.075 A 
HETATM    6  C9  UNL     1      23.041   2.742  49.841  1.00  0.00     0.081 A 
HETATM    7  C10 UNL     1      24.184   3.215  50.614  1.00  0.00     0.108 C 
HETATM    8  C12 UNL     1      24.825   4.371  50.746  1.00  0.00     0.172 C 
HETATM    9  O3  UNL     1      24.519   5.578  50.088  1.00  0.00    -0.357 OA
HETATM   10  C13 UNL     1      24.458   6.055  48.779  1.00  0.00     0.202 C 
HETATM   11  C14 UNL     1      23.364   5.450  47.978  1.00  0.00     0.002 C 
HETATM   12  C15 UNL     1      22.531   4.428  47.862  1.00  0.00     0.031 C 
ENDROOT
BRANCH   1  13
HETATM   13  O1  UNL     1      23.252   1.075  51.493  1.00  0.00    -0.291 OA
BRANCH  13  14
HETATM   14  C5  UNL     1      22.563   0.598  52.619  1.00  0.00     0.080 A 
HETATM   15  C4  UNL     1      21.303   0.926  53.035  1.00  0.00     0.037 A 
HETATM   16  C3  UNL     1      20.778   0.357  54.174  1.00  0.00     0.006 A 
HETATM   17  C2  UNL     1      21.487  -0.562  54.942  1.00  0.00     0.042 A 
HETATM   18  C1  UNL     1      22.764  -0.884  54.505  1.00  0.00     0.119 A 
HETATM   19  F1  UNL     1      23.436  -1.778  55.266  1.00  0.00    -0.206 F 
HETATM   20  C16 UNL     1      23.307  -0.316  53.356  1.00  0.00     0.079 A 
ENDBRANCH  13  14
ENDBRANCH   1  13
BRANCH   7  21
HETATM   21  O2  UNL     1      24.686   2.149  51.386  1.00  0.00    -0.338 OA
BRANCH  21  22
HETATM   22  C11 UNL     1      26.043   2.118  51.795  1.00  0.00     0.260 C 
HETATM   23 BR1  UNL     1      26.233   2.051  53.719  1.00  0.00    -0.067 Br
ENDBRANCH  21  22
ENDBRANCH   7  21
TORSDOF 4
ENDMDL
MODEL 9
REMARK VINA RESULT:      -6.8      3.932      7.297
REMARK  4 active torsions:
REMARK  status: ('A' for Active; 'I' for Inactive)
REMARK    1  A    between atoms: C5_6  and  O1_7 
REMARK    2  A    between atoms: O1_7  and  C6_8 
REMARK    3  A    between atoms: C10_14  and  O2_15 
REMARK    4  A    between atoms: O2_15  and  C11_16 
ROOT
HETATM    1  C6  UNL     1      23.456   1.781  51.522  1.00  0.00     0.186 A 
HETATM    2  N1  UNL     1      23.525   2.750  50.599  1.00  0.00    -0.217 NA
HETATM    3  C7  UNL     1      24.649   3.372  50.251  1.00  0.00     0.236 A 
HETATM    4  N2  UNL     1      25.802   3.030  50.843  1.00  0.00    -0.241 NA
HETATM    5  C8  UNL     1      25.796   2.069  51.771  1.00  0.00     0.075 A 
HETATM    6  C9  UNL     1      24.637   1.407  52.151  1.00  0.00     0.081 A 
HETATM    7  C10 UNL     1      24.364   0.346  53.115  1.00  0.00     0.108 C 
HETATM    8  C12 UNL     1      25.004  -0.176  54.155  1.00  0.00     0.172 C 
HETATM    9  O3  UNL     1      26.265   0.216  54.645  1.00  0.00    -0.357 OA
HETATM   10  C13 UNL     1      27.581   0.270  54.188  1.00  0.00     0.202 C 
HETATM   11  C14 UNL     1      27.794   1.268  53.110  1.00  0.00     0.002 C 
HETATM   12  C15 UNL     1      27.219   1.996  52.165  1.00  0.00     0.031 C 
ENDROOT
BRANCH   1  13
HETATM   13  O1  UNL     1      22.311   1.104  51.918  1.00  0.00    -0.291 OA
BRANCH  13  14
HETATM   14  C5  UNL     1      21.032   1.620  51.656  1.00  0.00     0.080 A 
HETATM   15  C4  UNL     1      20.505   2.811  52.071  1.00  0.00     0.037 A 
HETATM   16  C3  UNL     1      19.221   3.162  51.719  1.00  0.00     0.006 A 
HETATM   17  C2  UNL     1      18.412   2.341  50.939  1.00  0.00     0.042 A 
HETATM   18  C1  UNL     1      18.963   1.136  50.526  1.00  0.00     0.119 A 
HETATM   19  F1  UNL     1      18.160   0.353  49.769  1.00  0.00    -0.206 F 
HETATM   20  C16 UNL     1      20.260   0.769  50.875  1.00  0.00     0.079 A 
ENDBRANCH  13  14
ENDBRANCH   1  13
BRANCH   7  21
HETATM   21  O2  UNL     1      23.109  -0.224  52.824  1.00  0.00    -0.338 OA
BRANCH  21  22
HETATM   22  C11 UNL     1      22.707  -1.450  53.413  1.00  0.00     0.260 C 
HETATM   23 BR1  UNL     1      20.983  -1.323  54.280  1.00  0.00    -0.067 Br
ENDBRANCH  21  22
ENDBRANCH   7  21
TORSDOF 4
ENDMDL
