MODEL 1
REMARK VINA RESULT:      -8.1      0.000      0.000
REMARK  8 active torsions:
REMARK  status: ('A' for Active; 'I' for Inactive)
REMARK    1  A    between atoms: C2_2  and  O2_4 
REMARK    2  A    between atoms: O2_4  and  C3_5 
REMARK    3  A    between atoms: C3_5  and  C4_6 
REMARK    4  A    between atoms: C8_12  and  N3_13 
REMARK    5  A    between atoms: N3_13  and  C9_14 
REMARK    6  A    between atoms: C11_16  and  C12_17 
REMARK    7  A    between atoms: C18_23  and  C19_24 
REMARK    8  A    between atoms: C19_24  and  O3_25 
ROOT
HETATM    1  C4  UNL     1      24.830  -0.338  54.040  1.00  0.00    -0.032 C 
HETATM    2  C5  UNL     1      25.017  -1.023  55.329  1.00  0.00     0.048 C 
HETATM    3  C6  UNL     1      23.782   0.101  53.393  1.00  0.00     0.049 A 
HETATM    4  N1  UNL     1      24.010   0.762  52.162  1.00  0.00    -0.350 N 
HETATM    5  C7  UNL     1      22.951   1.279  51.372  1.00  0.00     0.209 A 
HETATM    6  N2  UNL     1      21.707   1.158  51.767  1.00  0.00    -0.226 NA
HETATM    7  C8  UNL     1      21.418   0.507  52.987  1.00  0.00     0.135 A 
HETATM    8  C18 UNL     1      22.387  -0.001  53.770  1.00  0.00     0.038 A 
HETATM    9  H9  UNL     1      24.859   0.999  51.616  1.00  0.00     0.166 HD
ENDROOT
BRANCH   7  10
HETATM   10  N3  UNL     1      20.036   0.395  53.384  1.00  0.00    -0.369 N 
HETATM   11  H11 UNL     1      19.566   1.035  54.087  1.00  0.00     0.161 HD
BRANCH  10  12
HETATM   12  C9  UNL     1      19.318  -0.686  52.733  1.00  0.00     0.092 A 
HETATM   13  C10 UNL     1      18.316  -0.232  51.700  1.00  0.00     0.037 A 
HETATM   14  C11 UNL     1      17.892  -0.770  53.082  1.00  0.00     0.043 A 
BRANCH  14  15
HETATM   15  C12 UNL     1      17.128  -2.020  53.006  1.00  0.00    -0.052 A 
HETATM   16  C13 UNL     1      15.903  -2.069  52.364  1.00  0.00     0.007 A 
HETATM   17  C14 UNL     1      15.184  -3.256  52.295  1.00  0.00     0.001 A 
HETATM   18  C15 UNL     1      15.707  -4.397  52.878  1.00  0.00     0.000 A 
HETATM   19  C16 UNL     1      16.926  -4.360  53.519  1.00  0.00     0.001 A 
HETATM   20  C17 UNL     1      17.616  -3.178  53.575  1.00  0.00     0.007 A 
ENDBRANCH  14  15
ENDBRANCH  10  12
ENDBRANCH   7  10
BRANCH   8  21
HETATM   21  C19 UNL     1      21.973  -0.670  54.996  1.00  0.00     0.209 C 
BRANCH  21  22
HETATM   22  O3  UNL     1      21.644  -2.026  54.781  1.00  0.00    -0.396 OA
HETATM   23  H23 UNL     1      21.336  -2.355  55.662  1.00  0.00     0.209 HD
ENDBRANCH  21  22
ENDBRANCH   8  21
BRANCH   1  24
HETATM   24  C3  UNL     1      26.212  -0.172  53.533  1.00  0.00     0.215 C 
BRANCH  24  25
HETATM   25  O2  UNL     1      27.136  -0.426  54.616  1.00  0.00    -0.317 OA
BRANCH  25  26
HETATM   26  C2  UNL     1      28.444   0.012  54.535  1.00  0.00     0.255 C 
HETATM   27  C1  UNL     1      29.475  -0.735  53.778  1.00  0.00     0.126 C 
HETATM   28  O1  UNL     1      28.751   1.088  55.135  1.00  0.00    -0.266 OA
ENDBRANCH  25  26
ENDBRANCH  24  25
ENDBRANCH   1  24
TORSDOF 8
ENDMDL
MODEL 2
REMARK VINA RESULT:      -8.1      2.080      3.453
REMARK  8 active torsions:
REMARK  status: ('A' for Active; 'I' for Inactive)
REMARK    1  A    between atoms: C2_2  and  O2_4 
REMARK    2  A    between atoms: O2_4  and  C3_5 
REMARK    3  A    between atoms: C3_5  and  C4_6 
REMARK    4  A    between atoms: C8_12  and  N3_13 
REMARK    5  A    between atoms: N3_13  and  C9_14 
REMARK    6  A    between atoms: C11_16  and  C12_17 
REMARK    7  A    between atoms: C18_23  and  C19_24 
REMARK    8  A    between atoms: C19_24  and  O3_25 
ROOT
HETATM    1  C4  UNL     1      27.241   1.162  53.985  1.00  0.00    -0.032 C 
HETATM    2  C5  UNL     1      27.993   2.239  53.320  1.00  0.00     0.048 C 
HETATM    3  C6  UNL     1      26.013   0.725  53.889  1.00  0.00     0.049 A 
HETATM    4  N1  UNL     1      25.658  -0.390  54.687  1.00  0.00    -0.350 N 
HETATM    5  C7  UNL     1      24.355  -0.951  54.668  1.00  0.00     0.209 A 
HETATM    6  N2  UNL     1      23.424  -0.443  53.897  1.00  0.00    -0.226 NA
HETATM    7  C8  UNL     1      23.719   0.671  53.079  1.00  0.00     0.135 A 
HETATM    8  C18 UNL     1      24.939   1.238  53.063  1.00  0.00     0.038 A 
HETATM    9  H9  UNL     1      26.167  -0.982  55.369  1.00  0.00     0.166 HD
ENDROOT
BRANCH   7  10
HETATM   10  N3  UNL     1      22.666   1.198  52.246  1.00  0.00    -0.369 N 
HETATM   11  H11 UNL     1      22.637   2.194  51.885  1.00  0.00     0.161 HD
BRANCH  10  12
HETATM   12  C9  UNL     1      21.624   0.238  51.930  1.00  0.00     0.092 A 
HETATM   13  C10 UNL     1      20.982   0.440  50.580  1.00  0.00     0.037 A 
HETATM   14  C11 UNL     1      20.265   0.799  51.899  1.00  0.00     0.043 A 
BRANCH  14  15
HETATM   15  C12 UNL     1      19.066  -0.011  52.143  1.00  0.00    -0.052 A 
HETATM   16  C13 UNL     1      18.994  -0.869  53.225  1.00  0.00     0.007 A 
HETATM   17  C14 UNL     1      17.855  -1.633  53.452  1.00  0.00     0.001 A 
HETATM   18  C15 UNL     1      16.787  -1.526  52.578  1.00  0.00     0.000 A 
HETATM   19  C16 UNL     1      16.847  -0.674  51.498  1.00  0.00     0.001 A 
HETATM   20  C17 UNL     1      17.981   0.068  51.296  1.00  0.00     0.007 A 
ENDBRANCH  14  15
ENDBRANCH  10  12
ENDBRANCH   7  10
BRANCH   8  21
HETATM   21  C19 UNL     1      25.126   2.395  52.198  1.00  0.00     0.209 C 
BRANCH  21  22
HETATM   22  O3  UNL     1      24.557   3.568  52.740  1.00  0.00    -0.396 OA
HETATM   23  H23 UNL     1      25.154   3.817  53.488  1.00  0.00     0.209 HD
ENDBRANCH  21  22
ENDBRANCH   8  21
BRANCH   1  24
HETATM   24  C3  UNL     1      28.244   0.544  54.882  1.00  0.00     0.215 C 
BRANCH  24  25
HETATM   25  O2  UNL     1      28.334  -0.866  54.576  1.00  0.00    -0.317 OA
BRANCH  25  26
HETATM   26  C2  UNL     1      29.328  -1.337  53.739  1.00  0.00     0.255 C 
HETATM   27  C1  UNL     1      30.453  -0.479  53.299  1.00  0.00     0.126 C 
HETATM   28  O1  UNL     1      29.256  -2.542  53.346  1.00  0.00    -0.266 OA
ENDBRANCH  25  26
ENDBRANCH  24  25
ENDBRANCH   1  24
TORSDOF 8
ENDMDL
MODEL 3
REMARK VINA RESULT:      -8.0      1.506      2.308
REMARK  8 active torsions:
REMARK  status: ('A' for Active; 'I' for Inactive)
REMARK    1  A    between atoms: C2_2  and  O2_4 
REMARK    2  A    between atoms: O2_4  and  C3_5 
REMARK    3  A    between atoms: C3_5  and  C4_6 
REMARK    4  A    between atoms: C8_12  and  N3_13 
REMARK    5  A    between atoms: N3_13  and  C9_14 
REMARK    6  A    between atoms: C11_16  and  C12_17 
REMARK    7  A    between atoms: C18_23  and  C19_24 
REMARK    8  A    between atoms: C19_24  and  O3_25 
ROOT
HETATM    1  C4  UNL     1      25.363   0.166  53.123  1.00  0.00    -0.032 C 
HETATM    2  C5  UNL     1      25.887   0.963  52.002  1.00  0.00     0.048 C 
HETATM    3  C6  UNL     1      24.159  -0.100  53.559  1.00  0.00     0.049 A 
HETATM    4  N1  UNL     1      24.051  -0.963  54.676  1.00  0.00    -0.350 N 
HETATM    5  C7  UNL     1      22.798  -1.323  55.237  1.00  0.00     0.209 A 
HETATM    6  N2  UNL     1      21.683  -0.856  54.727  1.00  0.00    -0.226 NA
HETATM    7  C8  UNL     1      21.729   0.011  53.613  1.00  0.00     0.135 A 
HETATM    8  C18 UNL     1      22.892   0.381  53.046  1.00  0.00     0.038 A 
HETATM    9  H9  UNL     1      24.736  -1.469  55.267  1.00  0.00     0.166 HD
ENDROOT
BRANCH   7  10
HETATM   10  N3  UNL     1      20.480   0.501  53.083  1.00  0.00    -0.369 N 
HETATM   11  H11 UNL     1      20.187   1.520  53.100  1.00  0.00     0.161 HD
BRANCH  10  12
HETATM   12  C9  UNL     1      19.634  -0.531  52.511  1.00  0.00     0.092 A 
HETATM   13  C10 UNL     1      18.564  -0.012  51.583  1.00  0.00     0.037 A 
HETATM   14  C11 UNL     1      18.248  -0.527  53.002  1.00  0.00     0.043 A 
BRANCH  14  15
HETATM   15  C12 UNL     1      17.403  -1.727  53.007  1.00  0.00    -0.052 A 
HETATM   16  C13 UNL     1      17.810  -2.882  53.649  1.00  0.00     0.007 A 
HETATM   17  C14 UNL     1      17.006  -4.016  53.651  1.00  0.00     0.001 A 
HETATM   18  C15 UNL     1      15.786  -3.977  52.998  1.00  0.00     0.000 A 
HETATM   19  C16 UNL     1      15.371  -2.832  52.355  1.00  0.00     0.001 A 
HETATM   20  C17 UNL     1      16.181  -1.728  52.368  1.00  0.00     0.007 A 
ENDBRANCH  14  15
ENDBRANCH  10  12
ENDBRANCH   7  10
BRANCH   8  21
HETATM   21  C19 UNL     1      22.823   1.296  51.915  1.00  0.00     0.209 C 
BRANCH  21  22
HETATM   22  O3  UNL     1      22.594   2.630  52.317  1.00  0.00    -0.396 OA
HETATM   23  H23 UNL     1      23.030   2.707  53.201  1.00  0.00     0.209 HD
ENDBRANCH  21  22
ENDBRANCH   8  21
BRANCH   1  24
HETATM   24  C3  UNL     1      26.583  -0.391  53.750  1.00  0.00     0.215 C 
BRANCH  24  25
HETATM   25  O2  UNL     1      27.287   0.677  54.424  1.00  0.00    -0.317 OA
BRANCH  25  26
HETATM   26  C2  UNL     1      28.667   0.742  54.379  1.00  0.00     0.255 C 
HETATM   27  C1  UNL     1      29.483  -0.341  53.783  1.00  0.00     0.126 C 
HETATM   28  O1  UNL     1      29.233   1.767  54.869  1.00  0.00    -0.266 OA
ENDBRANCH  25  26
ENDBRANCH  24  25
ENDBRANCH   1  24
TORSDOF 8
ENDMDL
MODEL 4
REMARK VINA RESULT:      -7.9      2.745      8.972
REMARK  8 active torsions:
REMARK  status: ('A' for Active; 'I' for Inactive)
REMARK    1  A    between atoms: C2_2  and  O2_4 
REMARK    2  A    between atoms: O2_4  and  C3_5 
REMARK    3  A    between atoms: C3_5  and  C4_6 
REMARK    4  A    between atoms: C8_12  and  N3_13 
REMARK    5  A    between atoms: N3_13  and  C9_14 
REMARK    6  A    between atoms: C11_16  and  C12_17 
REMARK    7  A    between atoms: C18_23  and  C19_24 
REMARK    8  A    between atoms: C19_24  and  O3_25 
ROOT
HETATM    1  C4  UNL     1      18.622  -0.223  52.366  1.00  0.00    -0.032 C 
HETATM    2  C5  UNL     1      17.999   0.453  51.217  1.00  0.00     0.048 C 
HETATM    3  C6  UNL     1      19.843  -0.278  52.830  1.00  0.00     0.049 A 
HETATM    4  N1  UNL     1      20.053  -1.022  54.016  1.00  0.00    -0.350 N 
HETATM    5  C7  UNL     1      21.334  -1.153  54.612  1.00  0.00     0.209 A 
HETATM    6  N2  UNL     1      22.381  -0.579  54.070  1.00  0.00    -0.226 NA
HETATM    7  C8  UNL     1      22.233   0.175  52.885  1.00  0.00     0.135 A 
HETATM    8  C18 UNL     1      21.039   0.329  52.282  1.00  0.00     0.038 A 
HETATM    9  H9  UNL     1      19.435  -1.565  54.648  1.00  0.00     0.166 HD
ENDROOT
BRANCH   7  10
HETATM   10  N3  UNL     1      23.410   0.790  52.322  1.00  0.00    -0.369 N 
HETATM   11  H11 UNL     1      23.422   1.321  51.404  1.00  0.00     0.161 HD
BRANCH  10  12
HETATM   12  C9  UNL     1      24.607   0.626  53.127  1.00  0.00     0.092 A 
HETATM   13  C10 UNL     1      25.338   1.912  53.422  1.00  0.00     0.037 A 
HETATM   14  C11 UNL     1      25.866   0.875  52.409  1.00  0.00     0.043 A 
BRANCH  14  15
HETATM   15  C12 UNL     1      27.142   0.273  52.811  1.00  0.00    -0.052 A 
HETATM   16  C13 UNL     1      28.212   1.061  53.194  1.00  0.00     0.007 A 
HETATM   17  C14 UNL     1      29.419   0.484  53.574  1.00  0.00     0.001 A 
HETATM   18  C15 UNL     1      29.540  -0.894  53.565  1.00  0.00     0.000 A 
HETATM   19  C16 UNL     1      28.480  -1.689  53.186  1.00  0.00     0.001 A 
HETATM   20  C17 UNL     1      27.302  -1.097  52.815  1.00  0.00     0.007 A 
ENDBRANCH  14  15
ENDBRANCH  10  12
ENDBRANCH   7  10
BRANCH   8  21
HETATM   21  C19 UNL     1      21.007   1.109  51.053  1.00  0.00     0.209 C 
BRANCH  21  22
HETATM   22  O3  UNL     1      21.558   0.408  49.958  1.00  0.00    -0.396 OA
HETATM   23  H23 UNL     1      20.971  -0.379  49.839  1.00  0.00     0.209 HD
ENDBRANCH  21  22
ENDBRANCH   8  21
BRANCH   1  24
HETATM   24  C3  UNL     1      17.483  -0.901  53.026  1.00  0.00     0.215 C 
BRANCH  24  25
HETATM   25  O2  UNL     1      17.768  -2.317  53.103  1.00  0.00    -0.317 OA
BRANCH  25  26
HETATM   26  C2  UNL     1      16.739  -3.239  53.077  1.00  0.00     0.255 C 
HETATM   27  C1  UNL     1      16.943  -4.651  53.475  1.00  0.00     0.126 C 
HETATM   28  O1  UNL     1      15.593  -2.845  52.698  1.00  0.00    -0.266 OA
ENDBRANCH  25  26
ENDBRANCH  24  25
ENDBRANCH   1  24
TORSDOF 8
ENDMDL
MODEL 5
REMARK VINA RESULT:      -7.6      5.924      9.290
REMARK  8 active torsions:
REMARK  status: ('A' for Active; 'I' for Inactive)
REMARK    1  A    between atoms: C2_2  and  O2_4 
REMARK    2  A    between atoms: O2_4  and  C3_5 
REMARK    3  A    between atoms: C3_5  and  C4_6 
REMARK    4  A    between atoms: C8_12  and  N3_13 
REMARK    5  A    between atoms: N3_13  and  C9_14 
REMARK    6  A    between atoms: C11_16  and  C12_17 
REMARK    7  A    between atoms: C18_23  and  C19_24 
REMARK    8  A    between atoms: C19_24  and  O3_25 
ROOT
HETATM    1  C4  UNL     1      25.105   7.221  50.048  1.00  0.00    -0.032 C 
HETATM    2  C5  UNL     1      24.058   8.070  50.640  1.00  0.00     0.048 C 
HETATM    3  C6  UNL     1      25.366   5.941  50.095  1.00  0.00     0.049 A 
HETATM    4  N1  UNL     1      26.471   5.477  49.341  1.00  0.00    -0.350 N 
HETATM    5  C7  UNL     1      26.850   4.110  49.316  1.00  0.00     0.209 A 
HETATM    6  N2  UNL     1      26.175   3.220  50.003  1.00  0.00    -0.226 NA
HETATM    7  C8  UNL     1      25.064   3.625  50.776  1.00  0.00     0.135 A 
HETATM    8  C18 UNL     1      24.666   4.909  50.833  1.00  0.00     0.038 A 
HETATM    9  H9  UNL     1      27.164   5.933  48.720  1.00  0.00     0.166 HD
ENDROOT
BRANCH   7  10
HETATM   10  N3  UNL     1      24.350   2.614  51.517  1.00  0.00    -0.369 N 
HETATM   11  H11 UNL     1      23.343   2.712  51.837  1.00  0.00     0.161 HD
BRANCH  10  12
HETATM   12  C9  UNL     1      25.131   1.424  51.800  1.00  0.00     0.092 A 
HETATM   13  C10 UNL     1      24.678   0.658  53.018  1.00  0.00     0.037 A 
HETATM   14  C11 UNL     1      25.964   1.511  53.008  1.00  0.00     0.043 A 
BRANCH  14  15
HETATM   15  C12 UNL     1      27.184   0.717  53.191  1.00  0.00    -0.052 A 
HETATM   16  C13 UNL     1      27.209  -0.631  52.887  1.00  0.00     0.007 A 
HETATM   17  C14 UNL     1      28.369  -1.378  53.062  1.00  0.00     0.001 A 
HETATM   18  C15 UNL     1      29.505  -0.755  53.547  1.00  0.00     0.000 A 
HETATM   19  C16 UNL     1      29.492   0.588  53.853  1.00  0.00     0.001 A 
HETATM   20  C17 UNL     1      28.337   1.302  53.672  1.00  0.00     0.007 A 
ENDBRANCH  14  15
ENDBRANCH  10  12
ENDBRANCH   7  10
BRANCH   8  21
HETATM   21  C19 UNL     1      23.520   5.217  51.678  1.00  0.00     0.209 C 
BRANCH  21  22
HETATM   22  O3  UNL     1      23.871   5.314  53.042  1.00  0.00    -0.396 OA
HETATM   23  H23 UNL     1      23.138   5.833  53.456  1.00  0.00     0.209 HD
ENDBRANCH  21  22
ENDBRANCH   8  21
BRANCH   1  24
HETATM   24  C3  UNL     1      25.913   8.175  49.253  1.00  0.00     0.215 C 
BRANCH  24  25
HETATM   25  O2  UNL     1      27.186   8.365  49.911  1.00  0.00    -0.317 OA
BRANCH  25  26
HETATM   26  C2  UNL     1      27.939   9.496  49.663  1.00  0.00     0.255 C 
HETATM   27  C1  UNL     1      29.398   9.427  49.414  1.00  0.00     0.126 C 
HETATM   28  O1  UNL     1      27.345  10.618  49.652  1.00  0.00    -0.266 OA
ENDBRANCH  25  26
ENDBRANCH  24  25
ENDBRANCH   1  24
TORSDOF 8
ENDMDL
MODEL 6
REMARK VINA RESULT:      -7.4      5.739      9.484
REMARK  8 active torsions:
REMARK  status: ('A' for Active; 'I' for Inactive)
REMARK    1  A    between atoms: C2_2  and  O2_4 
REMARK    2  A    between atoms: O2_4  and  C3_5 
REMARK    3  A    between atoms: C3_5  and  C4_6 
REMARK    4  A    between atoms: C8_12  and  N3_13 
REMARK    5  A    between atoms: N3_13  and  C9_14 
REMARK    6  A    between atoms: C11_16  and  C12_17 
REMARK    7  A    between atoms: C18_23  and  C19_24 
REMARK    8  A    between atoms: C19_24  and  O3_25 
ROOT
HETATM    1  C4  UNL     1      22.618   5.005  48.466  1.00  0.00    -0.032 C 
HETATM    2  C5  UNL     1      23.081   6.384  48.238  1.00  0.00     0.048 C 
HETATM    3  C6  UNL     1      22.980   4.055  49.287  1.00  0.00     0.049 A 
HETATM    4  N1  UNL     1      22.252   2.842  49.235  1.00  0.00    -0.350 N 
HETATM    5  C7  UNL     1      22.554   1.740  50.076  1.00  0.00     0.209 A 
HETATM    6  N2  UNL     1      23.535   1.814  50.942  1.00  0.00    -0.226 NA
HETATM    7  C8  UNL     1      24.299   2.999  51.038  1.00  0.00     0.135 A 
HETATM    8  C18 UNL     1      24.052   4.070  50.262  1.00  0.00     0.038 A 
HETATM    9  H9  UNL     1      21.449   2.504  48.671  1.00  0.00     0.166 HD
ENDROOT
BRANCH   7  10
HETATM   10  N3  UNL     1      25.370   3.039  52.003  1.00  0.00    -0.369 N 
HETATM   11  H11 UNL     1      25.915   3.914  52.250  1.00  0.00     0.161 HD
BRANCH  10  12
HETATM   12  C9  UNL     1      25.651   1.759  52.629  1.00  0.00     0.092 A 
HETATM   13  C10 UNL     1      26.173   1.859  54.041  1.00  0.00     0.037 A 
HETATM   14  C11 UNL     1      27.079   1.487  52.849  1.00  0.00     0.043 A 
BRANCH  14  15
HETATM   15  C12 UNL     1      27.624   0.128  52.941  1.00  0.00    -0.052 A 
HETATM   16  C13 UNL     1      26.881  -0.966  52.535  1.00  0.00     0.007 A 
HETATM   17  C14 UNL     1      27.403  -2.252  52.624  1.00  0.00     0.001 A 
HETATM   18  C15 UNL     1      28.680  -2.428  53.125  1.00  0.00     0.000 A 
HETATM   19  C16 UNL     1      29.430  -1.345  53.531  1.00  0.00     0.001 A 
HETATM   20  C17 UNL     1      28.894  -0.089  53.435  1.00  0.00     0.007 A 
ENDBRANCH  14  15
ENDBRANCH  10  12
ENDBRANCH   7  10
BRANCH   8  21
HETATM   21  C19 UNL     1      24.915   5.230  50.431  1.00  0.00     0.209 C 
BRANCH  21  22
HETATM   22  O3  UNL     1      24.570   5.996  51.566  1.00  0.00    -0.396 OA
HETATM   23  H23 UNL     1      24.175   5.346  52.199  1.00  0.00     0.209 HD
ENDBRANCH  21  22
ENDBRANCH   8  21
BRANCH   1  24
HETATM   24  C3  UNL     1      21.501   4.853  47.507  1.00  0.00     0.215 C 
BRANCH  24  25
HETATM   25  O2  UNL     1      21.957   4.063  46.385  1.00  0.00    -0.317 OA
BRANCH  25  26
HETATM   26  C2  UNL     1      21.733   4.493  45.090  1.00  0.00     0.255 C 
HETATM   27  C1  UNL     1      21.999   5.889  44.672  1.00  0.00     0.126 C 
HETATM   28  O1  UNL     1      21.286   3.651  44.251  1.00  0.00    -0.266 OA
ENDBRANCH  25  26
ENDBRANCH  24  25
ENDBRANCH   1  24
TORSDOF 8
ENDMDL
MODEL 7
REMARK VINA RESULT:      -7.4      5.920      8.355
REMARK  8 active torsions:
REMARK  status: ('A' for Active; 'I' for Inactive)
REMARK    1  A    between atoms: C2_2  and  O2_4 
REMARK    2  A    between atoms: O2_4  and  C3_5 
REMARK    3  A    between atoms: C3_5  and  C4_6 
REMARK    4  A    between atoms: C8_12  and  N3_13 
REMARK    5  A    between atoms: N3_13  and  C9_14 
REMARK    6  A    between atoms: C11_16  and  C12_17 
REMARK    7  A    between atoms: C18_23  and  C19_24 
REMARK    8  A    between atoms: C19_24  and  O3_25 
ROOT
HETATM    1  C4  UNL     1      26.485   6.710  48.364  1.00  0.00    -0.032 C 
HETATM    2  C5  UNL     1      27.930   6.479  48.207  1.00  0.00     0.048 C 
HETATM    3  C6  UNL     1      25.501   5.992  48.839  1.00  0.00     0.049 A 
HETATM    4  N1  UNL     1      24.216   6.587  48.860  1.00  0.00    -0.350 N 
HETATM    5  C7  UNL     1      23.073   5.905  49.351  1.00  0.00     0.209 A 
HETATM    6  N2  UNL     1      23.175   4.680  49.807  1.00  0.00    -0.226 NA
HETATM    7  C8  UNL     1      24.432   4.034  49.809  1.00  0.00     0.135 A 
HETATM    8  C18 UNL     1      25.544   4.639  49.354  1.00  0.00     0.038 A 
HETATM    9  H9  UNL     1      23.844   7.512  48.576  1.00  0.00     0.166 HD
ENDROOT
BRANCH   7  10
HETATM   10  N3  UNL     1      24.500   2.687  50.319  1.00  0.00    -0.369 N 
HETATM   11  H11 UNL     1      25.076   1.913  49.879  1.00  0.00     0.161 HD
BRANCH  10  12
HETATM   12  C9  UNL     1      23.700   2.463  51.510  1.00  0.00     0.092 A 
HETATM   13  C10 UNL     1      24.448   2.660  52.806  1.00  0.00     0.037 A 
HETATM   14  C11 UNL     1      24.066   1.262  52.276  1.00  0.00     0.043 A 
BRANCH  14  15
HETATM   15  C12 UNL     1      23.118   0.554  53.144  1.00  0.00    -0.052 A 
HETATM   16  C13 UNL     1      21.783   0.913  53.182  1.00  0.00     0.007 A 
HETATM   17  C14 UNL     1      20.889   0.238  54.006  1.00  0.00     0.001 A 
HETATM   18  C15 UNL     1      21.351  -0.802  54.793  1.00  0.00     0.000 A 
HETATM   19  C16 UNL     1      22.679  -1.167  54.763  1.00  0.00     0.001 A 
HETATM   20  C17 UNL     1      23.540  -0.487  53.943  1.00  0.00     0.007 A 
ENDBRANCH  14  15
ENDBRANCH  10  12
ENDBRANCH   7  10
BRANCH   8  21
HETATM   21  C19 UNL     1      26.781   3.871  49.383  1.00  0.00     0.209 C 
BRANCH  21  22
HETATM   22  O3  UNL     1      27.188   3.560  50.699  1.00  0.00    -0.396 OA
HETATM   23  H23 UNL     1      28.174   3.627  50.683  1.00  0.00     0.209 HD
ENDBRANCH  21  22
ENDBRANCH   8  21
BRANCH   1  24
HETATM   24  C3  UNL     1      26.299   8.089  47.859  1.00  0.00     0.215 C 
BRANCH  24  25
HETATM   25  O2  UNL     1      26.047   8.032  46.436  1.00  0.00    -0.317 OA
BRANCH  25  26
HETATM   26  C2  UNL     1      24.782   8.287  45.940  1.00  0.00     0.255 C 
HETATM   27  C1  UNL     1      24.403   7.945  44.549  1.00  0.00     0.126 C 
HETATM   28  O1  UNL     1      23.936   8.831  46.714  1.00  0.00    -0.266 OA
ENDBRANCH  25  26
ENDBRANCH  24  25
ENDBRANCH   1  24
TORSDOF 8
ENDMDL
MODEL 8
REMARK VINA RESULT:      -7.4      4.351      9.477
REMARK  8 active torsions:
REMARK  status: ('A' for Active; 'I' for Inactive)
REMARK    1  A    between atoms: C2_2  and  O2_4 
REMARK    2  A    between atoms: O2_4  and  C3_5 
REMARK    3  A    between atoms: C3_5  and  C4_6 
REMARK    4  A    between atoms: C8_12  and  N3_13 
REMARK    5  A    between atoms: N3_13  and  C9_14 
REMARK    6  A    between atoms: C11_16  and  C12_17 
REMARK    7  A    between atoms: C18_23  and  C19_24 
REMARK    8  A    between atoms: C19_24  and  O3_25 
ROOT
HETATM    1  C4  UNL     1      21.839   0.261  53.778  1.00  0.00    -0.032 C 
HETATM    2  C5  UNL     1      22.581  -0.890  54.319  1.00  0.00     0.048 C 
HETATM    3  C6  UNL     1      22.192   1.342  53.133  1.00  0.00     0.049 A 
HETATM    4  N1  UNL     1      21.159   2.223  52.731  1.00  0.00    -0.350 N 
HETATM    5  C7  UNL     1      21.421   3.427  52.027  1.00  0.00     0.209 A 
HETATM    6  N2  UNL     1      22.651   3.764  51.722  1.00  0.00    -0.226 NA
HETATM    7  C8  UNL     1      23.723   2.924  52.098  1.00  0.00     0.135 A 
HETATM    8  C18 UNL     1      23.526   1.774  52.767  1.00  0.00     0.038 A 
HETATM    9  H9  UNL     1      20.127   2.218  52.828  1.00  0.00     0.166 HD
ENDROOT
BRANCH   7  10
HETATM   10  N3  UNL     1      25.060   3.333  51.743  1.00  0.00    -0.369 N 
HETATM   11  H11 UNL     1      25.931   3.046  52.277  1.00  0.00     0.161 HD
BRANCH  10  12
HETATM   12  C9  UNL     1      25.127   4.187  50.571  1.00  0.00     0.092 A 
HETATM   13  C10 UNL     1      25.169   3.441  49.261  1.00  0.00     0.037 A 
HETATM   14  C11 UNL     1      26.410   4.141  49.853  1.00  0.00     0.043 A 
BRANCH  14  15
HETATM   15  C12 UNL     1      26.897   5.251  49.026  1.00  0.00    -0.052 A 
HETATM   16  C13 UNL     1      26.074   6.314  48.704  1.00  0.00     0.007 A 
HETATM   17  C14 UNL     1      26.542   7.363  47.920  1.00  0.00     0.001 A 
HETATM   18  C15 UNL     1      27.847   7.332  47.462  1.00  0.00     0.000 A 
HETATM   19  C16 UNL     1      28.676   6.278  47.777  1.00  0.00     0.001 A 
HETATM   20  C17 UNL     1      28.192   5.256  48.550  1.00  0.00     0.007 A 
ENDBRANCH  14  15
ENDBRANCH  10  12
ENDBRANCH   7  10
BRANCH   8  21
HETATM   21  C19 UNL     1      24.705   0.997  53.123  1.00  0.00     0.209 C 
BRANCH  21  22
HETATM   22  O3  UNL     1      25.421   0.559  51.987  1.00  0.00    -0.396 OA
HETATM   23  H23 UNL     1      25.609   1.382  51.473  1.00  0.00     0.209 HD
ENDBRANCH  21  22
ENDBRANCH   8  21
BRANCH   1  24
HETATM   24  C3  UNL     1      20.428  -0.058  54.095  1.00  0.00     0.215 C 
BRANCH  24  25
HETATM   25  O2  UNL     1      19.848  -0.763  52.974  1.00  0.00    -0.317 OA
BRANCH  25  26
HETATM   26  C2  UNL     1      18.714  -0.275  52.353  1.00  0.00     0.255 C 
HETATM   27  C1  UNL     1      17.371  -0.842  52.619  1.00  0.00     0.126 C 
HETATM   28  O1  UNL     1      18.848   0.686  51.534  1.00  0.00    -0.266 OA
ENDBRANCH  25  26
ENDBRANCH  24  25
ENDBRANCH   1  24
TORSDOF 8
ENDMDL
MODEL 9
REMARK VINA RESULT:      -7.3      6.091      8.080
REMARK  8 active torsions:
REMARK  status: ('A' for Active; 'I' for Inactive)
REMARK    1  A    between atoms: C2_2  and  O2_4 
REMARK    2  A    between atoms: O2_4  and  C3_5 
REMARK    3  A    between atoms: C3_5  and  C4_6 
REMARK    4  A    between atoms: C8_12  and  N3_13 
REMARK    5  A    between atoms: N3_13  and  C9_14 
REMARK    6  A    between atoms: C11_16  and  C12_17 
REMARK    7  A    between atoms: C18_23  and  C19_24 
REMARK    8  A    between atoms: C19_24  and  O3_25 
ROOT
HETATM    1  C4  UNL     1      26.699   7.580  48.976  1.00  0.00    -0.032 C 
HETATM    2  C5  UNL     1      26.104   8.907  49.206  1.00  0.00     0.048 C 
HETATM    3  C6  UNL     1      26.368   6.367  49.330  1.00  0.00     0.049 A 
HETATM    4  N1  UNL     1      27.192   5.310  48.872  1.00  0.00    -0.350 N 
HETATM    5  C7  UNL     1      26.932   3.953  49.194  1.00  0.00     0.209 A 
HETATM    6  N2  UNL     1      25.902   3.631  49.938  1.00  0.00    -0.226 NA
HETATM    7  C8  UNL     1      25.045   4.644  50.426  1.00  0.00     0.135 A 
HETATM    8  C18 UNL     1      25.250   5.944  50.149  1.00  0.00     0.038 A 
HETATM    9  H9  UNL     1      28.046   5.262  48.286  1.00  0.00     0.166 HD
ENDROOT
BRANCH   7  10
HETATM   10  N3  UNL     1      23.923   4.247  51.241  1.00  0.00    -0.369 N 
HETATM   11  H11 UNL     1      23.212   4.923  51.642  1.00  0.00     0.161 HD
BRANCH  10  12
HETATM   12  C9  UNL     1      23.839   2.817  51.478  1.00  0.00     0.092 A 
HETATM   13  C10 UNL     1      22.749   2.122  50.701  1.00  0.00     0.037 A 
HETATM   14  C11 UNL     1      22.642   2.389  52.217  1.00  0.00     0.043 A 
BRANCH  14  15
HETATM   15  C12 UNL     1      22.600   1.160  53.018  1.00  0.00    -0.052 A 
HETATM   16  C13 UNL     1      21.403   0.667  53.503  1.00  0.00     0.007 A 
HETATM   17  C14 UNL     1      21.368  -0.498  54.261  1.00  0.00     0.001 A 
HETATM   18  C15 UNL     1      22.552  -1.163  54.528  1.00  0.00     0.000 A 
HETATM   19  C16 UNL     1      23.751  -0.681  54.050  1.00  0.00     0.001 A 
HETATM   20  C17 UNL     1      23.758   0.469  53.305  1.00  0.00     0.007 A 
ENDBRANCH  14  15
ENDBRANCH  10  12
ENDBRANCH   7  10
BRANCH   8  21
HETATM   21  C19 UNL     1      24.316   6.904  50.721  1.00  0.00     0.209 C 
BRANCH  21  22
HETATM   22  O3  UNL     1      24.451   7.014  52.122  1.00  0.00    -0.396 OA
HETATM   23  H23 UNL     1      24.120   7.921  52.339  1.00  0.00     0.209 HD
ENDBRANCH  21  22
ENDBRANCH   8  21
BRANCH   1  24
HETATM   24  C3  UNL     1      27.882   7.875  48.135  1.00  0.00     0.215 C 
BRANCH  24  25
HETATM   25  O2  UNL     1      29.075   7.697  48.933  1.00  0.00    -0.317 OA
BRANCH  25  26
HETATM   26  C2  UNL     1      30.192   8.476  48.704  1.00  0.00     0.255 C 
HETATM   27  C1  UNL     1      30.418   9.752  49.423  1.00  0.00     0.126 C 
HETATM   28  O1  UNL     1      31.038   8.071  47.848  1.00  0.00    -0.266 OA
ENDBRANCH  25  26
ENDBRANCH  24  25
ENDBRANCH   1  24
TORSDOF 8
ENDMDL
