MODEL 1
REMARK VINA RESULT:      -7.9      0.000      0.000
REMARK  6 active torsions:
REMARK  status: ('A' for Active; 'I' for Inactive)
REMARK    1  A    between atoms: C2_2  and  C3_3 
REMARK       I    between atoms: C3_3  and  N1_5 
REMARK    2  A    between atoms: N1_5  and  C4_6 
REMARK    3  A    between atoms: C4_6  and  C6_8 
REMARK    4  A    between atoms: C10_14  and  N4_15 
REMARK    5  A    between atoms: N4_15  and  C11_16 
REMARK    6  A    between atoms: C14_19  and  C15_20 
ROOT
HETATM    1  C6  UNL     1      26.992   6.205  48.757  1.00  0.00     0.041 C 
HETATM    2  C7  UNL     1      25.942   6.640  49.432  1.00  0.00     0.010 A 
HETATM    3  C8  UNL     1      25.726   8.032  49.833  1.00  0.00     0.192 A 
HETATM    4  N2  UNL     1      24.503   8.168  50.577  1.00  0.00    -0.278 NA
HETATM    5  C9  UNL     1      23.658   7.273  50.890  1.00  0.00     0.229 A 
HETATM    6  N3  UNL     1      23.881   5.932  50.489  1.00  0.00    -0.224 NA
HETATM    7  C10 UNL     1      24.942   5.652  49.814  1.00  0.00     0.137 A 
ENDROOT
BRANCH   7   8
HETATM    8  N4  UNL     1      25.051   4.262  49.483  1.00  0.00    -0.341 N 
HETATM    9  H11 UNL     1      24.987   4.039  48.442  1.00  0.00     0.167 HD
BRANCH   8  10
HETATM   10  C11 UNL     1      25.229   3.185  50.389  1.00  0.00     0.033 A 
HETATM   11  C12 UNL     1      26.522   2.802  50.756  1.00  0.00     0.030 A 
HETATM   12  C13 UNL     1      26.730   1.756  51.628  1.00  0.00     0.010 A 
HETATM   13  C14 UNL     1      25.694   1.038  52.180  1.00  0.00    -0.051 A 
HETATM   14  C19 UNL     1      24.409   1.397  51.831  1.00  0.00     0.010 A 
HETATM   15  C20 UNL     1      24.236   2.445  50.958  1.00  0.00     0.030 A 
BRANCH  13  16
HETATM   16  C15 UNL     1      25.877  -0.095  53.124  1.00  0.00    -0.024 C 
HETATM   17  C16 UNL     1      24.526  -0.618  53.531  1.00  0.00     0.019 C 
HETATM   18  C17 UNL     1      26.644  -1.217  52.485  1.00  0.00     0.019 C 
HETATM   19  C18 UNL     1      26.577   0.384  54.379  1.00  0.00     0.019 C 
ENDBRANCH  13  16
ENDBRANCH   8  10
ENDBRANCH   7   8
BRANCH   1  20
HETATM   20  C4  UNL     1      28.157   6.902  48.251  1.00  0.00     0.026 C 
HETATM   21  C5  UNL     1      28.099   7.489  47.063  1.00  0.00     0.043 C 
BRANCH  20  22
HETATM   22  N1  UNL     1      29.403   7.017  48.909  1.00  0.00    -0.324 N 
HETATM   23  C3  UNL     1      30.355   5.968  48.674  1.00  0.00     0.244 C 
HETATM   24  O1  UNL     1      30.174   4.944  47.926  1.00  0.00    -0.268 OA
HETATM   25  H4  UNL     1      29.910   7.644  49.556  1.00  0.00     0.169 HD
BRANCH  23  26
HETATM   26  C2  UNL     1      31.719   5.852  49.237  1.00  0.00     0.064 C 
HETATM   27  C1  UNL     1      32.010   7.148  49.448  1.00  0.00     0.017 C 
ENDBRANCH  23  26
ENDBRANCH  20  22
ENDBRANCH   1  20
TORSDOF 6
ENDMDL
MODEL 2
REMARK VINA RESULT:      -7.8      3.447      8.348
REMARK  6 active torsions:
REMARK  status: ('A' for Active; 'I' for Inactive)
REMARK    1  A    between atoms: C2_2  and  C3_3 
REMARK       I    between atoms: C3_3  and  N1_5 
REMARK    2  A    between atoms: N1_5  and  C4_6 
REMARK    3  A    between atoms: C4_6  and  C6_8 
REMARK    4  A    between atoms: C10_14  and  N4_15 
REMARK    5  A    between atoms: N4_15  and  C11_16 
REMARK    6  A    between atoms: C14_19  and  C15_20 
ROOT
HETATM    1  C6  UNL     1      24.150   1.776  51.335  1.00  0.00     0.041 C 
HETATM    2  C7  UNL     1      25.249   1.882  52.062  1.00  0.00     0.010 A 
HETATM    3  C8  UNL     1      25.336   1.579  53.492  1.00  0.00     0.192 A 
HETATM    4  N2  UNL     1      26.663   1.824  53.988  1.00  0.00    -0.278 NA
HETATM    5  C9  UNL     1      27.685   2.238  53.357  1.00  0.00     0.229 A 
HETATM    6  N3  UNL     1      27.584   2.521  51.972  1.00  0.00    -0.224 NA
HETATM    7  C10 UNL     1      26.450   2.352  51.384  1.00  0.00     0.137 A 
ENDROOT
BRANCH   7   8
HETATM    8  N4  UNL     1      26.481   2.684  49.991  1.00  0.00    -0.341 N 
HETATM    9  H11 UNL     1      26.480   1.850  49.326  1.00  0.00     0.167 HD
BRANCH   8  10
HETATM   10  C11 UNL     1      26.514   3.987  49.429  1.00  0.00     0.033 A 
HETATM   11  C12 UNL     1      25.342   4.748  49.387  1.00  0.00     0.030 A 
HETATM   12  C13 UNL     1      25.339   6.013  48.843  1.00  0.00     0.010 A 
HETATM   13  C14 UNL     1      26.470   6.594  48.317  1.00  0.00    -0.051 A 
HETATM   14  C19 UNL     1      27.638   5.861  48.347  1.00  0.00     0.010 A 
HETATM   15  C20 UNL     1      27.608   4.602  48.897  1.00  0.00     0.030 A 
BRANCH  13  16
HETATM   16  C15 UNL     1      26.508   7.955  47.723  1.00  0.00    -0.024 C 
HETATM   17  C16 UNL     1      27.694   8.057  46.801  1.00  0.00     0.019 C 
HETATM   18  C17 UNL     1      25.266   8.235  46.925  1.00  0.00     0.019 C 
HETATM   19  C18 UNL     1      26.688   8.992  48.812  1.00  0.00     0.019 C 
ENDBRANCH  13  16
ENDBRANCH   8  10
ENDBRANCH   7   8
BRANCH   1  20
HETATM   20  C4  UNL     1      22.806   1.368  51.692  1.00  0.00     0.026 C 
HETATM   21  C5  UNL     1      21.922   1.127  50.732  1.00  0.00     0.043 C 
BRANCH  20  22
HETATM   22  N1  UNL     1      22.311   1.205  53.007  1.00  0.00    -0.324 N 
HETATM   23  C3  UNL     1      22.249  -0.139  53.510  1.00  0.00     0.244 C 
HETATM   24  O1  UNL     1      22.600  -1.194  52.875  1.00  0.00    -0.268 OA
HETATM   25  H4  UNL     1      21.946   1.761  53.797  1.00  0.00     0.169 HD
BRANCH  23  26
HETATM   26  C2  UNL     1      21.775  -0.576  54.842  1.00  0.00     0.064 C 
HETATM   27  C1  UNL     1      22.833  -1.296  55.257  1.00  0.00     0.017 C 
ENDBRANCH  23  26
ENDBRANCH  20  22
ENDBRANCH   1  20
TORSDOF 6
ENDMDL
MODEL 3
REMARK VINA RESULT:      -7.7      2.492      7.032
REMARK  6 active torsions:
REMARK  status: ('A' for Active; 'I' for Inactive)
REMARK    1  A    between atoms: C2_2  and  C3_3 
REMARK       I    between atoms: C3_3  and  N1_5 
REMARK    2  A    between atoms: N1_5  and  C4_6 
REMARK    3  A    between atoms: C4_6  and  C6_8 
REMARK    4  A    between atoms: C10_14  and  N4_15 
REMARK    5  A    between atoms: N4_15  and  C11_16 
REMARK    6  A    between atoms: C14_19  and  C15_20 
ROOT
HETATM    1  C6  UNL     1      25.607   1.960  51.490  1.00  0.00     0.041 C 
HETATM    2  C7  UNL     1      24.849   2.986  51.837  1.00  0.00     0.010 A 
HETATM    3  C8  UNL     1      24.196   3.139  53.138  1.00  0.00     0.192 A 
HETATM    4  N2  UNL     1      23.422   4.350  53.185  1.00  0.00    -0.278 NA
HETATM    5  C9  UNL     1      23.268   5.231  52.283  1.00  0.00     0.229 A 
HETATM    6  N3  UNL     1      23.913   5.070  51.031  1.00  0.00    -0.224 NA
HETATM    7  C10 UNL     1      24.642   4.026  50.837  1.00  0.00     0.137 A 
ENDROOT
BRANCH   7   8
HETATM    8  N4  UNL     1      25.225   3.979  49.529  1.00  0.00    -0.341 N 
HETATM    9  H11 UNL     1      24.844   3.215  48.891  1.00  0.00     0.167 HD
BRANCH   8  10
HETATM   10  C11 UNL     1      26.240   4.831  49.021  1.00  0.00     0.033 A 
HETATM   11  C12 UNL     1      25.913   6.136  48.637  1.00  0.00     0.030 A 
HETATM   12  C13 UNL     1      26.872   6.986  48.134  1.00  0.00     0.010 A 
HETATM   13  C14 UNL     1      28.187   6.609  47.980  1.00  0.00    -0.051 A 
HETATM   14  C19 UNL     1      28.532   5.326  48.350  1.00  0.00     0.010 A 
HETATM   15  C20 UNL     1      27.551   4.502  48.849  1.00  0.00     0.030 A 
BRANCH  13  16
HETATM   16  C15 UNL     1      29.250   7.496  47.442  1.00  0.00    -0.024 C 
HETATM   17  C16 UNL     1      30.530   6.714  47.324  1.00  0.00     0.019 C 
HETATM   18  C17 UNL     1      28.888   8.015  46.079  1.00  0.00     0.019 C 
HETATM   19  C18 UNL     1      29.503   8.642  48.399  1.00  0.00     0.019 C 
ENDBRANCH  13  16
ENDBRANCH   8  10
ENDBRANCH   7   8
BRANCH   1  20
HETATM   20  C4  UNL     1      25.992   0.768  52.219  1.00  0.00     0.026 C 
HETATM   21  C5  UNL     1      25.052  -0.006  52.743  1.00  0.00     0.043 C 
BRANCH  20  22
HETATM   22  N1  UNL     1      27.317   0.333  52.453  1.00  0.00    -0.324 N 
HETATM   23  C3  UNL     1      28.034   0.988  53.511  1.00  0.00     0.244 C 
HETATM   24  O1  UNL     1      27.580   1.926  54.255  1.00  0.00    -0.268 OA
HETATM   25  H4  UNL     1      28.009  -0.348  52.097  1.00  0.00     0.169 HD
BRANCH  23  26
HETATM   26  C2  UNL     1      29.421   0.721  53.953  1.00  0.00     0.064 C 
HETATM   27  C1  UNL     1      29.540  -0.577  53.626  1.00  0.00     0.017 C 
ENDBRANCH  23  26
ENDBRANCH  20  22
ENDBRANCH   1  20
TORSDOF 6
ENDMDL
MODEL 4
REMARK VINA RESULT:      -7.7      3.884      7.254
REMARK  6 active torsions:
REMARK  status: ('A' for Active; 'I' for Inactive)
REMARK    1  A    between atoms: C2_2  and  C3_3 
REMARK       I    between atoms: C3_3  and  N1_5 
REMARK    2  A    between atoms: N1_5  and  C4_6 
REMARK    3  A    between atoms: C4_6  and  C6_8 
REMARK    4  A    between atoms: C10_14  and  N4_15 
REMARK    5  A    between atoms: N4_15  and  C11_16 
REMARK    6  A    between atoms: C14_19  and  C15_20 
ROOT
HETATM    1  C6  UNL     1      24.785  -0.136  52.738  1.00  0.00     0.041 C 
HETATM    2  C7  UNL     1      23.697  -0.354  53.456  1.00  0.00     0.010 A 
HETATM    3  C8  UNL     1      23.681  -0.987  54.776  1.00  0.00     0.192 A 
HETATM    4  N2  UNL     1      22.336  -1.102  55.274  1.00  0.00    -0.278 NA
HETATM    5  C9  UNL     1      21.251  -0.732  54.727  1.00  0.00     0.229 A 
HETATM    6  N3  UNL     1      21.286  -0.116  53.451  1.00  0.00    -0.224 NA
HETATM    7  C10 UNL     1      22.425   0.053  52.873  1.00  0.00     0.137 A 
ENDROOT
BRANCH   7   8
HETATM    8  N4  UNL     1      22.319   0.674  51.586  1.00  0.00    -0.341 N 
HETATM    9  H11 UNL     1      21.792   0.108  50.852  1.00  0.00     0.167 HD
BRANCH   8  10
HETATM   10  C11 UNL     1      22.841   1.939  51.208  1.00  0.00     0.033 A 
HETATM   11  C12 UNL     1      23.097   2.201  49.859  1.00  0.00     0.030 A 
HETATM   12  C13 UNL     1      23.610   3.415  49.459  1.00  0.00     0.010 A 
HETATM   13  C14 UNL     1      23.895   4.426  50.349  1.00  0.00    -0.051 A 
HETATM   14  C19 UNL     1      23.651   4.189  51.685  1.00  0.00     0.010 A 
HETATM   15  C20 UNL     1      23.139   2.967  52.051  1.00  0.00     0.030 A 
BRANCH  13  16
HETATM   16  C15 UNL     1      24.447   5.747  49.957  1.00  0.00    -0.024 C 
HETATM   17  C16 UNL     1      23.707   6.250  48.746  1.00  0.00     0.019 C 
HETATM   18  C17 UNL     1      24.285   6.754  51.059  1.00  0.00     0.019 C 
HETATM   19  C18 UNL     1      25.906   5.607  49.572  1.00  0.00     0.019 C 
ENDBRANCH  13  16
ENDBRANCH   8  10
ENDBRANCH   7   8
BRANCH   1  20
HETATM   20  C4  UNL     1      26.179  -0.432  53.004  1.00  0.00     0.026 C 
HETATM   21  C5  UNL     1      26.707  -1.554  52.536  1.00  0.00     0.043 C 
BRANCH  20  22
HETATM   22  N1  UNL     1      27.068   0.375  53.751  1.00  0.00    -0.324 N 
HETATM   23  C3  UNL     1      27.625   1.514  53.077  1.00  0.00     0.244 C 
HETATM   24  O1  UNL     1      27.388   1.859  51.867  1.00  0.00    -0.268 OA
HETATM   25  H4  UNL     1      27.495   0.435  54.691  1.00  0.00     0.169 HD
BRANCH  23  26
HETATM   26  C2  UNL     1      28.572   2.508  53.630  1.00  0.00     0.064 C 
HETATM   27  C1  UNL     1      29.379   1.708  54.349  1.00  0.00     0.017 C 
ENDBRANCH  23  26
ENDBRANCH  20  22
ENDBRANCH   1  20
TORSDOF 6
ENDMDL
MODEL 5
REMARK VINA RESULT:      -7.6      5.050      7.739
REMARK  6 active torsions:
REMARK  status: ('A' for Active; 'I' for Inactive)
REMARK    1  A    between atoms: C2_2  and  C3_3 
REMARK       I    between atoms: C3_3  and  N1_5 
REMARK    2  A    between atoms: N1_5  and  C4_6 
REMARK    3  A    between atoms: C4_6  and  C6_8 
REMARK    4  A    between atoms: C10_14  and  N4_15 
REMARK    5  A    between atoms: N4_15  and  C11_16 
REMARK    6  A    between atoms: C14_19  and  C15_20 
ROOT
HETATM    1  C6  UNL     1      24.558   0.147  53.061  1.00  0.00     0.041 C 
HETATM    2  C7  UNL     1      24.303   1.437  52.927  1.00  0.00     0.010 A 
HETATM    3  C8  UNL     1      24.974   2.502  53.676  1.00  0.00     0.192 A 
HETATM    4  N2  UNL     1      24.447   3.791  53.317  1.00  0.00    -0.278 NA
HETATM    5  C9  UNL     1      23.535   4.073  52.478  1.00  0.00     0.229 A 
HETATM    6  N3  UNL     1      22.901   3.029  51.759  1.00  0.00    -0.224 NA
HETATM    7  C10 UNL     1      23.266   1.813  51.976  1.00  0.00     0.137 A 
ENDROOT
BRANCH   7   8
HETATM    8  N4  UNL     1      22.539   0.857  51.195  1.00  0.00    -0.341 N 
HETATM    9  H11 UNL     1      23.130   0.283  50.517  1.00  0.00     0.167 HD
BRANCH   8  10
HETATM   10  C11 UNL     1      21.142   0.612  51.237  1.00  0.00     0.033 A 
HETATM   11  C12 UNL     1      20.348   0.973  50.144  1.00  0.00     0.030 A 
HETATM   12  C13 UNL     1      18.988   0.755  50.155  1.00  0.00     0.010 A 
HETATM   13  C14 UNL     1      18.340   0.179  51.224  1.00  0.00    -0.051 A 
HETATM   14  C19 UNL     1      19.104  -0.184  52.314  1.00  0.00     0.010 A 
HETATM   15  C20 UNL     1      20.458   0.047  52.271  1.00  0.00     0.030 A 
BRANCH  13  16
HETATM   16  C15 UNL     1      16.877  -0.073  51.274  1.00  0.00    -0.024 C 
HETATM   17  C16 UNL     1      16.395  -0.442  49.896  1.00  0.00     0.019 C 
HETATM   18  C17 UNL     1      16.550  -1.204  52.207  1.00  0.00     0.019 C 
HETATM   19  C18 UNL     1      16.148   1.188  51.688  1.00  0.00     0.019 C 
ENDBRANCH  13  16
ENDBRANCH   8  10
ENDBRANCH   7   8
BRANCH   1  20
HETATM   20  C4  UNL     1      25.493  -0.557  53.916  1.00  0.00     0.026 C 
HETATM   21  C5  UNL     1      25.124  -0.896  55.144  1.00  0.00     0.043 C 
BRANCH  20  22
HETATM   22  N1  UNL     1      26.814  -0.925  53.572  1.00  0.00    -0.324 N 
HETATM   23  C3  UNL     1      27.868  -0.098  54.088  1.00  0.00     0.244 C 
HETATM   24  O1  UNL     1      27.716   0.936  54.827  1.00  0.00    -0.268 OA
HETATM   25  H4  UNL     1      27.329  -1.640  53.031  1.00  0.00     0.169 HD
BRANCH  23  26
HETATM   26  C2  UNL     1      29.324  -0.265  53.877  1.00  0.00     0.064 C 
HETATM   27  C1  UNL     1      29.360  -1.513  53.380  1.00  0.00     0.017 C 
ENDBRANCH  23  26
ENDBRANCH  20  22
ENDBRANCH   1  20
TORSDOF 6
ENDMDL
MODEL 6
REMARK VINA RESULT:      -7.3      2.979      6.885
REMARK  6 active torsions:
REMARK  status: ('A' for Active; 'I' for Inactive)
REMARK    1  A    between atoms: C2_2  and  C3_3 
REMARK       I    between atoms: C3_3  and  N1_5 
REMARK    2  A    between atoms: N1_5  and  C4_6 
REMARK    3  A    between atoms: C4_6  and  C6_8 
REMARK    4  A    between atoms: C10_14  and  N4_15 
REMARK    5  A    between atoms: N4_15  and  C11_16 
REMARK    6  A    between atoms: C14_19  and  C15_20 
ROOT
HETATM    1  C6  UNL     1      24.262   1.265  51.985  1.00  0.00     0.041 C 
HETATM    2  C7  UNL     1      22.986   1.608  52.001  1.00  0.00     0.010 A 
HETATM    3  C8  UNL     1      22.083   1.414  53.137  1.00  0.00     0.192 A 
HETATM    4  N2  UNL     1      20.755   1.868  52.821  1.00  0.00    -0.278 NA
HETATM    5  C9  UNL     1      20.326   2.384  51.742  1.00  0.00     0.229 A 
HETATM    6  N3  UNL     1      21.216   2.569  50.655  1.00  0.00    -0.224 NA
HETATM    7  C10 UNL     1      22.445   2.206  50.787  1.00  0.00     0.137 A 
ENDROOT
BRANCH   7   8
HETATM    8  N4  UNL     1      23.232   2.437  49.612  1.00  0.00    -0.341 N 
HETATM    9  H11 UNL     1      23.157   1.683  48.862  1.00  0.00     0.167 HD
BRANCH   8  10
HETATM   10  C11 UNL     1      24.083   3.545  49.365  1.00  0.00     0.033 A 
HETATM   11  C12 UNL     1      23.535   4.738  48.882  1.00  0.00     0.030 A 
HETATM   12  C13 UNL     1      24.334   5.830  48.625  1.00  0.00     0.010 A 
HETATM   13  C14 UNL     1      25.696   5.813  48.824  1.00  0.00    -0.051 A 
HETATM   14  C19 UNL     1      26.258   4.647  49.298  1.00  0.00     0.010 A 
HETATM   15  C20 UNL     1      25.433   3.574  49.545  1.00  0.00     0.030 A 
BRANCH  13  16
HETATM   16  C15 UNL     1      26.589   6.969  48.559  1.00  0.00    -0.024 C 
HETATM   17  C16 UNL     1      26.073   7.726  47.365  1.00  0.00     0.019 C 
HETATM   18  C17 UNL     1      26.628   7.908  49.731  1.00  0.00     0.019 C 
HETATM   19  C18 UNL     1      27.983   6.481  48.221  1.00  0.00     0.019 C 
ENDBRANCH  13  16
ENDBRANCH   8  10
ENDBRANCH   7   8
BRANCH   1  20
HETATM   20  C4  UNL     1      25.095   0.642  52.995  1.00  0.00     0.026 C 
HETATM   21  C5  UNL     1      24.939  -0.648  53.261  1.00  0.00     0.043 C 
BRANCH  20  22
HETATM   22  N1  UNL     1      26.087   1.290  53.766  1.00  0.00    -0.324 N 
HETATM   23  C3  UNL     1      27.232   1.787  53.056  1.00  0.00     0.244 C 
HETATM   24  O1  UNL     1      27.432   1.693  51.795  1.00  0.00    -0.268 OA
HETATM   25  H4  UNL     1      26.294   1.552  54.744  1.00  0.00     0.169 HD
BRANCH  23  26
HETATM   26  C2  UNL     1      28.400   2.496  53.624  1.00  0.00     0.064 C 
HETATM   27  C1  UNL     1      29.082   1.466  54.156  1.00  0.00     0.017 C 
ENDBRANCH  23  26
ENDBRANCH  20  22
ENDBRANCH   1  20
TORSDOF 6
ENDMDL
MODEL 7
REMARK VINA RESULT:      -7.3      1.395      1.975
REMARK  6 active torsions:
REMARK  status: ('A' for Active; 'I' for Inactive)
REMARK    1  A    between atoms: C2_2  and  C3_3 
REMARK       I    between atoms: C3_3  and  N1_5 
REMARK    2  A    between atoms: N1_5  and  C4_6 
REMARK    3  A    between atoms: C4_6  and  C6_8 
REMARK    4  A    between atoms: C10_14  and  N4_15 
REMARK    5  A    between atoms: N4_15  and  C11_16 
REMARK    6  A    between atoms: C14_19  and  C15_20 
ROOT
HETATM    1  C6  UNL     1      27.247   5.803  48.550  1.00  0.00     0.041 C 
HETATM    2  C7  UNL     1      26.298   6.418  49.236  1.00  0.00     0.010 A 
HETATM    3  C8  UNL     1      26.307   7.841  49.581  1.00  0.00     0.192 A 
HETATM    4  N2  UNL     1      25.146   8.188  50.354  1.00  0.00    -0.278 NA
HETATM    5  C9  UNL     1      24.188   7.443  50.731  1.00  0.00     0.229 A 
HETATM    6  N3  UNL     1      24.194   6.069  50.383  1.00  0.00    -0.224 NA
HETATM    7  C10 UNL     1      25.176   5.607  49.690  1.00  0.00     0.137 A 
ENDROOT
BRANCH   7   8
HETATM    8  N4  UNL     1      25.065   4.204  49.418  1.00  0.00    -0.341 N 
HETATM    9  H11 UNL     1      24.780   3.959  48.420  1.00  0.00     0.167 HD
BRANCH   8  10
HETATM   10  C11 UNL     1      25.291   3.141  50.330  1.00  0.00     0.033 A 
HETATM   11  C12 UNL     1      24.199   2.480  50.900  1.00  0.00     0.030 A 
HETATM   12  C13 UNL     1      24.383   1.449  51.794  1.00  0.00     0.010 A 
HETATM   13  C14 UNL     1      25.633   1.015  52.174  1.00  0.00    -0.051 A 
HETATM   14  C19 UNL     1      26.726   1.654  51.626  1.00  0.00     0.010 A 
HETATM   15  C20 UNL     1      26.508   2.680  50.737  1.00  0.00     0.030 A 
BRANCH  13  16
HETATM   16  C15 UNL     1      25.873  -0.092  53.134  1.00  0.00    -0.024 C 
HETATM   17  C16 UNL     1      24.548  -0.618  53.619  1.00  0.00     0.019 C 
HETATM   18  C17 UNL     1      26.620  -1.223  52.485  1.00  0.00     0.019 C 
HETATM   19  C18 UNL     1      26.627   0.422  54.342  1.00  0.00     0.019 C 
ENDBRANCH  13  16
ENDBRANCH   8  10
ENDBRANCH   7   8
BRANCH   1  20
HETATM   20  C4  UNL     1      28.484   6.296  47.980  1.00  0.00     0.026 C 
HETATM   21  C5  UNL     1      29.596   5.588  48.125  1.00  0.00     0.043 C 
BRANCH  20  22
HETATM   22  N1  UNL     1      28.642   7.507  47.267  1.00  0.00    -0.324 N 
HETATM   23  C3  UNL     1      29.306   8.578  47.956  1.00  0.00     0.244 C 
HETATM   24  O1  UNL     1      29.762   8.532  49.151  1.00  0.00    -0.268 OA
HETATM   25  H4  UNL     1      28.427   7.927  46.347  1.00  0.00     0.169 HD
BRANCH  23  26
HETATM   26  C2  UNL     1      29.594   9.935  47.438  1.00  0.00     0.064 C 
HETATM   27  C1  UNL     1      30.207  10.481  48.502  1.00  0.00     0.017 C 
ENDBRANCH  23  26
ENDBRANCH  20  22
ENDBRANCH   1  20
TORSDOF 6
ENDMDL
MODEL 8
REMARK VINA RESULT:      -7.2      4.749      8.486
REMARK  6 active torsions:
REMARK  status: ('A' for Active; 'I' for Inactive)
REMARK    1  A    between atoms: C2_2  and  C3_3 
REMARK       I    between atoms: C3_3  and  N1_5 
REMARK    2  A    between atoms: N1_5  and  C4_6 
REMARK    3  A    between atoms: C4_6  and  C6_8 
REMARK    4  A    between atoms: C10_14  and  N4_15 
REMARK    5  A    between atoms: N4_15  and  C11_16 
REMARK    6  A    between atoms: C14_19  and  C15_20 
ROOT
HETATM    1  C6  UNL     1      23.741   0.679  53.426  1.00  0.00     0.041 C 
HETATM    2  C7  UNL     1      25.019   0.554  53.737  1.00  0.00     0.010 A 
HETATM    3  C8  UNL     1      25.650  -0.687  54.192  1.00  0.00     0.192 A 
HETATM    4  N2  UNL     1      27.045  -0.480  54.474  1.00  0.00    -0.278 NA
HETATM    5  C9  UNL     1      27.729   0.586  54.368  1.00  0.00     0.229 A 
HETATM    6  N3  UNL     1      27.103   1.776  53.920  1.00  0.00    -0.224 NA
HETATM    7  C10 UNL     1      25.848   1.748  53.631  1.00  0.00     0.137 A 
ENDROOT
BRANCH   7   8
HETATM    8  N4  UNL     1      25.338   3.017  53.204  1.00  0.00    -0.341 N 
HETATM    9  H11 UNL     1      25.573   3.838  53.843  1.00  0.00     0.167 HD
BRANCH   8  10
HETATM   10  C11 UNL     1      24.566   3.274  52.041  1.00  0.00     0.033 A 
HETATM   11  C12 UNL     1      25.109   3.002  50.782  1.00  0.00     0.030 A 
HETATM   12  C13 UNL     1      24.390   3.246  49.633  1.00  0.00     0.010 A 
HETATM   13  C14 UNL     1      23.115   3.764  49.656  1.00  0.00    -0.051 A 
HETATM   14  C19 UNL     1      22.559   4.042  50.887  1.00  0.00     0.010 A 
HETATM   15  C20 UNL     1      23.304   3.786  52.014  1.00  0.00     0.030 A 
BRANCH  13  16
HETATM   16  C15 UNL     1      22.308   4.040  48.440  1.00  0.00    -0.024 C 
HETATM   17  C16 UNL     1      20.891   4.343  48.850  1.00  0.00     0.019 C 
HETATM   18  C17 UNL     1      22.844   5.224  47.687  1.00  0.00     0.019 C 
HETATM   19  C18 UNL     1      22.271   2.814  47.552  1.00  0.00     0.019 C 
ENDBRANCH  13  16
ENDBRANCH   8  10
ENDBRANCH   7   8
BRANCH   1  20
HETATM   20  C4  UNL     1      22.657  -0.283  53.441  1.00  0.00     0.026 C 
HETATM   21  C5  UNL     1      22.474  -1.041  54.514  1.00  0.00     0.043 C 
BRANCH  20  22
HETATM   22  N1  UNL     1      21.744  -0.518  52.387  1.00  0.00    -0.324 N 
HETATM   23  C3  UNL     1      20.708   0.459  52.202  1.00  0.00     0.244 C 
HETATM   24  O1  UNL     1      20.540   1.516  52.904  1.00  0.00    -0.268 OA
HETATM   25  H4  UNL     1      21.544  -1.206  51.642  1.00  0.00     0.169 HD
BRANCH  23  26
HETATM   26  C2  UNL     1      19.637   0.447  51.180  1.00  0.00     0.064 C 
HETATM   27  C1  UNL     1      20.305   0.927  50.116  1.00  0.00     0.017 C 
ENDBRANCH  23  26
ENDBRANCH  20  22
ENDBRANCH   1  20
TORSDOF 6
ENDMDL
MODEL 9
REMARK VINA RESULT:      -7.1      2.651      7.194
REMARK  6 active torsions:
REMARK  status: ('A' for Active; 'I' for Inactive)
REMARK    1  A    between atoms: C2_2  and  C3_3 
REMARK       I    between atoms: C3_3  and  N1_5 
REMARK    2  A    between atoms: N1_5  and  C4_6 
REMARK    3  A    between atoms: C4_6  and  C6_8 
REMARK    4  A    between atoms: C10_14  and  N4_15 
REMARK    5  A    between atoms: N4_15  and  C11_16 
REMARK    6  A    between atoms: C14_19  and  C15_20 
ROOT
HETATM    1  C6  UNL     1      24.757   1.919  52.175  1.00  0.00     0.041 C 
HETATM    2  C7  UNL     1      23.717   2.122  51.385  1.00  0.00     0.010 A 
HETATM    3  C8  UNL     1      22.810   1.074  50.913  1.00  0.00     0.192 A 
HETATM    4  N2  UNL     1      21.799   1.621  50.048  1.00  0.00    -0.278 NA
HETATM    5  C9  UNL     1      21.627   2.828  49.689  1.00  0.00     0.229 A 
HETATM    6  N3  UNL     1      22.512   3.830  50.161  1.00  0.00    -0.224 NA
HETATM    7  C10 UNL     1      23.475   3.490  50.946  1.00  0.00     0.137 A 
ENDROOT
BRANCH   7   8
HETATM    8  N4  UNL     1      24.300   4.593  51.338  1.00  0.00    -0.341 N 
HETATM    9  H11 UNL     1      24.228   4.869  52.366  1.00  0.00     0.167 HD
BRANCH   8  10
HETATM   10  C11 UNL     1      25.178   5.336  50.506  1.00  0.00     0.033 A 
HETATM   11  C12 UNL     1      26.047   4.658  49.645  1.00  0.00     0.030 A 
HETATM   12  C13 UNL     1      26.916   5.347  48.830  1.00  0.00     0.010 A 
HETATM   13  C14 UNL     1      26.981   6.722  48.814  1.00  0.00    -0.051 A 
HETATM   14  C19 UNL     1      26.134   7.412  49.656  1.00  0.00     0.010 A 
HETATM   15  C20 UNL     1      25.279   6.694  50.457  1.00  0.00     0.030 A 
BRANCH  13  16
HETATM   16  C15 UNL     1      27.903   7.501  47.949  1.00  0.00    -0.024 C 
HETATM   17  C16 UNL     1      29.064   6.627  47.555  1.00  0.00     0.019 C 
HETATM   18  C17 UNL     1      27.215   7.964  46.696  1.00  0.00     0.019 C 
HETATM   19  C18 UNL     1      28.463   8.681  48.718  1.00  0.00     0.019 C 
ENDBRANCH  13  16
ENDBRANCH   8  10
ENDBRANCH   7   8
BRANCH   1  20
HETATM   20  C4  UNL     1      25.283   0.704  52.766  1.00  0.00     0.026 C 
HETATM   21  C5  UNL     1      24.527   0.007  53.603  1.00  0.00     0.043 C 
BRANCH  20  22
HETATM   22  N1  UNL     1      26.574   0.169  52.546  1.00  0.00    -0.324 N 
HETATM   23  C3  UNL     1      27.610   0.599  53.442  1.00  0.00     0.244 C 
HETATM   24  O1  UNL     1      27.468   1.419  54.414  1.00  0.00    -0.268 OA
HETATM   25  H4  UNL     1      27.073  -0.476  51.911  1.00  0.00     0.169 HD
BRANCH  23  26
HETATM   26  C2  UNL     1      29.033   0.191  53.427  1.00  0.00     0.064 C 
HETATM   27  C1  UNL     1      28.907  -1.146  53.358  1.00  0.00     0.017 C 
ENDBRANCH  23  26
ENDBRANCH  20  22
ENDBRANCH   1  20
TORSDOF 6
ENDMDL
