MODEL 1
REMARK VINA RESULT:      -9.0      0.000      0.000
REMARK  7 active torsions:
REMARK  status: ('A' for Active; 'I' for Inactive)
REMARK    1  A    between atoms: C5_5  and  N1_6 
REMARK       I    between atoms: N1_6  and  C6_7 
REMARK    2  A    between atoms: C6_7  and  C7_9 
REMARK    3  A    between atoms: C14_17  and  N2_18 
REMARK    4  A    between atoms: N2_18  and  C15_19 
REMARK    5  A    between atoms: C15_19  and  C16_20 
REMARK    6  A    between atoms: C17_21  and  C18_22 
REMARK    7  A    between atoms: C22_27  and  N4_28 
ROOT
HETATM    1  C1  UNL     1      18.578  -0.032  51.677  1.00  0.00     0.050 C 
HETATM    2  C2  UNL     1      19.823   0.646  51.191  1.00  0.00    -0.035 A 
HETATM    3  C3  UNL     1      19.991   0.856  49.845  1.00  0.00     0.011 A 
HETATM    4  C4  UNL     1      21.144   1.480  49.432  1.00  0.00     0.030 A 
HETATM    5  C5  UNL     1      22.152   1.917  50.248  1.00  0.00     0.037 A 
HETATM    6  C13 UNL     1      21.934   1.683  51.587  1.00  0.00     0.059 A 
HETATM    7  C14 UNL     1      20.810   1.065  52.093  1.00  0.00     0.036 A 
ENDROOT
BRANCH   7   8
HETATM    8  N2  UNL     1      20.607   0.850  53.481  1.00  0.00    -0.386 N 
HETATM    9  H12 UNL     1      19.834   1.436  53.929  1.00  0.00     0.160 HD
BRANCH   8  10
HETATM   10  C15 UNL     1      21.207   0.005  54.461  1.00  0.00     0.147 C 
BRANCH  10  11
HETATM   11  C16 UNL     1      22.333  -0.833  53.966  1.00  0.00    -0.011 C 
HETATM   12  C17 UNL     1      23.642  -0.695  53.708  1.00  0.00    -0.017 C 
BRANCH  12  13
HETATM   13  C18 UNL     1      24.831   0.163  53.683  1.00  0.00     0.081 A 
HETATM   14  C19 UNL     1      25.289   0.610  52.333  1.00  0.00     0.045 A 
HETATM   15  C20 UNL     1      26.736   0.333  52.072  1.00  0.00    -0.006 A 
HETATM   16  C21 UNL     1      27.688  -0.224  52.797  1.00  0.00     0.114 A 
HETATM   17  N3  UNL     1      27.218  -0.640  54.089  1.00  0.00    -0.248 NA
HETATM   18  C22 UNL     1      25.979  -0.452  54.427  1.00  0.00     0.105 A 
BRANCH  18  19
HETATM   19  N4  UNL     1      25.589  -0.893  55.728  1.00  0.00    -0.387 N 
HETATM   20  H22 UNL     1      25.721  -1.025  56.745  1.00  0.00     0.157 HD
HETATM   21  H23 UNL     1      24.656  -1.358  55.776  1.00  0.00     0.157 HD
ENDBRANCH  18  19
ENDBRANCH  12  13
ENDBRANCH  10  11
ENDBRANCH   8  10
ENDBRANCH   7   8
BRANCH   5  22
HETATM   22  N1  UNL     1      23.338   2.558  49.840  1.00  0.00    -0.323 N 
HETATM   23  C6  UNL     1      23.708   3.899  49.932  1.00  0.00     0.256 C 
HETATM   24  O1  UNL     1      22.915   4.704  50.445  1.00  0.00    -0.267 OA
HETATM   25  H6  UNL     1      24.096   1.993  49.388  1.00  0.00     0.169 HD
BRANCH  23  26
HETATM   26  C7  UNL     1      24.962   4.475  49.480  1.00  0.00     0.032 A 
HETATM   27  C8  UNL     1      25.003   5.786  49.055  1.00  0.00     0.018 A 
HETATM   28  C9  UNL     1      26.189   6.384  48.611  1.00  0.00     0.025 A 
HETATM   29  C10 UNL     1      27.367   5.668  48.584  1.00  0.00     0.034 A 
HETATM   30 CL1  UNL     1      28.817   6.469  48.018  1.00  0.00    -0.084 Cl
HETATM   31  C11 UNL     1      27.350   4.355  49.004  1.00  0.00     0.025 A 
HETATM   32  C12 UNL     1      26.172   3.817  49.428  1.00  0.00     0.018 A 
ENDBRANCH  23  26
ENDBRANCH   5  22
TORSDOF 7
ENDMDL
MODEL 2
REMARK VINA RESULT:      -8.8      1.693      2.341
REMARK  7 active torsions:
REMARK  status: ('A' for Active; 'I' for Inactive)
REMARK    1  A    between atoms: C5_5  and  N1_6 
REMARK       I    between atoms: N1_6  and  C6_7 
REMARK    2  A    between atoms: C6_7  and  C7_9 
REMARK    3  A    between atoms: C14_17  and  N2_18 
REMARK    4  A    between atoms: N2_18  and  C15_19 
REMARK    5  A    between atoms: C15_19  and  C16_20 
REMARK    6  A    between atoms: C17_21  and  C18_22 
REMARK    7  A    between atoms: C22_27  and  N4_28 
ROOT
HETATM    1  C1  UNL     1      20.546   0.602  50.810  1.00  0.00     0.050 C 
HETATM    2  C2  UNL     1      21.766   1.377  50.410  1.00  0.00    -0.035 A 
HETATM    3  C3  UNL     1      21.815   1.955  49.166  1.00  0.00     0.011 A 
HETATM    4  C4  UNL     1      22.948   2.658  48.830  1.00  0.00     0.030 A 
HETATM    5  C5  UNL     1      24.044   2.836  49.630  1.00  0.00     0.037 A 
HETATM    6  C13 UNL     1      23.943   2.237  50.865  1.00  0.00     0.059 A 
HETATM    7  C14 UNL     1      22.848   1.514  51.289  1.00  0.00     0.036 A 
ENDROOT
BRANCH   7   8
HETATM    8  N2  UNL     1      22.768   0.919  52.574  1.00  0.00    -0.386 N 
HETATM    9  H12 UNL     1      22.461   1.569  53.364  1.00  0.00     0.160 HD
BRANCH   8  10
HETATM   10  C15 UNL     1      23.004  -0.391  53.087  1.00  0.00     0.147 C 
BRANCH  10  11
HETATM   11  C16 UNL     1      24.170  -0.508  54.005  1.00  0.00    -0.011 C 
HETATM   12  C17 UNL     1      25.486  -0.250  53.986  1.00  0.00    -0.017 C 
BRANCH  12  13
HETATM   13  C18 UNL     1      26.656   0.243  53.251  1.00  0.00     0.081 A 
HETATM   14  C19 UNL     1      27.788  -0.718  53.101  1.00  0.00     0.045 A 
HETATM   15  C20 UNL     1      29.106  -0.162  53.543  1.00  0.00    -0.006 A 
HETATM   16  C21 UNL     1      29.465   1.008  54.037  1.00  0.00     0.114 A 
HETATM   17  N3  UNL     1      28.355   1.911  54.167  1.00  0.00    -0.248 NA
HETATM   18  C22 UNL     1      27.163   1.538  53.816  1.00  0.00     0.105 A 
BRANCH  18  19
HETATM   19  N4  UNL     1      26.113   2.491  53.976  1.00  0.00    -0.387 N 
HETATM   20  H22 UNL     1      25.144   2.836  53.869  1.00  0.00     0.157 HD
HETATM   21  H23 UNL     1      26.385   3.371  54.466  1.00  0.00     0.157 HD
ENDBRANCH  18  19
ENDBRANCH  12  13
ENDBRANCH  10  11
ENDBRANCH   8  10
ENDBRANCH   7   8
BRANCH   5  22
HETATM   22  N1  UNL     1      25.210   3.553  49.300  1.00  0.00    -0.323 N 
HETATM   23  C6  UNL     1      25.424   4.928  49.224  1.00  0.00     0.256 C 
HETATM   24  O1  UNL     1      24.481   5.695  49.476  1.00  0.00    -0.267 OA
HETATM   25  H6  UNL     1      26.085   3.027  49.063  1.00  0.00     0.169 HD
BRANCH  23  26
HETATM   26  C7  UNL     1      26.671   5.583  48.871  1.00  0.00     0.032 A 
HETATM   27  C8  UNL     1      26.730   6.960  48.802  1.00  0.00     0.018 A 
HETATM   28  C9  UNL     1      27.910   7.635  48.466  1.00  0.00     0.025 A 
HETATM   29  C10 UNL     1      29.064   6.933  48.191  1.00  0.00     0.034 A 
HETATM   30 CL1  UNL     1      30.509   7.831  47.777  1.00  0.00    -0.084 Cl
HETATM   31  C11 UNL     1      29.030   5.556  48.254  1.00  0.00     0.025 A 
HETATM   32  C12 UNL     1      27.858   4.944  48.585  1.00  0.00     0.018 A 
ENDBRANCH  23  26
ENDBRANCH   5  22
TORSDOF 7
ENDMDL
MODEL 3
REMARK VINA RESULT:      -8.7      1.960      2.696
REMARK  7 active torsions:
REMARK  status: ('A' for Active; 'I' for Inactive)
REMARK    1  A    between atoms: C5_5  and  N1_6 
REMARK       I    between atoms: N1_6  and  C6_7 
REMARK    2  A    between atoms: C6_7  and  C7_9 
REMARK    3  A    between atoms: C14_17  and  N2_18 
REMARK    4  A    between atoms: N2_18  and  C15_19 
REMARK    5  A    between atoms: C15_19  and  C16_20 
REMARK    6  A    between atoms: C17_21  and  C18_22 
REMARK    7  A    between atoms: C22_27  and  N4_28 
ROOT
HETATM    1  C1  UNL     1      20.327   2.750  52.631  1.00  0.00     0.050 C 
HETATM    2  C2  UNL     1      21.616   3.255  52.055  1.00  0.00    -0.035 A 
HETATM    3  C3  UNL     1      21.951   4.577  52.218  1.00  0.00     0.011 A 
HETATM    4  C4  UNL     1      23.140   5.009  51.678  1.00  0.00     0.030 A 
HETATM    5  C5  UNL     1      24.030   4.234  50.985  1.00  0.00     0.037 A 
HETATM    6  C13 UNL     1      23.647   2.918  50.851  1.00  0.00     0.059 A 
HETATM    7  C14 UNL     1      22.476   2.396  51.358  1.00  0.00     0.036 A 
ENDROOT
BRANCH   7   8
HETATM    8  N2  UNL     1      22.115   1.032  51.216  1.00  0.00    -0.386 N 
HETATM    9  H12 UNL     1      21.652   0.772  50.289  1.00  0.00     0.160 HD
BRANCH   8  10
HETATM   10  C15 UNL     1      22.227  -0.125  52.045  1.00  0.00     0.147 C 
BRANCH  10  11
HETATM   11  C16 UNL     1      23.160   0.013  53.196  1.00  0.00    -0.011 C 
HETATM   12  C17 UNL     1      24.469   0.221  53.402  1.00  0.00    -0.017 C 
BRANCH  12  13
HETATM   13  C18 UNL     1      25.806   0.440  52.841  1.00  0.00     0.081 A 
HETATM   14  C19 UNL     1      26.666  -0.773  52.702  1.00  0.00     0.045 A 
HETATM   15  C20 UNL     1      28.017  -0.623  53.327  1.00  0.00    -0.006 A 
HETATM   16  C21 UNL     1      28.600   0.369  53.974  1.00  0.00     0.114 A 
HETATM   17  N3  UNL     1      27.751   1.522  54.088  1.00  0.00    -0.248 NA
HETATM   18  C22 UNL     1      26.555   1.506  53.585  1.00  0.00     0.105 A 
BRANCH  18  19
HETATM   19  N4  UNL     1      25.772   2.690  53.740  1.00  0.00    -0.387 N 
HETATM   20  H22 UNL     1      25.606   3.664  54.047  1.00  0.00     0.157 HD
HETATM   21  H23 UNL     1      24.801   2.630  53.361  1.00  0.00     0.157 HD
ENDBRANCH  18  19
ENDBRANCH  12  13
ENDBRANCH  10  11
ENDBRANCH   8  10
ENDBRANCH   7   8
BRANCH   5  22
HETATM   22  N1  UNL     1      25.251   4.661  50.427  1.00  0.00    -0.323 N 
HETATM   23  C6  UNL     1      25.502   5.340  49.236  1.00  0.00     0.256 C 
HETATM   24  O1  UNL     1      24.544   5.646  48.508  1.00  0.00    -0.267 OA
HETATM   25  H6  UNL     1      26.143   4.466  50.939  1.00  0.00     0.169 HD
BRANCH  23  26
HETATM   26  C7  UNL     1      26.805   5.742  48.737  1.00  0.00     0.032 A 
HETATM   27  C8  UNL     1      27.022   7.048  48.350  1.00  0.00     0.018 A 
HETATM   28  C9  UNL     1      28.261   7.480  47.863  1.00  0.00     0.025 A 
HETATM   29  C10 UNL     1      29.317   6.600  47.756  1.00  0.00     0.034 A 
HETATM   30 CL1  UNL     1      30.842   7.199  47.140  1.00  0.00    -0.084 Cl
HETATM   31  C11 UNL     1      29.124   5.289  48.137  1.00  0.00     0.025 A 
HETATM   32  C12 UNL     1      27.900   4.915  48.604  1.00  0.00     0.018 A 
ENDBRANCH  23  26
ENDBRANCH   5  22
TORSDOF 7
ENDMDL
MODEL 4
REMARK VINA RESULT:      -8.6      3.552      6.865
REMARK  7 active torsions:
REMARK  status: ('A' for Active; 'I' for Inactive)
REMARK    1  A    between atoms: C5_5  and  N1_6 
REMARK       I    between atoms: N1_6  and  C6_7 
REMARK    2  A    between atoms: C6_7  and  C7_9 
REMARK    3  A    between atoms: C14_17  and  N2_18 
REMARK    4  A    between atoms: N2_18  and  C15_19 
REMARK    5  A    between atoms: C15_19  and  C16_20 
REMARK    6  A    between atoms: C17_21  and  C18_22 
REMARK    7  A    between atoms: C22_27  and  N4_28 
ROOT
HETATM    1  C1  UNL     1      25.992   4.417  49.510  1.00  0.00     0.050 C 
HETATM    2  C2  UNL     1      24.793   3.561  49.788  1.00  0.00    -0.035 A 
HETATM    3  C3  UNL     1      23.796   3.478  48.847  1.00  0.00     0.011 A 
HETATM    4  C4  UNL     1      22.709   2.685  49.133  1.00  0.00     0.030 A 
HETATM    5  C5  UNL     1      22.527   1.964  50.282  1.00  0.00     0.037 A 
HETATM    6  C13 UNL     1      23.555   2.083  51.191  1.00  0.00     0.059 A 
HETATM    7  C14 UNL     1      24.681   2.852  50.991  1.00  0.00     0.036 A 
ENDROOT
BRANCH   7   8
HETATM    8  N2  UNL     1      25.730   2.944  51.941  1.00  0.00    -0.386 N 
HETATM    9  H12 UNL     1      25.827   3.888  52.431  1.00  0.00     0.160 HD
BRANCH   8  10
HETATM   10  C15 UNL     1      26.726   2.042  52.423  1.00  0.00     0.147 C 
BRANCH  10  11
HETATM   11  C16 UNL     1      26.459   1.469  53.770  1.00  0.00    -0.011 C 
HETATM   12  C17 UNL     1      25.783   0.440  54.302  1.00  0.00    -0.017 C 
BRANCH  12  13
HETATM   13  C18 UNL     1      24.928  -0.735  54.101  1.00  0.00     0.081 A 
HETATM   14  C19 UNL     1      23.888  -0.616  53.036  1.00  0.00     0.045 A 
HETATM   15  C20 UNL     1      22.510  -0.961  53.506  1.00  0.00    -0.006 A 
HETATM   16  C21 UNL     1      22.032  -1.352  54.673  1.00  0.00     0.114 A 
HETATM   17  N3  UNL     1      23.056  -1.460  55.675  1.00  0.00    -0.248 NA
HETATM   18  C22 UNL     1      24.289  -1.184  55.383  1.00  0.00     0.105 A 
BRANCH  18  19
HETATM   19  N4  UNL     1      25.249  -1.316  56.432  1.00  0.00    -0.387 N 
HETATM   20  H22 UNL     1      25.572  -1.249  57.413  1.00  0.00     0.157 HD
HETATM   21  H23 UNL     1      26.183  -1.673  56.135  1.00  0.00     0.157 HD
ENDBRANCH  18  19
ENDBRANCH  12  13
ENDBRANCH  10  11
ENDBRANCH   8  10
ENDBRANCH   7   8
BRANCH   5  22
HETATM   22  N1  UNL     1      21.421   1.147  50.589  1.00  0.00    -0.323 N 
HETATM   23  C6  UNL     1      20.204   1.474  51.185  1.00  0.00     0.256 C 
HETATM   24  O1  UNL     1      20.000   2.652  51.520  1.00  0.00    -0.267 OA
HETATM   25  H6  UNL     1      21.459   0.126  50.359  1.00  0.00     0.169 HD
BRANCH  23  26
HETATM   26  C7  UNL     1      19.114   0.558  51.465  1.00  0.00     0.032 A 
HETATM   27  C8  UNL     1      19.117  -0.181  52.629  1.00  0.00     0.018 A 
HETATM   28  C9  UNL     1      18.087  -1.077  52.942  1.00  0.00     0.025 A 
HETATM   29  C10 UNL     1      17.023  -1.247  52.082  1.00  0.00     0.034 A 
HETATM   30 CL1  UNL     1      15.765  -2.380  52.526  1.00  0.00    -0.084 Cl
HETATM   31  C11 UNL     1      16.996  -0.518  50.912  1.00  0.00     0.025 A 
HETATM   32  C12 UNL     1      18.023   0.341  50.651  1.00  0.00     0.018 A 
ENDBRANCH  23  26
ENDBRANCH   5  22
TORSDOF 7
ENDMDL
MODEL 5
REMARK VINA RESULT:      -8.3      2.233      5.215
REMARK  7 active torsions:
REMARK  status: ('A' for Active; 'I' for Inactive)
REMARK    1  A    between atoms: C5_5  and  N1_6 
REMARK       I    between atoms: N1_6  and  C6_7 
REMARK    2  A    between atoms: C6_7  and  C7_9 
REMARK    3  A    between atoms: C14_17  and  N2_18 
REMARK    4  A    between atoms: N2_18  and  C15_19 
REMARK    5  A    between atoms: C15_19  and  C16_20 
REMARK    6  A    between atoms: C17_21  and  C18_22 
REMARK    7  A    between atoms: C22_27  and  N4_28 
ROOT
HETATM    1  C1  UNL     1      23.424  -0.638  53.945  1.00  0.00     0.050 C 
HETATM    2  C2  UNL     1      23.994   0.512  53.170  1.00  0.00    -0.035 A 
HETATM    3  C3  UNL     1      25.357   0.642  53.070  1.00  0.00     0.011 A 
HETATM    4  C4  UNL     1      25.848   1.708  52.353  1.00  0.00     0.030 A 
HETATM    5  C5  UNL     1      25.095   2.662  51.723  1.00  0.00     0.037 A 
HETATM    6  C13 UNL     1      23.736   2.484  51.855  1.00  0.00     0.059 A 
HETATM    7  C14 UNL     1      23.154   1.448  52.553  1.00  0.00     0.036 A 
ENDROOT
BRANCH   7   8
HETATM    8  N2  UNL     1      21.749   1.283  52.659  1.00  0.00    -0.386 N 
HETATM    9  H12 UNL     1      21.365   1.232  53.655  1.00  0.00     0.160 HD
BRANCH   8  10
HETATM   10  C15 UNL     1      20.681   1.167  51.720  1.00  0.00     0.147 C 
BRANCH  10  11
HETATM   11  C16 UNL     1      21.045   0.525  50.428  1.00  0.00    -0.011 C 
HETATM   12  C17 UNL     1      21.379   0.901  49.185  1.00  0.00    -0.017 C 
BRANCH  12  13
HETATM   13  C18 UNL     1      21.624   1.984  48.226  1.00  0.00     0.081 A 
HETATM   14  C19 UNL     1      22.935   2.687  48.352  1.00  0.00     0.045 A 
HETATM   15  C20 UNL     1      22.809   4.175  48.447  1.00  0.00    -0.006 A 
HETATM   16  C21 UNL     1      21.769   4.989  48.439  1.00  0.00     0.114 A 
HETATM   17  N3  UNL     1      20.524   4.285  48.315  1.00  0.00    -0.248 NA
HETATM   18  C22 UNL     1      20.510   2.990  48.226  1.00  0.00     0.105 A 
BRANCH  18  19
HETATM   19  N4  UNL     1      19.233   2.363  48.105  1.00  0.00    -0.387 N 
HETATM   20  H22 UNL     1      18.601   1.567  47.914  1.00  0.00     0.157 HD
HETATM   21  H23 UNL     1      18.416   2.982  48.298  1.00  0.00     0.157 HD
ENDBRANCH  18  19
ENDBRANCH  12  13
ENDBRANCH  10  11
ENDBRANCH   8  10
ENDBRANCH   7   8
BRANCH   5  22
HETATM   22  N1  UNL     1      25.583   3.758  50.985  1.00  0.00    -0.323 N 
HETATM   23  C6  UNL     1      26.349   3.783  49.821  1.00  0.00     0.256 C 
HETATM   24  O1  UNL     1      26.686   2.707  49.303  1.00  0.00    -0.267 OA
HETATM   25  H6  UNL     1      25.372   4.730  51.313  1.00  0.00     0.169 HD
BRANCH  23  26
HETATM   26  C7  UNL     1      26.812   4.971  49.126  1.00  0.00     0.032 A 
HETATM   27  C8  UNL     1      28.089   5.011  48.607  1.00  0.00     0.018 A 
HETATM   28  C9  UNL     1      28.578   6.134  47.928  1.00  0.00     0.025 A 
HETATM   29  C10 UNL     1      27.784   7.248  47.756  1.00  0.00     0.034 A 
HETATM   30 CL1  UNL     1      28.450   8.623  46.899  1.00  0.00    -0.084 Cl
HETATM   31  C11 UNL     1      26.503   7.231  48.265  1.00  0.00     0.025 A 
HETATM   32  C12 UNL     1      26.072   6.115  48.919  1.00  0.00     0.018 A 
ENDBRANCH  23  26
ENDBRANCH   5  22
TORSDOF 7
ENDMDL
MODEL 6
REMARK VINA RESULT:      -8.3      2.971      6.049
REMARK  7 active torsions:
REMARK  status: ('A' for Active; 'I' for Inactive)
REMARK    1  A    between atoms: C5_5  and  N1_6 
REMARK       I    between atoms: N1_6  and  C6_7 
REMARK    2  A    between atoms: C6_7  and  C7_9 
REMARK    3  A    between atoms: C14_17  and  N2_18 
REMARK    4  A    between atoms: N2_18  and  C15_19 
REMARK    5  A    between atoms: C15_19  and  C16_20 
REMARK    6  A    between atoms: C17_21  and  C18_22 
REMARK    7  A    between atoms: C22_27  and  N4_28 
ROOT
HETATM    1  C1  UNL     1      17.623   0.166  51.966  1.00  0.00     0.050 C 
HETATM    2  C2  UNL     1      19.087  -0.035  52.219  1.00  0.00    -0.035 A 
HETATM    3  C3  UNL     1      19.492  -0.599  53.403  1.00  0.00     0.011 A 
HETATM    4  C4  UNL     1      20.842  -0.769  53.604  1.00  0.00     0.030 A 
HETATM    5  C5  UNL     1      21.830  -0.422  52.723  1.00  0.00     0.037 A 
HETATM    6  C13 UNL     1      21.371   0.138  51.553  1.00  0.00     0.059 A 
HETATM    7  C14 UNL     1      20.039   0.347  51.264  1.00  0.00     0.036 A 
ENDROOT
BRANCH   7   8
HETATM    8  N2  UNL     1      19.595   0.915  50.042  1.00  0.00    -0.386 N 
HETATM    9  H12 UNL     1      18.816   0.381  49.543  1.00  0.00     0.160 HD
BRANCH   8  10
HETATM   10  C15 UNL     1      19.949   2.075  49.290  1.00  0.00     0.147 C 
BRANCH  10  11
HETATM   11  C16 UNL     1      21.115   1.904  48.381  1.00  0.00    -0.011 C 
HETATM   12  C17 UNL     1      22.376   2.349  48.279  1.00  0.00    -0.017 C 
BRANCH  12  13
HETATM   13  C18 UNL     1      23.460   3.178  48.817  1.00  0.00     0.081 A 
HETATM   14  C19 UNL     1      23.923   2.838  50.195  1.00  0.00     0.045 A 
HETATM   15  C20 UNL     1      23.939   4.010  51.126  1.00  0.00    -0.006 A 
HETATM   16  C21 UNL     1      23.628   5.283  50.970  1.00  0.00     0.114 A 
HETATM   17  N3  UNL     1      23.189   5.579  49.635  1.00  0.00    -0.248 NA
HETATM   18  C22 UNL     1      23.132   4.641  48.741  1.00  0.00     0.105 A 
BRANCH  18  19
HETATM   19  N4  UNL     1      22.686   5.014  47.437  1.00  0.00    -0.387 N 
HETATM   20  H22 UNL     1      21.996   5.377  46.757  1.00  0.00     0.157 HD
HETATM   21  H23 UNL     1      23.384   4.875  46.674  1.00  0.00     0.157 HD
ENDBRANCH  18  19
ENDBRANCH  12  13
ENDBRANCH  10  11
ENDBRANCH   8  10
ENDBRANCH   7   8
BRANCH   5  22
HETATM   22  N1  UNL     1      23.216  -0.591  52.915  1.00  0.00    -0.323 N 
HETATM   23  C6  UNL     1      24.192   0.342  53.258  1.00  0.00     0.256 C 
HETATM   24  O1  UNL     1      23.854   1.523  53.439  1.00  0.00    -0.267 OA
HETATM   25  H6  UNL     1      23.637  -1.542  52.793  1.00  0.00     0.169 HD
BRANCH  23  26
HETATM   26  C7  UNL     1      25.608   0.076  53.434  1.00  0.00     0.032 A 
HETATM   27  C8  UNL     1      26.207  -0.952  52.736  1.00  0.00     0.018 A 
HETATM   28  C9  UNL     1      27.569  -1.246  52.873  1.00  0.00     0.025 A 
HETATM   29  C10 UNL     1      28.363  -0.504  53.722  1.00  0.00     0.034 A 
HETATM   30 CL1  UNL     1      30.060  -0.918  53.852  1.00  0.00    -0.084 Cl
HETATM   31  C11 UNL     1      27.787   0.529  54.431  1.00  0.00     0.025 A 
HETATM   32  C12 UNL     1      26.457   0.776  54.264  1.00  0.00     0.018 A 
ENDBRANCH  23  26
ENDBRANCH   5  22
TORSDOF 7
ENDMDL
MODEL 7
REMARK VINA RESULT:      -8.3      1.745      2.588
REMARK  7 active torsions:
REMARK  status: ('A' for Active; 'I' for Inactive)
REMARK    1  A    between atoms: C5_5  and  N1_6 
REMARK       I    between atoms: N1_6  and  C6_7 
REMARK    2  A    between atoms: C6_7  and  C7_9 
REMARK    3  A    between atoms: C14_17  and  N2_18 
REMARK    4  A    between atoms: N2_18  and  C15_19 
REMARK    5  A    between atoms: C15_19  and  C16_20 
REMARK    6  A    between atoms: C17_21  and  C18_22 
REMARK    7  A    between atoms: C22_27  and  N4_28 
ROOT
HETATM    1  C1  UNL     1      20.739  -0.806  53.389  1.00  0.00     0.050 C 
HETATM    2  C2  UNL     1      21.668   0.223  52.817  1.00  0.00    -0.035 A 
HETATM    3  C3  UNL     1      21.147   1.272  52.101  1.00  0.00     0.011 A 
HETATM    4  C4  UNL     1      22.026   2.198  51.589  1.00  0.00     0.030 A 
HETATM    5  C5  UNL     1      23.387   2.169  51.729  1.00  0.00     0.037 A 
HETATM    6  C13 UNL     1      23.856   1.098  52.456  1.00  0.00     0.059 A 
HETATM    7  C14 UNL     1      23.052   0.123  53.006  1.00  0.00     0.036 A 
ENDROOT
BRANCH   7   8
HETATM    8  N2  UNL     1      23.565  -0.963  53.762  1.00  0.00    -0.386 N 
HETATM    9  H12 UNL     1      23.721  -1.869  53.218  1.00  0.00     0.160 HD
BRANCH   8  10
HETATM   10  C15 UNL     1      23.940  -1.144  55.127  1.00  0.00     0.147 C 
BRANCH  10  11
HETATM   11  C16 UNL     1      25.194  -0.454  55.532  1.00  0.00    -0.011 C 
HETATM   12  C17 UNL     1      26.360  -0.094  54.975  1.00  0.00    -0.017 C 
BRANCH  12  13
HETATM   13  C18 UNL     1      27.226  -0.058  53.792  1.00  0.00     0.081 A 
HETATM   14  C19 UNL     1      27.997  -1.304  53.505  1.00  0.00     0.045 A 
HETATM   15  C20 UNL     1      29.465  -1.070  53.327  1.00  0.00    -0.006 A 
HETATM   16  C21 UNL     1      30.211   0.018  53.371  1.00  0.00     0.114 A 
HETATM   17  N3  UNL     1      29.442   1.199  53.644  1.00  0.00    -0.248 NA
HETATM   18  C22 UNL     1      28.158   1.118  53.819  1.00  0.00     0.105 A 
BRANCH  18  19
HETATM   19  N4  UNL     1      27.463   2.336  54.088  1.00  0.00    -0.387 N 
HETATM   20  H22 UNL     1      26.623   2.903  54.294  1.00  0.00     0.157 HD
HETATM   21  H23 UNL     1      28.060   3.192  54.101  1.00  0.00     0.157 HD
ENDBRANCH  18  19
ENDBRANCH  12  13
ENDBRANCH  10  11
ENDBRANCH   8  10
ENDBRANCH   7   8
BRANCH   5  22
HETATM   22  N1  UNL     1      24.299   3.110  51.212  1.00  0.00    -0.323 N 
HETATM   23  C6  UNL     1      24.600   3.433  49.890  1.00  0.00     0.256 C 
HETATM   24  O1  UNL     1      24.005   2.836  48.979  1.00  0.00    -0.267 OA
HETATM   25  H6  UNL     1      24.871   3.686  51.875  1.00  0.00     0.169 HD
BRANCH  23  26
HETATM   26  C7  UNL     1      25.564   4.424  49.448  1.00  0.00     0.032 A 
HETATM   27  C8  UNL     1      26.843   4.037  49.109  1.00  0.00     0.018 A 
HETATM   28  C9  UNL     1      27.806   4.957  48.677  1.00  0.00     0.025 A 
HETATM   29  C10 UNL     1      27.498   6.297  48.577  1.00  0.00     0.034 A 
HETATM   30 CL1  UNL     1      28.744   7.400  48.031  1.00  0.00    -0.084 Cl
HETATM   31  C11 UNL     1      26.225   6.708  48.910  1.00  0.00     0.025 A 
HETATM   32  C12 UNL     1      25.323   5.775  49.326  1.00  0.00     0.018 A 
ENDBRANCH  23  26
ENDBRANCH   5  22
TORSDOF 7
ENDMDL
MODEL 8
REMARK VINA RESULT:      -8.2      2.943      5.233
REMARK  7 active torsions:
REMARK  status: ('A' for Active; 'I' for Inactive)
REMARK    1  A    between atoms: C5_5  and  N1_6 
REMARK       I    between atoms: N1_6  and  C6_7 
REMARK    2  A    between atoms: C6_7  and  C7_9 
REMARK    3  A    between atoms: C14_17  and  N2_18 
REMARK    4  A    between atoms: N2_18  and  C15_19 
REMARK    5  A    between atoms: C15_19  and  C16_20 
REMARK    6  A    between atoms: C17_21  and  C18_22 
REMARK    7  A    between atoms: C22_27  and  N4_28 
ROOT
HETATM    1  C1  UNL     1      20.429   5.434  48.710  1.00  0.00     0.050 C 
HETATM    2  C2  UNL     1      21.576   4.631  49.245  1.00  0.00    -0.035 A 
HETATM    3  C3  UNL     1      22.769   5.258  49.506  1.00  0.00     0.011 A 
HETATM    4  C4  UNL     1      23.802   4.493  49.995  1.00  0.00     0.030 A 
HETATM    5  C5  UNL     1      23.749   3.149  50.249  1.00  0.00     0.037 A 
HETATM    6  C13 UNL     1      22.531   2.570  49.971  1.00  0.00     0.059 A 
HETATM    7  C14 UNL     1      21.442   3.256  49.479  1.00  0.00     0.036 A 
ENDROOT
BRANCH   7   8
HETATM    8  N2  UNL     1      20.194   2.635  49.215  1.00  0.00    -0.386 N 
HETATM    9  H12 UNL     1      19.909   2.593  48.186  1.00  0.00     0.160 HD
BRANCH   8  10
HETATM   10  C15 UNL     1      19.189   2.025  50.024  1.00  0.00     0.147 C 
BRANCH  10  11
HETATM   11  C16 UNL     1      19.531   0.672  50.540  1.00  0.00    -0.011 C 
HETATM   12  C17 UNL     1      20.075   0.131  51.640  1.00  0.00    -0.017 C 
BRANCH  12  13
HETATM   13  C18 UNL     1      20.666   0.321  52.970  1.00  0.00     0.081 A 
HETATM   14  C19 UNL     1      22.128   0.621  53.000  1.00  0.00     0.045 A 
HETATM   15  C20 UNL     1      22.905  -0.283  53.906  1.00  0.00    -0.006 A 
HETATM   16  C21 UNL     1      22.553  -1.290  54.683  1.00  0.00     0.114 A 
HETATM   17  N3  UNL     1      21.142  -1.552  54.635  1.00  0.00    -0.248 NA
HETATM   18  C22 UNL     1      20.368  -0.832  53.882  1.00  0.00     0.105 A 
BRANCH  18  19
HETATM   19  N4  UNL     1      18.977  -1.154  53.888  1.00  0.00    -0.387 N 
HETATM   20  H22 UNL     1      18.008  -1.103  53.531  1.00  0.00     0.157 HD
HETATM   21  H23 UNL     1      18.676  -1.802  54.649  1.00  0.00     0.157 HD
ENDBRANCH  18  19
ENDBRANCH  12  13
ENDBRANCH  10  11
ENDBRANCH   8  10
ENDBRANCH   7   8
BRANCH   5  22
HETATM   22  N1  UNL     1      24.798   2.352  50.751  1.00  0.00    -0.323 N 
HETATM   23  C6  UNL     1      25.313   2.261  52.042  1.00  0.00     0.256 C 
HETATM   24  O1  UNL     1      24.815   2.963  52.936  1.00  0.00    -0.267 OA
HETATM   25  H6  UNL     1      25.309   1.710  50.100  1.00  0.00     0.169 HD
BRANCH  23  26
HETATM   26  C7  UNL     1      26.406   1.406  52.470  1.00  0.00     0.032 A 
HETATM   27  C8  UNL     1      27.535   1.961  53.033  1.00  0.00     0.018 A 
HETATM   28  C9  UNL     1      28.613   1.177  53.460  1.00  0.00     0.025 A 
HETATM   29  C10 UNL     1      28.575  -0.195  53.330  1.00  0.00     0.034 A 
HETATM   30 CL1  UNL     1      29.953  -1.124  53.882  1.00  0.00    -0.084 Cl
HETATM   31  C11 UNL     1      27.456  -0.774  52.770  1.00  0.00     0.025 A 
HETATM   32  C12 UNL     1      26.432   0.031  52.368  1.00  0.00     0.018 A 
ENDBRANCH  23  26
ENDBRANCH   5  22
TORSDOF 7
ENDMDL
MODEL 9
REMARK VINA RESULT:      -8.2      1.954      3.481
REMARK  7 active torsions:
REMARK  status: ('A' for Active; 'I' for Inactive)
REMARK    1  A    between atoms: C5_5  and  N1_6 
REMARK       I    between atoms: N1_6  and  C6_7 
REMARK    2  A    between atoms: C6_7  and  C7_9 
REMARK    3  A    between atoms: C14_17  and  N2_18 
REMARK    4  A    between atoms: N2_18  and  C15_19 
REMARK    5  A    between atoms: C15_19  and  C16_20 
REMARK    6  A    between atoms: C17_21  and  C18_22 
REMARK    7  A    between atoms: C22_27  and  N4_28 
ROOT
HETATM    1  C1  UNL     1      20.326   3.643  51.959  1.00  0.00     0.050 C 
HETATM    2  C2  UNL     1      21.669   3.993  51.392  1.00  0.00    -0.035 A 
HETATM    3  C3  UNL     1      22.434   4.944  52.021  1.00  0.00     0.011 A 
HETATM    4  C4  UNL     1      23.661   5.243  51.475  1.00  0.00     0.030 A 
HETATM    5  C5  UNL     1      24.194   4.674  50.350  1.00  0.00     0.037 A 
HETATM    6  C13 UNL     1      23.387   3.728  49.760  1.00  0.00     0.059 A 
HETATM    7  C14 UNL     1      22.145   3.364  50.235  1.00  0.00     0.036 A 
ENDROOT
BRANCH   7   8
HETATM    8  N2  UNL     1      21.342   2.374  49.612  1.00  0.00    -0.386 N 
HETATM    9  H12 UNL     1      20.500   2.741  49.066  1.00  0.00     0.160 HD
BRANCH   8  10
HETATM   10  C15 UNL     1      21.389   0.950  49.534  1.00  0.00     0.147 C 
BRANCH  10  11
HETATM   11  C16 UNL     1      21.175   0.240  50.824  1.00  0.00    -0.011 C 
HETATM   12  C17 UNL     1      21.738   0.186  52.040  1.00  0.00    -0.017 C 
BRANCH  12  13
HETATM   13  C18 UNL     1      22.787   0.645  52.956  1.00  0.00     0.081 A 
HETATM   14  C19 UNL     1      24.059   1.103  52.322  1.00  0.00     0.045 A 
HETATM   15  C20 UNL     1      25.278   0.441  52.883  1.00  0.00    -0.006 A 
HETATM   16  C21 UNL     1      25.453  -0.463  53.828  1.00  0.00     0.114 A 
HETATM   17  N3  UNL     1      24.213  -0.881  54.421  1.00  0.00    -0.248 NA
HETATM   18  C22 UNL     1      23.090  -0.376  54.013  1.00  0.00     0.105 A 
BRANCH  18  19
HETATM   19  N4  UNL     1      21.901  -0.842  54.652  1.00  0.00    -0.387 N 
HETATM   20  H22 UNL     1      20.900  -0.792  54.907  1.00  0.00     0.157 HD
HETATM   21  H23 UNL     1      22.007  -1.729  55.191  1.00  0.00     0.157 HD
ENDBRANCH  18  19
ENDBRANCH  12  13
ENDBRANCH  10  11
ENDBRANCH   8  10
ENDBRANCH   7   8
BRANCH   5  22
HETATM   22  N1  UNL     1      25.448   4.969  49.780  1.00  0.00    -0.323 N 
HETATM   23  C6  UNL     1      25.833   6.031  48.964  1.00  0.00     0.256 C 
HETATM   24  O1  UNL     1      24.987   6.885  48.654  1.00  0.00    -0.267 OA
HETATM   25  H6  UNL     1      26.256   4.327  49.960  1.00  0.00     0.169 HD
BRANCH  23  26
HETATM   26  C7  UNL     1      27.160   6.255  48.417  1.00  0.00     0.032 A 
HETATM   27  C8  UNL     1      28.135   5.290  48.560  1.00  0.00     0.018 A 
HETATM   28  C9  UNL     1      29.427   5.461  48.050  1.00  0.00     0.025 A 
HETATM   29  C10 UNL     1      29.767   6.617  47.379  1.00  0.00     0.034 A 
HETATM   30 CL1  UNL     1      31.399   6.775  46.763  1.00  0.00    -0.084 Cl
HETATM   31  C11 UNL     1      28.809   7.596  47.224  1.00  0.00     0.025 A 
HETATM   32  C12 UNL     1      27.565   7.384  47.739  1.00  0.00     0.018 A 
ENDBRANCH  23  26
ENDBRANCH   5  22
TORSDOF 7
ENDMDL
