MODEL 1
REMARK VINA RESULT:      -7.6      0.000      0.000
REMARK  2 active torsions:
REMARK  status: ('A' for Active; 'I' for Inactive)
REMARK    1  A    between atoms: C2_2  and  S1_3 
REMARK    2  A    between atoms: S1_3  and  C3_6 
ROOT
HETATM    1  C3  UNL     1      25.646   1.707  53.163  1.00  0.00     0.163 A 
HETATM    2  N1  UNL     1      25.562   2.961  52.699  1.00  0.00    -0.246 NA
HETATM    3  C4  UNL     1      24.507   3.454  52.050  1.00  0.00     0.150 A 
HETATM    4  C5  UNL     1      23.425   2.634  51.833  1.00  0.00     0.090 A 
HETATM    5  N2  UNL     1      22.413   3.227  51.175  1.00  0.00    -0.240 NA
HETATM    6  C6  UNL     1      21.301   2.524  50.912  1.00  0.00     0.236 A 
HETATM    7  N3  UNL     1      21.297   1.241  51.345  1.00  0.00    -0.224 NA
HETATM    8  C7  UNL     1      22.310   0.656  52.000  1.00  0.00     0.142 A 
HETATM    9  C8  UNL     1      23.467   1.341  52.289  1.00  0.00     0.050 A 
HETATM   10  C9  UNL     1      24.574   0.813  52.973  1.00  0.00     0.006 A 
HETATM   11  C10 UNL     1      24.621  -0.568  53.424  1.00  0.00     0.041 C 
HETATM   12  C11 UNL     1      25.826  -1.390  53.052  1.00  0.00     0.019 C 
HETATM   13  C12 UNL     1      24.070  -0.852  54.768  1.00  0.00    -0.018 C 
HETATM   14  C13 UNL     1      22.875  -1.061  55.297  1.00  0.00    -0.002 C 
HETATM   15  C14 UNL     1      21.542  -1.095  54.718  1.00  0.00     0.017 C 
HETATM   16  C15 UNL     1      21.173  -0.925  53.470  1.00  0.00     0.090 C 
HETATM   17  N4  UNL     1      21.736  -0.658  52.195  1.00  0.00    -0.350 N 
HETATM   18  H14 UNL     1      21.770  -1.327  51.397  1.00  0.00     0.166 HD
ENDROOT
BRANCH   1  19
HETATM   19  S1  UNL     1      27.104   1.311  53.978  1.00  0.00     0.214 S 
HETATM   20  O1  UNL     1      27.869   2.638  54.222  1.00  0.00    -0.217 OA
HETATM   21  O2  UNL     1      27.006   0.766  55.332  1.00  0.00    -0.217 OA
BRANCH  19  22
HETATM   22  C2  UNL     1      28.272   0.456  52.944  1.00  0.00     0.105 C 
HETATM   23  C1  UNL     1      29.331  -0.189  53.424  1.00  0.00     0.024 C 
ENDBRANCH  19  22
ENDBRANCH   1  19
TORSDOF 2
ENDMDL
MODEL 2
REMARK VINA RESULT:      -7.5      1.908      3.872
REMARK  2 active torsions:
REMARK  status: ('A' for Active; 'I' for Inactive)
REMARK    1  A    between atoms: C2_2  and  S1_3 
REMARK    2  A    between atoms: S1_3  and  C3_6 
ROOT
HETATM    1  C3  UNL     1      25.096   0.494  53.129  1.00  0.00     0.163 A 
HETATM    2  N1  UNL     1      25.233  -0.585  53.912  1.00  0.00    -0.246 NA
HETATM    3  C4  UNL     1      24.216  -1.244  54.468  1.00  0.00     0.150 A 
HETATM    4  C5  UNL     1      22.936  -0.801  54.232  1.00  0.00     0.090 A 
HETATM    5  N2  UNL     1      21.984  -1.536  54.832  1.00  0.00    -0.240 NA
HETATM    6  C6  UNL     1      20.695  -1.201  54.668  1.00  0.00     0.236 A 
HETATM    7  N3  UNL     1      20.462  -0.119  53.888  1.00  0.00    -0.224 NA
HETATM    8  C7  UNL     1      21.417   0.610  53.292  1.00  0.00     0.142 A 
HETATM    9  C8  UNL     1      22.749   0.301  53.436  1.00  0.00     0.050 A 
HETATM   10  C9  UNL     1      23.813   1.002  52.847  1.00  0.00     0.006 A 
HETATM   11  C10 UNL     1      23.605   2.187  52.032  1.00  0.00     0.041 C 
HETATM   12  C11 UNL     1      24.399   3.421  52.367  1.00  0.00     0.019 C 
HETATM   13  C12 UNL     1      23.378   1.972  50.585  1.00  0.00    -0.018 C 
HETATM   14  C13 UNL     1      22.358   1.654  49.805  1.00  0.00    -0.002 C 
HETATM   15  C14 UNL     1      20.960   1.371  50.090  1.00  0.00     0.017 C 
HETATM   16  C15 UNL     1      20.331   1.365  51.242  1.00  0.00     0.090 C 
HETATM   17  N4  UNL     1      20.584   1.584  52.621  1.00  0.00    -0.350 N 
HETATM   18  H14 UNL     1      20.221   2.384  53.182  1.00  0.00     0.166 HD
ENDROOT
BRANCH   1  19
HETATM   19  S1  UNL     1      26.556   1.161  52.521  1.00  0.00     0.214 S 
HETATM   20  O1  UNL     1      27.610   0.022  52.502  1.00  0.00    -0.217 OA
HETATM   21  O2  UNL     1      26.576   1.613  51.129  1.00  0.00    -0.217 OA
BRANCH  19  22
HETATM   22  C2  UNL     1      27.331   2.293  53.653  1.00  0.00     0.105 C 
HETATM   23  C1  UNL     1      28.646   2.482  53.705  1.00  0.00     0.024 C 
ENDBRANCH  19  22
ENDBRANCH   1  19
TORSDOF 2
ENDMDL
MODEL 3
REMARK VINA RESULT:      -7.4      1.917      3.990
REMARK  2 active torsions:
REMARK  status: ('A' for Active; 'I' for Inactive)
REMARK    1  A    between atoms: C2_2  and  S1_3 
REMARK    2  A    between atoms: S1_3  and  C3_6 
ROOT
HETATM    1  C3  UNL     1      24.682   0.062  53.090  1.00  0.00     0.163 A 
HETATM    2  N1  UNL     1      23.809  -0.915  53.370  1.00  0.00    -0.246 NA
HETATM    3  C4  UNL     1      22.484  -0.777  53.319  1.00  0.00     0.150 A 
HETATM    4  C5  UNL     1      21.962   0.442  52.957  1.00  0.00     0.090 A 
HETATM    5  N2  UNL     1      20.619   0.476  52.930  1.00  0.00    -0.240 NA
HETATM    6  C6  UNL     1      19.997   1.614  52.585  1.00  0.00     0.236 A 
HETATM    7  N3  UNL     1      20.805   2.659  52.284  1.00  0.00    -0.224 NA
HETATM    8  C7  UNL     1      22.145   2.618  52.313  1.00  0.00     0.142 A 
HETATM    9  C8  UNL     1      22.819   1.472  52.662  1.00  0.00     0.050 A 
HETATM   10  C9  UNL     1      24.216   1.337  52.714  1.00  0.00     0.006 A 
HETATM   11  C10 UNL     1      25.114   2.443  52.431  1.00  0.00     0.041 C 
HETATM   12  C11 UNL     1      26.190   2.752  53.438  1.00  0.00     0.019 C 
HETATM   13  C12 UNL     1      25.515   2.636  51.020  1.00  0.00    -0.018 C 
HETATM   14  C13 UNL     1      25.001   3.202  49.939  1.00  0.00    -0.002 C 
HETATM   15  C14 UNL     1      23.752   3.907  49.705  1.00  0.00     0.017 C 
HETATM   16  C15 UNL     1      22.778   4.175  50.544  1.00  0.00     0.090 C 
HETATM   17  N4  UNL     1      22.429   3.977  51.905  1.00  0.00    -0.350 N 
HETATM   18  H14 UNL     1      22.364   4.726  52.627  1.00  0.00     0.166 HD
ENDROOT
BRANCH   1  19
HETATM   19  S1  UNL     1      26.340  -0.364  53.216  1.00  0.00     0.214 S 
HETATM   20  O1  UNL     1      26.409  -1.907  53.367  1.00  0.00    -0.217 OA
HETATM   21  O2  UNL     1      27.197  -0.137  52.051  1.00  0.00    -0.217 OA
BRANCH  19  22
HETATM   22  C2  UNL     1      27.076   0.139  54.755  1.00  0.00     0.105 C 
HETATM   23  C1  UNL     1      28.390   0.166  54.958  1.00  0.00     0.024 C 
ENDBRANCH  19  22
ENDBRANCH   1  19
TORSDOF 2
ENDMDL
MODEL 4
REMARK VINA RESULT:      -7.3      2.843      4.888
REMARK  2 active torsions:
REMARK  status: ('A' for Active; 'I' for Inactive)
REMARK    1  A    between atoms: C2_2  and  S1_3 
REMARK    2  A    between atoms: S1_3  and  C3_6 
ROOT
HETATM    1  C3  UNL     1      23.593   1.896  51.848  1.00  0.00     0.163 A 
HETATM    2  N1  UNL     1      24.766   1.323  52.150  1.00  0.00    -0.246 NA
HETATM    3  C4  UNL     1      24.922   0.365  53.063  1.00  0.00     0.150 A 
HETATM    4  C5  UNL     1      23.815  -0.077  53.750  1.00  0.00     0.090 A 
HETATM    5  N2  UNL     1      24.077  -1.047  54.642  1.00  0.00    -0.240 NA
HETATM    6  C6  UNL     1      23.072  -1.561  55.368  1.00  0.00     0.236 A 
HETATM    7  N3  UNL     1      21.845  -1.040  55.127  1.00  0.00    -0.224 NA
HETATM    8  C7  UNL     1      21.591  -0.071  54.235  1.00  0.00     0.142 A 
HETATM    9  C8  UNL     1      22.593   0.482  53.473  1.00  0.00     0.050 A 
HETATM   10  C9  UNL     1      22.420   1.493  52.514  1.00  0.00     0.006 A 
HETATM   11  C10 UNL     1      21.126   2.100  52.252  1.00  0.00     0.041 C 
HETATM   12  C11 UNL     1      21.036   3.602  52.274  1.00  0.00     0.019 C 
HETATM   13  C12 UNL     1      20.272   1.445  51.236  1.00  0.00    -0.018 C 
HETATM   14  C13 UNL     1      19.436   0.420  51.194  1.00  0.00    -0.002 C 
HETATM   15  C14 UNL     1      19.000  -0.528  52.206  1.00  0.00     0.017 C 
HETATM   16  C15 UNL     1      19.336  -0.607  53.473  1.00  0.00     0.090 C 
HETATM   17  N4  UNL     1      20.161   0.050  54.421  1.00  0.00    -0.350 N 
HETATM   18  H14 UNL     1      19.822   0.609  55.233  1.00  0.00     0.166 HD
ENDROOT
BRANCH   1  19
HETATM   19  S1  UNL     1      23.647   3.101  50.626  1.00  0.00     0.214 S 
HETATM   20  O1  UNL     1      25.019   2.973  49.913  1.00  0.00    -0.217 OA
HETATM   21  O2  UNL     1      22.712   2.984  49.506  1.00  0.00    -0.217 OA
BRANCH  19  22
HETATM   22  C2  UNL     1      23.781   4.751  51.278  1.00  0.00     0.105 C 
HETATM   23  C1  UNL     1      23.474   5.837  50.576  1.00  0.00     0.024 C 
ENDBRANCH  19  22
ENDBRANCH   1  19
TORSDOF 2
ENDMDL
MODEL 5
REMARK VINA RESULT:      -7.2      3.398      5.943
REMARK  2 active torsions:
REMARK  status: ('A' for Active; 'I' for Inactive)
REMARK    1  A    between atoms: C2_2  and  S1_3 
REMARK    2  A    between atoms: S1_3  and  C3_6 
ROOT
HETATM    1  C3  UNL     1      21.000   1.777  52.605  1.00  0.00     0.163 A 
HETATM    2  N1  UNL     1      20.097   1.192  53.404  1.00  0.00    -0.246 NA
HETATM    3  C4  UNL     1      20.375   0.208  54.258  1.00  0.00     0.150 A 
HETATM    4  C5  UNL     1      21.669  -0.251  54.337  1.00  0.00     0.090 A 
HETATM    5  N2  UNL     1      21.844  -1.240  55.230  1.00  0.00    -0.240 NA
HETATM    6  C6  UNL     1      23.069  -1.763  55.398  1.00  0.00     0.236 A 
HETATM    7  N3  UNL     1      24.048  -1.230  54.629  1.00  0.00    -0.224 NA
HETATM    8  C7  UNL     1      23.865  -0.244  53.739  1.00  0.00     0.142 A 
HETATM    9  C8  UNL     1      22.626   0.318  53.537  1.00  0.00     0.050 A 
HETATM   10  C9  UNL     1      22.343   1.355  52.633  1.00  0.00     0.006 A 
HETATM   11  C10 UNL     1      23.360   1.929  51.768  1.00  0.00     0.041 C 
HETATM   12  C11 UNL     1      23.058   2.024  50.296  1.00  0.00     0.019 C 
HETATM   13  C12 UNL     1      24.142   3.061  52.312  1.00  0.00    -0.018 C 
HETATM   14  C13 UNL     1      25.192   3.216  53.103  1.00  0.00    -0.002 C 
HETATM   15  C14 UNL     1      26.046   2.263  53.793  1.00  0.00     0.017 C 
HETATM   16  C15 UNL     1      25.991   0.951  53.801  1.00  0.00     0.090 C 
HETATM   17  N4  UNL     1      25.222  -0.109  53.256  1.00  0.00    -0.350 N 
HETATM   18  H14 UNL     1      25.555  -0.791  52.541  1.00  0.00     0.166 HD
ENDROOT
BRANCH   1  19
HETATM   19  S1  UNL     1      20.401   3.033  51.600  1.00  0.00     0.214 S 
HETATM   20  O1  UNL     1      19.045   3.493  52.198  1.00  0.00    -0.217 OA
HETATM   21  O2  UNL     1      21.151   4.289  51.552  1.00  0.00    -0.217 OA
BRANCH  19  22
HETATM   22  C2  UNL     1      19.867   2.457  50.005  1.00  0.00     0.105 C 
HETATM   23  C1  UNL     1      19.438   1.217  49.786  1.00  0.00     0.024 C 
ENDBRANCH  19  22
ENDBRANCH   1  19
TORSDOF 2
ENDMDL
MODEL 6
REMARK VINA RESULT:      -7.2      2.891      5.010
REMARK  2 active torsions:
REMARK  status: ('A' for Active; 'I' for Inactive)
REMARK    1  A    between atoms: C2_2  and  S1_3 
REMARK    2  A    between atoms: S1_3  and  C3_6 
ROOT
HETATM    1  C3  UNL     1      22.194   3.141  52.020  1.00  0.00     0.163 A 
HETATM    2  N1  UNL     1      20.904   3.044  52.369  1.00  0.00    -0.246 NA
HETATM    3  C4  UNL     1      20.362   1.976  52.954  1.00  0.00     0.150 A 
HETATM    4  C5  UNL     1      21.165   0.894  53.225  1.00  0.00     0.090 A 
HETATM    5  N2  UNL     1      20.525  -0.127  53.820  1.00  0.00    -0.240 NA
HETATM    6  C6  UNL     1      21.210  -1.237  54.138  1.00  0.00     0.236 A 
HETATM    7  N3  UNL     1      22.527  -1.227  53.821  1.00  0.00    -0.224 NA
HETATM    8  C7  UNL     1      23.159  -0.205  53.227  1.00  0.00     0.142 A 
HETATM    9  C8  UNL     1      22.493   0.948  52.884  1.00  0.00     0.050 A 
HETATM   10  C9  UNL     1      23.073   2.068  52.267  1.00  0.00     0.006 A 
HETATM   11  C10 UNL     1      24.474   2.103  51.882  1.00  0.00     0.041 C 
HETATM   12  C11 UNL     1      24.806   2.503  50.469  1.00  0.00     0.019 C 
HETATM   13  C12 UNL     1      25.437   2.577  52.900  1.00  0.00    -0.018 C 
HETATM   14  C13 UNL     1      26.072   2.063  53.941  1.00  0.00    -0.002 C 
HETATM   15  C14 UNL     1      26.070   0.733  54.528  1.00  0.00     0.017 C 
HETATM   16  C15 UNL     1      25.412  -0.340  54.155  1.00  0.00     0.090 C 
HETATM   17  N4  UNL     1      24.493  -0.761  53.159  1.00  0.00    -0.350 N 
HETATM   18  H14 UNL     1      24.702  -1.433  52.390  1.00  0.00     0.166 HD
ENDROOT
BRANCH   1  19
HETATM   19  S1  UNL     1      22.658   4.623  51.290  1.00  0.00     0.214 S 
HETATM   20  O1  UNL     1      21.506   5.635  51.531  1.00  0.00    -0.217 OA
HETATM   21  O2  UNL     1      23.806   5.335  51.852  1.00  0.00    -0.217 OA
BRANCH  19  22
HETATM   22  C2  UNL     1      22.656   4.557  49.513  1.00  0.00     0.105 C 
HETATM   23  C1  UNL     1      21.749   3.884  48.812  1.00  0.00     0.024 C 
ENDBRANCH  19  22
ENDBRANCH   1  19
TORSDOF 2
ENDMDL
MODEL 7
REMARK VINA RESULT:      -7.1      3.825      6.803
REMARK  2 active torsions:
REMARK  status: ('A' for Active; 'I' for Inactive)
REMARK    1  A    between atoms: C2_2  and  S1_3 
REMARK    2  A    between atoms: S1_3  and  C3_6 
ROOT
HETATM    1  C3  UNL     1      22.527   3.039  51.344  1.00  0.00     0.163 A 
HETATM    2  N1  UNL     1      22.639   2.608  52.607  1.00  0.00    -0.246 NA
HETATM    3  C4  UNL     1      23.793   2.288  53.193  1.00  0.00     0.150 A 
HETATM    4  C5  UNL     1      24.955   2.402  52.466  1.00  0.00     0.090 A 
HETATM    5  N2  UNL     1      26.062   2.061  53.148  1.00  0.00    -0.240 NA
HETATM    6  C6  UNL     1      27.256   2.139  52.541  1.00  0.00     0.236 A 
HETATM    7  N3  UNL     1      27.239   2.567  51.257  1.00  0.00    -0.224 NA
HETATM    8  C7  UNL     1      26.130   2.905  50.582  1.00  0.00     0.142 A 
HETATM    9  C8  UNL     1      24.887   2.839  51.167  1.00  0.00     0.050 A 
HETATM   10  C9  UNL     1      23.676   3.177  50.542  1.00  0.00     0.006 A 
HETATM   11  C10 UNL     1      23.613   3.609  49.155  1.00  0.00     0.041 C 
HETATM   12  C11 UNL     1      22.639   2.910  48.244  1.00  0.00     0.019 C 
HETATM   13  C12 UNL     1      23.772   5.057  48.897  1.00  0.00    -0.018 C 
HETATM   14  C13 UNL     1      24.775   5.912  48.778  1.00  0.00    -0.002 C 
HETATM   15  C14 UNL     1      26.217   5.745  48.860  1.00  0.00     0.017 C 
HETATM   16  C15 UNL     1      26.917   4.657  49.077  1.00  0.00     0.090 C 
HETATM   17  N4  UNL     1      26.728   3.271  49.316  1.00  0.00    -0.350 N 
HETATM   18  H14 UNL     1      26.982   2.504  48.658  1.00  0.00     0.166 HD
ENDROOT
BRANCH   1  19
HETATM   19  S1  UNL     1      20.932   3.400  50.819  1.00  0.00     0.214 S 
HETATM   20  O1  UNL     1      20.065   3.602  52.090  1.00  0.00    -0.217 OA
HETATM   21  O2  UNL     1      20.714   4.657  50.102  1.00  0.00    -0.217 OA
BRANCH  19  22
HETATM   22  C2  UNL     1      20.105   2.005  50.088  1.00  0.00     0.105 C 
HETATM   23  C1  UNL     1      20.440   0.744  50.347  1.00  0.00     0.024 C 
ENDBRANCH  19  22
ENDBRANCH   1  19
TORSDOF 2
ENDMDL
MODEL 8
REMARK VINA RESULT:      -7.0      3.138      5.103
REMARK  2 active torsions:
REMARK  status: ('A' for Active; 'I' for Inactive)
REMARK    1  A    between atoms: C2_2  and  S1_3 
REMARK    2  A    between atoms: S1_3  and  C3_6 
ROOT
HETATM    1  C3  UNL     1      24.915   3.598  50.823  1.00  0.00     0.163 A 
HETATM    2  N1  UNL     1      26.208   3.258  50.732  1.00  0.00    -0.246 NA
HETATM    3  C4  UNL     1      26.742   2.174  51.293  1.00  0.00     0.150 A 
HETATM    4  C5  UNL     1      25.927   1.338  52.019  1.00  0.00     0.090 A 
HETATM    5  N2  UNL     1      26.560   0.272  52.539  1.00  0.00    -0.240 NA
HETATM    6  C6  UNL     1      25.863  -0.617  53.263  1.00  0.00     0.236 A 
HETATM    7  N3  UNL     1      24.542  -0.353  53.408  1.00  0.00    -0.224 NA
HETATM    8  C7  UNL     1      23.917   0.712  52.887  1.00  0.00     0.142 A 
HETATM    9  C8  UNL     1      24.596   1.647  52.141  1.00  0.00     0.050 A 
HETATM   10  C9  UNL     1      24.024   2.787  51.553  1.00  0.00     0.006 A 
HETATM   11  C10 UNL     1      22.619   3.122  51.715  1.00  0.00     0.041 C 
HETATM   12  C11 UNL     1      22.275   4.513  52.175  1.00  0.00     0.019 C 
HETATM   13  C12 UNL     1      21.676   2.545  50.731  1.00  0.00    -0.018 C 
HETATM   14  C13 UNL     1      21.046   1.394  50.557  1.00  0.00    -0.002 C 
HETATM   15  C14 UNL     1      21.037   0.159  51.324  1.00  0.00     0.017 C 
HETATM   16  C15 UNL     1      21.675  -0.136  52.433  1.00  0.00     0.090 C 
HETATM   17  N4  UNL     1      22.575   0.451  53.360  1.00  0.00    -0.350 N 
HETATM   18  H14 UNL     1      22.346   0.707  54.344  1.00  0.00     0.166 HD
ENDROOT
BRANCH   1  19
HETATM   19  S1  UNL     1      24.463   5.036  50.002  1.00  0.00     0.214 S 
HETATM   20  O1  UNL     1      25.624   5.399  49.038  1.00  0.00    -0.217 OA
HETATM   21  O2  UNL     1      23.321   4.974  49.089  1.00  0.00    -0.217 OA
BRANCH  19  22
HETATM   22  C2  UNL     1      24.464   6.470  51.054  1.00  0.00     0.105 C 
HETATM   23  C1  UNL     1      23.833   7.599  50.744  1.00  0.00     0.024 C 
ENDBRANCH  19  22
ENDBRANCH   1  19
TORSDOF 2
ENDMDL
MODEL 9
REMARK VINA RESULT:      -6.8      3.916      6.657
REMARK  2 active torsions:
REMARK  status: ('A' for Active; 'I' for Inactive)
REMARK    1  A    between atoms: C2_2  and  S1_3 
REMARK    2  A    between atoms: S1_3  and  C3_6 
ROOT
HETATM    1  C3  UNL     1      20.270   0.077  52.571  1.00  0.00     0.163 A 
HETATM    2  N1  UNL     1      19.854  -0.756  53.535  1.00  0.00    -0.246 NA
HETATM    3  C4  UNL     1      20.654  -1.317  54.441  1.00  0.00     0.150 A 
HETATM    4  C5  UNL     1      21.999  -1.033  54.399  1.00  0.00     0.090 A 
HETATM    5  N2  UNL     1      22.717  -1.643  55.358  1.00  0.00    -0.240 NA
HETATM    6  C6  UNL     1      24.041  -1.436  55.418  1.00  0.00     0.236 A 
HETATM    7  N3  UNL     1      24.551  -0.604  54.479  1.00  0.00    -0.224 NA
HETATM    8  C7  UNL     1      23.829   0.001  53.525  1.00  0.00     0.142 A 
HETATM    9  C8  UNL     1      22.470  -0.186  53.428  1.00  0.00     0.050 A 
HETATM   10  C9  UNL     1      21.635   0.409  52.469  1.00  0.00     0.006 A 
HETATM   11  C10 UNL     1      22.150   1.280  51.426  1.00  0.00     0.041 C 
HETATM   12  C11 UNL     1      21.760   0.981  50.003  1.00  0.00     0.019 C 
HETATM   13  C12 UNL     1      22.255   2.720  51.747  1.00  0.00    -0.018 C 
HETATM   14  C13 UNL     1      23.112   3.509  52.377  1.00  0.00    -0.002 C 
HETATM   15  C14 UNL     1      24.376   3.243  53.043  1.00  0.00     0.017 C 
HETATM   16  C15 UNL     1      25.016   2.106  53.192  1.00  0.00     0.090 C 
HETATM   17  N4  UNL     1      24.885   0.733  52.860  1.00  0.00    -0.350 N 
HETATM   18  H14 UNL     1      25.483   0.216  52.181  1.00  0.00     0.166 HD
ENDROOT
BRANCH   1  19
HETATM   19  S1  UNL     1      19.047   0.681  51.530  1.00  0.00     0.214 S 
HETATM   20  O1  UNL     1      18.913   2.201  51.809  1.00  0.00    -0.217 OA
HETATM   21  O2  UNL     1      19.302   0.660  50.089  1.00  0.00    -0.217 OA
BRANCH  19  22
HETATM   22  C2  UNL     1      17.415   0.131  51.976  1.00  0.00     0.105 C 
HETATM   23  C1  UNL     1      16.315   0.534  51.347  1.00  0.00     0.024 C 
ENDBRANCH  19  22
ENDBRANCH   1  19
TORSDOF 2
ENDMDL
