MODEL 1
REMARK VINA RESULT:      -8.8      0.000      0.000
REMARK  7 active torsions:
REMARK  status: ('A' for Active; 'I' for Inactive)
REMARK    1  A    between atoms: N1_1  and  C1_2 
REMARK    2  A    between atoms: C6_7  and  C7_8 
REMARK    3  A    between atoms: C7_8  and  C8_9 
REMARK    4  A    between atoms: C11_12  and  N2_13 
REMARK    5  A    between atoms: N2_13  and  C12_14 
REMARK    6  A    between atoms: C16_19  and  C17_20 
REMARK    7  A    between atoms: C17_20  and  C18_22 
ROOT
HETATM    1  C8  UNL     1      25.776   1.794  53.198  1.00  0.00    -0.059 C 
HETATM    2  C9  UNL     1      26.703   2.129  52.267  1.00  0.00    -0.014 C 
HETATM    3  C10 UNL     1      26.772   2.888  50.967  1.00  0.00     0.106 C 
HETATM    4  C11 UNL     1      25.376   2.997  50.456  1.00  0.00     0.107 C 
HETATM    5  N3  UNL     1      24.514   2.301  50.990  1.00  0.00    -0.245 NA
HETATM    6  C20 UNL     1      23.191   2.001  50.957  1.00  0.00     0.152 C 
HETATM    7  C21 UNL     1      22.736   1.248  51.944  1.00  0.00     0.098 C 
HETATM    8  N4  UNL     1      23.376   1.250  53.047  1.00  0.00    -0.282 NA
HETATM    9  C22 UNL     1      24.371   2.264  53.235  1.00  0.00     0.183 C 
ENDROOT
BRANCH   4  10
HETATM   10  N2  UNL     1      24.987   3.806  49.367  1.00  0.00    -0.344 N 
HETATM   11  H12 UNL     1      24.204   3.387  48.770  1.00  0.00     0.167 HD
BRANCH  10  12
HETATM   12  C12 UNL     1      25.527   5.056  48.995  1.00  0.00     0.034 A 
HETATM   13  C13 UNL     1      24.633   6.130  48.881  1.00  0.00     0.032 A 
HETATM   14  C14 UNL     1      25.043   7.390  48.510  1.00  0.00     0.045 A 
HETATM   15  C15 UNL     1      26.363   7.665  48.226  1.00  0.00     0.125 A 
HETATM   16  F1  UNL     1      26.706   8.916  47.869  1.00  0.00    -0.205 F 
HETATM   17  C16 UNL     1      27.264   6.626  48.329  1.00  0.00     0.018 A 
HETATM   18  C19 UNL     1      26.813   5.383  48.704  1.00  0.00     0.042 A 
BRANCH  17  19
HETATM   19  C17 UNL     1      28.700   6.869  48.031  1.00  0.00     0.234 C 
HETATM   20  F2  UNL     1      29.180   7.809  48.930  1.00  0.00    -0.242 F 
BRANCH  19  21
HETATM   21  C18 UNL     1      29.504   5.586  48.103  1.00  0.00     0.264 C 
HETATM   22  F3  UNL     1      30.491   5.773  49.057  1.00  0.00    -0.252 F 
ENDBRANCH  19  21
ENDBRANCH  17  19
ENDBRANCH  10  12
ENDBRANCH   4  10
BRANCH   1  23
HETATM   23  C7  UNL     1      26.248   0.959  54.377  1.00  0.00     0.076 C 
BRANCH  23  24
HETATM   24  C6  UNL     1      27.113  -0.132  53.869  1.00  0.00    -0.028 A 
HETATM   25  C1  UNL     1      28.453  -0.028  54.195  1.00  0.00     0.032 A 
HETATM   26  C2  UNL     1      29.297  -1.015  53.747  1.00  0.00     0.029 A 
HETATM   27  C3  UNL     1      28.806  -2.055  53.004  1.00  0.00     0.002 A 
HETATM   28  C4  UNL     1      27.459  -2.174  52.666  1.00  0.00     0.001 A 
HETATM   29  C5  UNL     1      26.610  -1.194  53.110  1.00  0.00     0.010 A 
BRANCH  25  30
HETATM   30  N1  UNL     1      28.953   1.065  54.973  1.00  0.00    -0.399 N 
HETATM   31  H1  UNL     1      29.952   0.920  55.170  1.00  0.00     0.156 HD
HETATM   32  H2  UNL     1      28.389   1.904  55.304  1.00  0.00     0.156 HD
ENDBRANCH  25  30
ENDBRANCH  23  24
ENDBRANCH   1  23
TORSDOF 7
ENDMDL
MODEL 2
REMARK VINA RESULT:      -8.7      1.492      2.444
REMARK  7 active torsions:
REMARK  status: ('A' for Active; 'I' for Inactive)
REMARK    1  A    between atoms: N1_1  and  C1_2 
REMARK    2  A    between atoms: C6_7  and  C7_8 
REMARK    3  A    between atoms: C7_8  and  C8_9 
REMARK    4  A    between atoms: C11_12  and  N2_13 
REMARK    5  A    between atoms: N2_13  and  C12_14 
REMARK    6  A    between atoms: C16_19  and  C17_20 
REMARK    7  A    between atoms: C17_20  and  C18_22 
ROOT
HETATM    1  C8  UNL     1      25.561   1.365  52.494  1.00  0.00    -0.059 C 
HETATM    2  C9  UNL     1      26.370   1.526  51.419  1.00  0.00    -0.014 C 
HETATM    3  C10 UNL     1      26.606   2.538  50.328  1.00  0.00     0.106 C 
HETATM    4  C11 UNL     1      25.395   3.404  50.272  1.00  0.00     0.107 C 
HETATM    5  N3  UNL     1      24.396   3.033  50.887  1.00  0.00    -0.245 NA
HETATM    6  C20 UNL     1      23.116   3.374  51.179  1.00  0.00     0.152 C 
HETATM    7  C21 UNL     1      22.506   2.635  52.090  1.00  0.00     0.098 C 
HETATM    8  N4  UNL     1      23.224   2.012  52.939  1.00  0.00    -0.282 NA
HETATM    9  C22 UNL     1      24.609   2.368  53.026  1.00  0.00     0.183 C 
ENDROOT
BRANCH   4  10
HETATM   10  N2  UNL     1      25.300   4.595  49.520  1.00  0.00    -0.344 N 
HETATM   11  H12 UNL     1      24.298   4.872  49.267  1.00  0.00     0.167 HD
BRANCH  10  12
HETATM   12  C12 UNL     1      26.361   5.410  49.073  1.00  0.00     0.034 A 
HETATM   13  C13 UNL     1      27.545   4.766  48.687  1.00  0.00     0.032 A 
HETATM   14  C14 UNL     1      28.649   5.460  48.250  1.00  0.00     0.045 A 
HETATM   15  C15 UNL     1      28.653   6.835  48.171  1.00  0.00     0.125 A 
HETATM   16  F1  UNL     1      29.763   7.460  47.736  1.00  0.00    -0.205 F 
HETATM   17  C16 UNL     1      27.503   7.495  48.546  1.00  0.00     0.018 A 
HETATM   18  C19 UNL     1      26.420   6.764  48.976  1.00  0.00     0.042 A 
BRANCH  17  19
HETATM   19  C17 UNL     1      27.454   8.979  48.481  1.00  0.00     0.234 C 
HETATM   20  F2  UNL     1      26.125   9.374  48.466  1.00  0.00    -0.242 F 
BRANCH  19  21
HETATM   21  C18 UNL     1      28.196   9.608  49.644  1.00  0.00     0.264 C 
HETATM   22  F3  UNL     1      27.500   9.285  50.798  1.00  0.00    -0.252 F 
ENDBRANCH  19  21
ENDBRANCH  17  19
ENDBRANCH  10  12
ENDBRANCH   4  10
BRANCH   1  23
HETATM   23  C7  UNL     1      25.728   0.087  53.301  1.00  0.00     0.076 C 
BRANCH  23  24
HETATM   24  C6  UNL     1      27.174  -0.156  53.510  1.00  0.00    -0.028 A 
HETATM   25  C1  UNL     1      27.657  -1.345  52.995  1.00  0.00     0.032 A 
HETATM   26  C2  UNL     1      28.993  -1.617  53.164  1.00  0.00     0.029 A 
HETATM   27  C3  UNL     1      29.799  -0.728  53.824  1.00  0.00     0.002 A 
HETATM   28  C4  UNL     1      29.328   0.473  54.350  1.00  0.00     0.001 A 
HETATM   29  C5  UNL     1      27.996   0.753  54.186  1.00  0.00     0.010 A 
BRANCH  25  30
HETATM   30  N1  UNL     1      26.804  -2.265  52.306  1.00  0.00    -0.399 N 
HETATM   31  H1  UNL     1      25.848  -2.192  52.677  1.00  0.00     0.156 HD
HETATM   32  H2  UNL     1      27.100  -2.927  51.528  1.00  0.00     0.156 HD
ENDBRANCH  25  30
ENDBRANCH  23  24
ENDBRANCH   1  23
TORSDOF 7
ENDMDL
MODEL 3
REMARK VINA RESULT:      -8.7      1.462      2.001
REMARK  7 active torsions:
REMARK  status: ('A' for Active; 'I' for Inactive)
REMARK    1  A    between atoms: N1_1  and  C1_2 
REMARK    2  A    between atoms: C6_7  and  C7_8 
REMARK    3  A    between atoms: C7_8  and  C8_9 
REMARK    4  A    between atoms: C11_12  and  N2_13 
REMARK    5  A    between atoms: N2_13  and  C12_14 
REMARK    6  A    between atoms: C16_19  and  C17_20 
REMARK    7  A    between atoms: C17_20  and  C18_22 
ROOT
HETATM    1  C8  UNL     1      25.501   0.808  52.435  1.00  0.00    -0.059 C 
HETATM    2  C9  UNL     1      26.353   1.348  51.530  1.00  0.00    -0.014 C 
HETATM    3  C10 UNL     1      26.394   2.513  50.574  1.00  0.00     0.106 C 
HETATM    4  C11 UNL     1      24.985   2.958  50.376  1.00  0.00     0.107 C 
HETATM    5  N3  UNL     1      24.089   2.220  50.780  1.00  0.00    -0.245 NA
HETATM    6  C20 UNL     1      22.740   2.105  50.873  1.00  0.00     0.152 C 
HETATM    7  C21 UNL     1      22.285   1.104  51.606  1.00  0.00     0.098 C 
HETATM    8  N4  UNL     1      23.043   0.634  52.518  1.00  0.00    -0.282 NA
HETATM    9  C22 UNL     1      24.208   1.390  52.868  1.00  0.00     0.183 C 
ENDROOT
BRANCH   4  10
HETATM   10  N2  UNL     1      24.611   4.145  49.711  1.00  0.00    -0.344 N 
HETATM   11  H12 UNL     1      23.674   4.080  49.197  1.00  0.00     0.167 HD
BRANCH  10  12
HETATM   12  C12 UNL     1      25.336   5.354  49.646  1.00  0.00     0.034 A 
HETATM   13  C13 UNL     1      24.865   6.425  50.419  1.00  0.00     0.032 A 
HETATM   14  C14 UNL     1      25.481   7.654  50.422  1.00  0.00     0.045 A 
HETATM   15  C15 UNL     1      26.601   7.903  49.659  1.00  0.00     0.125 A 
HETATM   16  F1  UNL     1      27.162   9.126  49.703  1.00  0.00    -0.205 F 
HETATM   17  C16 UNL     1      27.085   6.868  48.888  1.00  0.00     0.018 A 
HETATM   18  C19 UNL     1      26.440   5.654  48.914  1.00  0.00     0.042 A 
BRANCH  17  19
HETATM   19  C17 UNL     1      28.290   7.084  48.044  1.00  0.00     0.234 C 
HETATM   20  F2  UNL     1      28.763   5.847  47.633  1.00  0.00    -0.242 F 
BRANCH  19  21
HETATM   21  C18 UNL     1      27.980   7.972  46.856  1.00  0.00     0.264 C 
HETATM   22  F3  UNL     1      26.639   7.804  46.555  1.00  0.00    -0.252 F 
ENDBRANCH  19  21
ENDBRANCH  17  19
ENDBRANCH  10  12
ENDBRANCH   4  10
BRANCH   1  23
HETATM   23  C7  UNL     1      25.963  -0.445  53.160  1.00  0.00     0.076 C 
BRANCH  23  24
HETATM   24  C6  UNL     1      27.424  -0.349  53.389  1.00  0.00    -0.028 A 
HETATM   25  C1  UNL     1      28.135  -1.518  53.188  1.00  0.00     0.032 A 
HETATM   26  C2  UNL     1      29.494  -1.479  53.388  1.00  0.00     0.029 A 
HETATM   27  C3  UNL     1      30.101  -0.314  53.774  1.00  0.00     0.002 A 
HETATM   28  C4  UNL     1      29.399   0.872  53.981  1.00  0.00     0.001 A 
HETATM   29  C5  UNL     1      28.043   0.843  53.783  1.00  0.00     0.010 A 
BRANCH  25  30
HETATM   30  N1  UNL     1      27.488  -2.728  52.784  1.00  0.00    -0.399 N 
HETATM   31  H1  UNL     1      27.447  -3.379  53.579  1.00  0.00     0.156 HD
HETATM   32  H2  UNL     1      27.103  -2.936  51.814  1.00  0.00     0.156 HD
ENDBRANCH  25  30
ENDBRANCH  23  24
ENDBRANCH   1  23
TORSDOF 7
ENDMDL
MODEL 4
REMARK VINA RESULT:      -8.6      3.443      7.554
REMARK  7 active torsions:
REMARK  status: ('A' for Active; 'I' for Inactive)
REMARK    1  A    between atoms: N1_1  and  C1_2 
REMARK    2  A    between atoms: C6_7  and  C7_8 
REMARK    3  A    between atoms: C7_8  and  C8_9 
REMARK    4  A    between atoms: C11_12  and  N2_13 
REMARK    5  A    between atoms: N2_13  and  C12_14 
REMARK    6  A    between atoms: C16_19  and  C17_20 
REMARK    7  A    between atoms: C17_20  and  C18_22 
ROOT
HETATM    1  C8  UNL     1      27.725   6.527  47.990  1.00  0.00    -0.059 C 
HETATM    2  C9  UNL     1      27.839   5.241  48.402  1.00  0.00    -0.014 C 
HETATM    3  C10 UNL     1      27.008   4.211  49.123  1.00  0.00     0.106 C 
HETATM    4  C11 UNL     1      25.921   4.948  49.827  1.00  0.00     0.107 C 
HETATM    5  N3  UNL     1      26.017   6.171  49.908  1.00  0.00    -0.245 NA
HETATM    6  C20 UNL     1      25.393   7.277  50.387  1.00  0.00     0.152 C 
HETATM    7  C21 UNL     1      25.899   8.442  50.018  1.00  0.00     0.098 C 
HETATM    8  N4  UNL     1      26.571   8.490  48.935  1.00  0.00    -0.282 NA
HETATM    9  C22 UNL     1      26.500   7.359  48.059  1.00  0.00     0.183 C 
ENDROOT
BRANCH   4  10
HETATM   10  N2  UNL     1      24.815   4.332  50.451  1.00  0.00    -0.344 N 
HETATM   11  H12 UNL     1      23.909   4.898  50.390  1.00  0.00     0.167 HD
BRANCH  10  12
HETATM   12  C12 UNL     1      24.797   3.099  51.137  1.00  0.00     0.034 A 
HETATM   13  C13 UNL     1      23.554   2.472  51.295  1.00  0.00     0.032 A 
HETATM   14  C14 UNL     1      23.414   1.276  51.960  1.00  0.00     0.045 A 
HETATM   15  C15 UNL     1      24.496   0.626  52.512  1.00  0.00     0.125 A 
HETATM   16  F1  UNL     1      24.299  -0.543  53.150  1.00  0.00    -0.205 F 
HETATM   17  C16 UNL     1      25.732   1.220  52.372  1.00  0.00     0.018 A 
HETATM   18  C19 UNL     1      25.828   2.416  51.699  1.00  0.00     0.042 A 
BRANCH  17  19
HETATM   19  C17 UNL     1      26.932   0.562  52.951  1.00  0.00     0.234 C 
HETATM   20  F2  UNL     1      27.290  -0.495  52.129  1.00  0.00    -0.242 F 
BRANCH  19  21
HETATM   21  C18 UNL     1      28.078   1.541  53.110  1.00  0.00     0.264 C 
HETATM   22  F3  UNL     1      29.234   0.797  53.272  1.00  0.00    -0.252 F 
ENDBRANCH  19  21
ENDBRANCH  17  19
ENDBRANCH  10  12
ENDBRANCH   4  10
BRANCH   1  23
HETATM   23  C7  UNL     1      28.925   7.136  47.283  1.00  0.00     0.076 C 
BRANCH  23  24
HETATM   24  C6  UNL     1      30.158   6.691  47.973  1.00  0.00    -0.028 A 
HETATM   25  C1  UNL     1      30.563   7.481  49.034  1.00  0.00     0.032 A 
HETATM   26  C2  UNL     1      31.702   7.109  49.706  1.00  0.00     0.029 A 
HETATM   27  C3  UNL     1      32.397   5.994  49.320  1.00  0.00     0.002 A 
HETATM   28  C4  UNL     1      32.004   5.189  48.253  1.00  0.00     0.001 A 
HETATM   29  C5  UNL     1      30.868   5.552  47.577  1.00  0.00     0.010 A 
BRANCH  25  30
HETATM   30  N1  UNL     1      29.827   8.643  49.427  1.00  0.00    -0.399 N 
HETATM   31  H1  UNL     1      28.995   8.742  48.831  1.00  0.00     0.156 HD
HETATM   32  H2  UNL     1      30.089   9.310  50.213  1.00  0.00     0.156 HD
ENDBRANCH  25  30
ENDBRANCH  23  24
ENDBRANCH   1  23
TORSDOF 7
ENDMDL
MODEL 5
REMARK VINA RESULT:      -8.5      5.732      8.135
REMARK  7 active torsions:
REMARK  status: ('A' for Active; 'I' for Inactive)
REMARK    1  A    between atoms: N1_1  and  C1_2 
REMARK    2  A    between atoms: C6_7  and  C7_8 
REMARK    3  A    between atoms: C7_8  and  C8_9 
REMARK    4  A    between atoms: C11_12  and  N2_13 
REMARK    5  A    between atoms: N2_13  and  C12_14 
REMARK    6  A    between atoms: C16_19  and  C17_20 
REMARK    7  A    between atoms: C17_20  and  C18_22 
ROOT
HETATM    1  C8  UNL     1      24.940   0.619  53.218  1.00  0.00    -0.059 C 
HETATM    2  C9  UNL     1      23.844  -0.132  53.484  1.00  0.00    -0.014 C 
HETATM    3  C10 UNL     1      22.517  -0.457  52.846  1.00  0.00     0.106 C 
HETATM    4  C11 UNL     1      22.260   0.597  51.824  1.00  0.00     0.107 C 
HETATM    5  N3  UNL     1      22.972   1.599  51.842  1.00  0.00    -0.245 NA
HETATM    6  C20 UNL     1      23.192   2.784  51.217  1.00  0.00     0.152 C 
HETATM    7  C21 UNL     1      24.278   3.444  51.577  1.00  0.00     0.098 C 
HETATM    8  N4  UNL     1      25.247   2.783  52.076  1.00  0.00    -0.282 NA
HETATM    9  C22 UNL     1      25.206   1.355  51.959  1.00  0.00     0.183 C 
ENDROOT
BRANCH   4  10
HETATM   10  N2  UNL     1      21.221   0.545  50.870  1.00  0.00    -0.344 N 
HETATM   11  H12 UNL     1      21.560   0.563  49.855  1.00  0.00     0.167 HD
BRANCH  10  12
HETATM   12  C12 UNL     1      19.833   0.494  51.120  1.00  0.00     0.034 A 
HETATM   13  C13 UNL     1      19.030   1.439  50.465  1.00  0.00     0.032 A 
HETATM   14  C14 UNL     1      17.668   1.495  50.645  1.00  0.00     0.045 A 
HETATM   15  C15 UNL     1      17.014   0.620  51.485  1.00  0.00     0.125 A 
HETATM   16  F1  UNL     1      15.679   0.721  51.621  1.00  0.00    -0.205 F 
HETATM   17  C16 UNL     1      17.779  -0.320  52.142  1.00  0.00     0.018 A 
HETATM   18  C19 UNL     1      19.138  -0.342  51.934  1.00  0.00     0.042 A 
BRANCH  17  19
HETATM   19  C17 UNL     1      17.124  -1.286  53.062  1.00  0.00     0.234 C 
HETATM   20  F2  UNL     1      16.165  -1.988  52.348  1.00  0.00    -0.242 F 
BRANCH  19  21
HETATM   21  C18 UNL     1      18.134  -2.226  53.689  1.00  0.00     0.264 C 
HETATM   22  F3  UNL     1      17.783  -3.513  53.317  1.00  0.00    -0.252 F 
ENDBRANCH  19  21
ENDBRANCH  17  19
ENDBRANCH  10  12
ENDBRANCH   4  10
BRANCH   1  23
HETATM   23  C7  UNL     1      26.053   0.610  54.253  1.00  0.00     0.076 C 
BRANCH  23  24
HETATM   24  C6  UNL     1      27.099  -0.345  53.817  1.00  0.00    -0.028 A 
HETATM   25  C1  UNL     1      28.390  -0.025  54.194  1.00  0.00     0.032 A 
HETATM   26  C2  UNL     1      29.395  -0.881  53.813  1.00  0.00     0.029 A 
HETATM   27  C3  UNL     1      29.106  -2.003  53.085  1.00  0.00     0.002 A 
HETATM   28  C4  UNL     1      27.810  -2.340  52.697  1.00  0.00     0.001 A 
HETATM   29  C5  UNL     1      26.801  -1.492  53.074  1.00  0.00     0.010 A 
BRANCH  25  30
HETATM   30  N1  UNL     1      28.679   1.152  54.955  1.00  0.00    -0.399 N 
HETATM   31  H1  UNL     1      29.322   0.917  55.723  1.00  0.00     0.156 HD
HETATM   32  H2  UNL     1      28.296   2.127  54.766  1.00  0.00     0.156 HD
ENDBRANCH  25  30
ENDBRANCH  23  24
ENDBRANCH   1  23
TORSDOF 7
ENDMDL
MODEL 6
REMARK VINA RESULT:      -8.2      1.703      2.220
REMARK  7 active torsions:
REMARK  status: ('A' for Active; 'I' for Inactive)
REMARK    1  A    between atoms: N1_1  and  C1_2 
REMARK    2  A    between atoms: C6_7  and  C7_8 
REMARK    3  A    between atoms: C7_8  and  C8_9 
REMARK    4  A    between atoms: C11_12  and  N2_13 
REMARK    5  A    between atoms: N2_13  and  C12_14 
REMARK    6  A    between atoms: C16_19  and  C17_20 
REMARK    7  A    between atoms: C17_20  and  C18_22 
ROOT
HETATM    1  C8  UNL     1      25.644   2.101  52.932  1.00  0.00    -0.059 C 
HETATM    2  C9  UNL     1      26.411   2.427  51.863  1.00  0.00    -0.014 C 
HETATM    3  C10 UNL     1      26.233   2.991  50.477  1.00  0.00     0.106 C 
HETATM    4  C11 UNL     1      24.795   2.822  50.124  1.00  0.00     0.107 C 
HETATM    5  N3  UNL     1      24.110   2.095  50.841  1.00  0.00    -0.245 NA
HETATM    6  C20 UNL     1      22.855   1.605  51.004  1.00  0.00     0.152 C 
HETATM    7  C21 UNL     1      22.623   0.947  52.126  1.00  0.00     0.098 C 
HETATM    8  N4  UNL     1      23.358   1.201  53.136  1.00  0.00    -0.282 NA
HETATM    9  C22 UNL     1      24.192   2.364  53.074  1.00  0.00     0.183 C 
ENDROOT
BRANCH   4  10
HETATM   10  N2  UNL     1      24.178   3.400  48.993  1.00  0.00    -0.344 N 
HETATM   11  H12 UNL     1      23.893   2.692  48.243  1.00  0.00     0.167 HD
BRANCH  10  12
HETATM   12  C12 UNL     1      23.931   4.770  48.761  1.00  0.00     0.034 A 
HETATM   13  C13 UNL     1      22.872   5.092  47.901  1.00  0.00     0.032 A 
HETATM   14  C14 UNL     1      22.550   6.392  47.589  1.00  0.00     0.045 A 
HETATM   15  C15 UNL     1      23.256   7.456  48.106  1.00  0.00     0.125 A 
HETATM   16  F1  UNL     1      22.895   8.707  47.766  1.00  0.00    -0.205 F 
HETATM   17  C16 UNL     1      24.304   7.168  48.954  1.00  0.00     0.018 A 
HETATM   18  C19 UNL     1      24.593   5.854  49.242  1.00  0.00     0.042 A 
BRANCH  17  19
HETATM   19  C17 UNL     1      25.101   8.278  49.539  1.00  0.00     0.234 C 
HETATM   20  F2  UNL     1      24.487   8.687  50.712  1.00  0.00    -0.242 F 
BRANCH  19  21
HETATM   21  C18 UNL     1      26.535   7.857  49.792  1.00  0.00     0.264 C 
HETATM   22  F3  UNL     1      27.099   8.803  50.632  1.00  0.00    -0.252 F 
ENDBRANCH  19  21
ENDBRANCH  17  19
ENDBRANCH  10  12
ENDBRANCH   4  10
BRANCH   1  23
HETATM   23  C7  UNL     1      26.355   1.523  54.145  1.00  0.00     0.076 C 
BRANCH  23  24
HETATM   24  C6  UNL     1      27.086   0.303  53.729  1.00  0.00    -0.028 A 
HETATM   25  C1  UNL     1      28.430   0.276  54.053  1.00  0.00     0.032 A 
HETATM   26  C2  UNL     1      29.151  -0.835  53.689  1.00  0.00     0.029 A 
HETATM   27  C3  UNL     1      28.540  -1.866  53.027  1.00  0.00     0.002 A 
HETATM   28  C4  UNL     1      27.188  -1.854  52.693  1.00  0.00     0.001 A 
HETATM   29  C5  UNL     1      26.460  -0.750  53.053  1.00  0.00     0.010 A 
BRANCH  25  30
HETATM   30  N1  UNL     1      29.056   1.361  54.745  1.00  0.00    -0.399 N 
HETATM   31  H1  UNL     1      28.763   1.356  55.731  1.00  0.00     0.156 HD
HETATM   32  H2  UNL     1      29.724   2.071  54.318  1.00  0.00     0.156 HD
ENDBRANCH  25  30
ENDBRANCH  23  24
ENDBRANCH   1  23
TORSDOF 7
ENDMDL
MODEL 7
REMARK VINA RESULT:      -8.0      3.796      7.947
REMARK  7 active torsions:
REMARK  status: ('A' for Active; 'I' for Inactive)
REMARK    1  A    between atoms: N1_1  and  C1_2 
REMARK    2  A    between atoms: C6_7  and  C7_8 
REMARK    3  A    between atoms: C7_8  and  C8_9 
REMARK    4  A    between atoms: C11_12  and  N2_13 
REMARK    5  A    between atoms: N2_13  and  C12_14 
REMARK    6  A    between atoms: C16_19  and  C17_20 
REMARK    7  A    between atoms: C17_20  and  C18_22 
ROOT
HETATM    1  C8  UNL     1      23.169   4.974  49.342  1.00  0.00    -0.059 C 
HETATM    2  C9  UNL     1      23.100   3.726  48.818  1.00  0.00    -0.014 C 
HETATM    3  C10 UNL     1      22.579   2.366  49.209  1.00  0.00     0.106 C 
HETATM    4  C11 UNL     1      22.400   2.381  50.688  1.00  0.00     0.107 C 
HETATM    5  N3  UNL     1      22.896   3.315  51.317  1.00  0.00    -0.245 NA
HETATM    6  C20 UNL     1      23.047   3.820  52.567  1.00  0.00     0.152 C 
HETATM    7  C21 UNL     1      23.570   5.031  52.651  1.00  0.00     0.098 C 
HETATM    8  N4  UNL     1      23.457   5.806  51.645  1.00  0.00    -0.282 NA
HETATM    9  C22 UNL     1      22.545   5.422  50.610  1.00  0.00     0.183 C 
ENDROOT
BRANCH   4  10
HETATM   10  N2  UNL     1      21.744   1.369  51.422  1.00  0.00    -0.344 N 
HETATM   11  H12 UNL     1      20.729   1.205  51.127  1.00  0.00     0.167 HD
BRANCH  10  12
HETATM   12  C12 UNL     1      22.275   0.598  52.478  1.00  0.00     0.034 A 
HETATM   13  C13 UNL     1      21.379   0.158  53.463  1.00  0.00     0.032 A 
HETATM   14  C14 UNL     1      21.786  -0.585  54.546  1.00  0.00     0.045 A 
HETATM   15  C15 UNL     1      23.105  -0.939  54.725  1.00  0.00     0.125 A 
HETATM   16  F1  UNL     1      23.445  -1.668  55.804  1.00  0.00    -0.205 F 
HETATM   17  C16 UNL     1      24.009  -0.518  53.772  1.00  0.00     0.018 A 
HETATM   18  C19 UNL     1      23.561   0.223  52.704  1.00  0.00     0.042 A 
BRANCH  17  19
HETATM   19  C17 UNL     1      25.445  -0.870  53.919  1.00  0.00     0.234 C 
HETATM   20  F2  UNL     1      26.005  -0.961  52.653  1.00  0.00    -0.242 F 
BRANCH  19  21
HETATM   21  C18 UNL     1      26.181   0.148  54.767  1.00  0.00     0.264 C 
HETATM   22  F3  UNL     1      27.263   0.595  54.027  1.00  0.00    -0.252 F 
ENDBRANCH  19  21
ENDBRANCH  17  19
ENDBRANCH  10  12
ENDBRANCH   4  10
BRANCH   1  23
HETATM   23  C7  UNL     1      23.845   6.042  48.499  1.00  0.00     0.076 C 
BRANCH  23  24
HETATM   24  C6  UNL     1      25.310   5.825  48.543  1.00  0.00    -0.028 A 
HETATM   25  C1  UNL     1      26.080   6.863  48.051  1.00  0.00     0.032 A 
HETATM   26  C2  UNL     1      27.445   6.709  48.070  1.00  0.00     0.029 A 
HETATM   27  C3  UNL     1      28.001   5.558  48.561  1.00  0.00     0.002 A 
HETATM   28  C4  UNL     1      27.240   4.503  49.059  1.00  0.00     0.001 A 
HETATM   29  C5  UNL     1      25.877   4.648  49.045  1.00  0.00     0.010 A 
BRANCH  25  30
HETATM   30  N1  UNL     1      25.485   8.061  47.541  1.00  0.00    -0.399 N 
HETATM   31  H1  UNL     1      25.396   8.751  48.298  1.00  0.00     0.156 HD
HETATM   32  H2  UNL     1      25.178   8.226  46.535  1.00  0.00     0.156 HD
ENDBRANCH  25  30
ENDBRANCH  23  24
ENDBRANCH   1  23
TORSDOF 7
ENDMDL
MODEL 8
REMARK VINA RESULT:      -8.0      4.622      7.110
REMARK  7 active torsions:
REMARK  status: ('A' for Active; 'I' for Inactive)
REMARK    1  A    between atoms: N1_1  and  C1_2 
REMARK    2  A    between atoms: C6_7  and  C7_8 
REMARK    3  A    between atoms: C7_8  and  C8_9 
REMARK    4  A    between atoms: C11_12  and  N2_13 
REMARK    5  A    between atoms: N2_13  and  C12_14 
REMARK    6  A    between atoms: C16_19  and  C17_20 
REMARK    7  A    between atoms: C17_20  and  C18_22 
ROOT
HETATM    1  C8  UNL     1      24.959   0.494  53.291  1.00  0.00    -0.059 C 
HETATM    2  C9  UNL     1      23.850  -0.227  53.587  1.00  0.00    -0.014 C 
HETATM    3  C10 UNL     1      22.516  -0.551  52.965  1.00  0.00     0.106 C 
HETATM    4  C11 UNL     1      22.274   0.471  51.907  1.00  0.00     0.107 C 
HETATM    5  N3  UNL     1      23.004   1.460  51.887  1.00  0.00    -0.245 NA
HETATM    6  C20 UNL     1      23.242   2.618  51.221  1.00  0.00     0.152 C 
HETATM    7  C21 UNL     1      24.342   3.271  51.554  1.00  0.00     0.098 C 
HETATM    8  N4  UNL     1      25.301   2.610  52.073  1.00  0.00    -0.282 NA
HETATM    9  C22 UNL     1      25.234   1.180  52.007  1.00  0.00     0.183 C 
ENDROOT
BRANCH   4  10
HETATM   10  N2  UNL     1      21.231   0.404  50.958  1.00  0.00    -0.344 N 
HETATM   11  H12 UNL     1      21.536   0.040  50.000  1.00  0.00     0.167 HD
BRANCH  10  12
HETATM   12  C12 UNL     1      19.882   0.776  51.143  1.00  0.00     0.034 A 
HETATM   13  C13 UNL     1      19.030  -0.172  51.726  1.00  0.00     0.032 A 
HETATM   14  C14 UNL     1      17.694   0.074  51.939  1.00  0.00     0.045 A 
HETATM   15  C15 UNL     1      17.116   1.274  51.588  1.00  0.00     0.125 A 
HETATM   16  F1  UNL     1      15.803   1.459  51.821  1.00  0.00    -0.205 F 
HETATM   17  C16 UNL     1      17.930   2.226  51.012  1.00  0.00     0.018 A 
HETATM   18  C19 UNL     1      19.261   1.940  50.817  1.00  0.00     0.042 A 
BRANCH  17  19
HETATM   19  C17 UNL     1      17.356   3.537  50.611  1.00  0.00     0.234 C 
HETATM   20  F2  UNL     1      17.170   4.300  51.754  1.00  0.00    -0.242 F 
BRANCH  19  21
HETATM   21  C18 UNL     1      18.250   4.252  49.618  1.00  0.00     0.264 C 
HETATM   22  F3  UNL     1      18.904   5.261  50.307  1.00  0.00    -0.252 F 
ENDBRANCH  19  21
ENDBRANCH  17  19
ENDBRANCH  10  12
ENDBRANCH   4  10
BRANCH   1  23
HETATM   23  C7  UNL     1      26.076   0.502  54.322  1.00  0.00     0.076 C 
BRANCH  23  24
HETATM   24  C6  UNL     1      27.147  -0.416  53.869  1.00  0.00    -0.028 A 
HETATM   25  C1  UNL     1      28.428  -0.073  54.260  1.00  0.00     0.032 A 
HETATM   26  C2  UNL     1      29.457  -0.893  53.864  1.00  0.00     0.029 A 
HETATM   27  C3  UNL     1      29.199  -2.004  53.106  1.00  0.00     0.002 A 
HETATM   28  C4  UNL     1      27.914  -2.363  52.703  1.00  0.00     0.001 A 
HETATM   29  C5  UNL     1      26.882  -1.552  53.095  1.00  0.00     0.010 A 
BRANCH  25  30
HETATM   30  N1  UNL     1      28.684   1.091  55.052  1.00  0.00    -0.399 N 
HETATM   31  H1  UNL     1      28.387   1.930  54.537  1.00  0.00     0.156 HD
HETATM   32  H2  UNL     1      29.113   1.101  56.026  1.00  0.00     0.156 HD
ENDBRANCH  25  30
ENDBRANCH  23  24
ENDBRANCH   1  23
TORSDOF 7
ENDMDL
MODEL 9
REMARK VINA RESULT:      -7.9      4.364      6.276
REMARK  7 active torsions:
REMARK  status: ('A' for Active; 'I' for Inactive)
REMARK    1  A    between atoms: N1_1  and  C1_2 
REMARK    2  A    between atoms: C6_7  and  C7_8 
REMARK    3  A    between atoms: C7_8  and  C8_9 
REMARK    4  A    between atoms: C11_12  and  N2_13 
REMARK    5  A    between atoms: N2_13  and  C12_14 
REMARK    6  A    between atoms: C16_19  and  C17_20 
REMARK    7  A    between atoms: C17_20  and  C18_22 
ROOT
HETATM    1  C8  UNL     1      25.715   1.733  52.622  1.00  0.00    -0.059 C 
HETATM    2  C9  UNL     1      24.394   1.578  52.880  1.00  0.00    -0.014 C 
HETATM    3  C10 UNL     1      23.095   1.519  52.117  1.00  0.00     0.106 C 
HETATM    4  C11 UNL     1      23.354   2.117  50.777  1.00  0.00     0.107 C 
HETATM    5  N3  UNL     1      24.407   2.731  50.617  1.00  0.00    -0.245 NA
HETATM    6  C20 UNL     1      25.127   3.426  49.700  1.00  0.00     0.152 C 
HETATM    7  C21 UNL     1      26.362   3.748  50.046  1.00  0.00     0.098 C 
HETATM    8  N4  UNL     1      26.945   3.036  50.928  1.00  0.00    -0.282 NA
HETATM    9  C22 UNL     1      26.339   1.786  51.279  1.00  0.00     0.183 C 
ENDROOT
BRANCH   4  10
HETATM   10  N2  UNL     1      22.449   2.069  49.694  1.00  0.00    -0.344 N 
HETATM   11  H12 UNL     1      22.717   1.367  48.933  1.00  0.00     0.167 HD
BRANCH  10  12
HETATM   12  C12 UNL     1      21.283   2.844  49.521  1.00  0.00     0.034 A 
HETATM   13  C13 UNL     1      21.437   4.114  48.948  1.00  0.00     0.032 A 
HETATM   14  C14 UNL     1      20.373   4.963  48.746  1.00  0.00     0.045 A 
HETATM   15  C15 UNL     1      19.090   4.609  49.100  1.00  0.00     0.125 A 
HETATM   16  F1  UNL     1      18.088   5.479  48.878  1.00  0.00    -0.205 F 
HETATM   17  C16 UNL     1      18.909   3.365  49.667  1.00  0.00     0.018 A 
HETATM   18  C19 UNL     1      19.999   2.547  49.851  1.00  0.00     0.042 A 
BRANCH  17  19
HETATM   19  C17 UNL     1      17.544   2.935  50.070  1.00  0.00     0.234 C 
HETATM   20  F2  UNL     1      17.422   1.576  49.819  1.00  0.00    -0.242 F 
BRANCH  19  21
HETATM   21  C18 UNL     1      17.274   3.246  51.529  1.00  0.00     0.264 C 
HETATM   22  F3  UNL     1      16.887   4.574  51.600  1.00  0.00    -0.252 F 
ENDBRANCH  19  21
ENDBRANCH  17  19
ENDBRANCH  10  12
ENDBRANCH   4  10
BRANCH   1  23
HETATM   23  C7  UNL     1      26.658   1.734  53.814  1.00  0.00     0.076 C 
BRANCH  23  24
HETATM   24  C6  UNL     1      27.645   0.643  53.639  1.00  0.00    -0.028 A 
HETATM   25  C1  UNL     1      28.968   1.005  53.814  1.00  0.00     0.032 A 
HETATM   26  C2  UNL     1      29.921   0.027  53.662  1.00  0.00     0.029 A 
HETATM   27  C3  UNL     1      29.551  -1.253  53.347  1.00  0.00     0.002 A 
HETATM   28  C4  UNL     1      28.223  -1.634  53.166  1.00  0.00     0.001 A 
HETATM   29  C5  UNL     1      27.265  -0.665  53.317  1.00  0.00     0.010 A 
BRANCH  25  30
HETATM   30  N1  UNL     1      29.341   2.346  54.144  1.00  0.00    -0.399 N 
HETATM   31  H1  UNL     1      29.665   2.384  55.119  1.00  0.00     0.156 HD
HETATM   32  H2  UNL     1      29.296   3.185  53.490  1.00  0.00     0.156 HD
ENDBRANCH  25  30
ENDBRANCH  23  24
ENDBRANCH   1  23
TORSDOF 7
ENDMDL
