MODEL 1
REMARK VINA RESULT:      -7.0      0.000      0.000
REMARK  8 active torsions:
REMARK  status: ('A' for Active; 'I' for Inactive)
REMARK    1  A    between atoms: C3_3  and  C4_4 
REMARK    2  A    between atoms: C4_4  and  N1_5 
REMARK       I    between atoms: N1_5  and  C5_6 
REMARK    3  A    between atoms: C5_6  and  C6_8 
REMARK    4  A    between atoms: N2_12  and  C10_13 
REMARK    5  A    between atoms: C12_16  and  C13_17 
REMARK    6  A    between atoms: C13_17  and  C14_18 
REMARK    7  A    between atoms: N4_19  and  C15_20 
REMARK    8  A    between atoms: C15_20  and  C16_21 
ROOT
HETATM    1  C1  UNL     1      27.108  -1.324  52.491  1.00  0.00     0.112 C 
HETATM    2  C2  UNL     1      26.466  -0.035  52.161  1.00  0.00    -0.109 C 
HETATM    3  C3  UNL     1      25.950   1.027  51.903  1.00  0.00    -0.087 C 
ENDROOT
BRANCH   3   4
HETATM    4  C4  UNL     1      25.296   2.310  51.587  1.00  0.00     0.217 C 
BRANCH   4   5
HETATM    5  N1  UNL     1      26.272   3.290  51.142  1.00  0.00    -0.346 N 
HETATM    6  C5  UNL     1      25.812   4.024  50.020  1.00  0.00     0.252 C 
HETATM    7  O1  UNL     1      24.664   3.678  49.645  1.00  0.00    -0.268 OA
HETATM    8  H6  UNL     1      27.221   3.530  51.504  1.00  0.00     0.163 HD
BRANCH   6   9
HETATM    9  C6  UNL     1      26.493   5.083  49.292  1.00  0.00     0.033 C 
HETATM   10  C7  UNL     1      25.989   6.300  49.193  1.00  0.00     0.018 C 
HETATM   11  C8  UNL     1      26.446   7.518  48.543  1.00  0.00     0.019 C 
HETATM   12  C9  UNL     1      27.663   7.754  48.055  1.00  0.00     0.098 C 
HETATM   13  N2  UNL     1      28.797   6.869  48.058  1.00  0.00    -0.320 N 
HETATM   14  C19 UNL     1      28.725   5.458  48.166  1.00  0.00     0.099 C 
HETATM   15  C20 UNL     1      27.751   4.731  48.686  1.00  0.00     0.034 C 
BRANCH  13  16
HETATM   16  C10 UNL     1      30.088   7.452  47.943  1.00  0.00     0.125 C 
HETATM   17  N3  UNL     1      30.835   7.870  48.896  1.00  0.00    -0.269 NA
HETATM   18  C11 UNL     1      32.144   8.444  48.556  1.00  0.00     0.205 C 
HETATM   19  C12 UNL     1      32.769   7.494  47.603  1.00  0.00     0.031 C 
HETATM   20  N5  UNL     1      32.011   7.103  46.646  1.00  0.00    -0.289 NA
HETATM   21  C18 UNL     1      30.646   7.599  46.567  1.00  0.00     0.227 C 
BRANCH  19  22
HETATM   22  C13 UNL     1      34.185   7.088  47.833  1.00  0.00     0.102 C 
BRANCH  22  23
HETATM   23  C14 UNL     1      34.167   5.831  48.652  1.00  0.00     0.089 C 
HETATM   24  N4  UNL     1      34.383   4.672  48.152  1.00  0.00    -0.305 NA
BRANCH  24  25
HETATM   25  C15 UNL     1      34.656   4.580  46.733  1.00  0.00     0.147 C 
BRANCH  25  26
HETATM   26  C16 UNL     1      33.993   3.303  46.208  1.00  0.00     0.017 C 
HETATM   27  C17 UNL     1      32.504   3.431  46.336  1.00  0.00     0.007 C 
ENDBRANCH  25  26
ENDBRANCH  24  25
ENDBRANCH  22  23
ENDBRANCH  19  22
ENDBRANCH  13  16
ENDBRANCH   6   9
ENDBRANCH   4   5
ENDBRANCH   3   4
TORSDOF 8
ENDMDL
MODEL 2
REMARK VINA RESULT:      -6.7      7.594     13.497
REMARK  8 active torsions:
REMARK  status: ('A' for Active; 'I' for Inactive)
REMARK    1  A    between atoms: C3_3  and  C4_4 
REMARK    2  A    between atoms: C4_4  and  N1_5 
REMARK       I    between atoms: N1_5  and  C5_6 
REMARK    3  A    between atoms: C5_6  and  C6_8 
REMARK    4  A    between atoms: N2_12  and  C10_13 
REMARK    5  A    between atoms: C12_16  and  C13_17 
REMARK    6  A    between atoms: C13_17  and  C14_18 
REMARK    7  A    between atoms: N4_19  and  C15_20 
REMARK    8  A    between atoms: C15_20  and  C16_21 
ROOT
HETATM    1  C1  UNL     1      29.737  -1.264  53.694  1.00  0.00     0.112 C 
HETATM    2  C2  UNL     1      28.824  -0.107  53.605  1.00  0.00    -0.109 C 
HETATM    3  C3  UNL     1      28.070   0.835  53.519  1.00  0.00    -0.087 C 
ENDROOT
BRANCH   3   4
HETATM    4  C4  UNL     1      27.172   2.000  53.420  1.00  0.00     0.217 C 
BRANCH   4   5
HETATM    5  N1  UNL     1      25.810   1.631  53.769  1.00  0.00    -0.346 N 
HETATM    6  C5  UNL     1      25.007   1.421  52.620  1.00  0.00     0.252 C 
HETATM    7  O1  UNL     1      25.634   1.596  51.546  1.00  0.00    -0.268 OA
HETATM    8  H6  UNL     1      25.349   1.501  54.696  1.00  0.00     0.163 HD
BRANCH   6   9
HETATM    9  C6  UNL     1      23.605   1.042  52.555  1.00  0.00     0.033 C 
HETATM   10  C7  UNL     1      23.001   0.422  53.552  1.00  0.00     0.018 C 
HETATM   11  C8  UNL     1      21.643  -0.060  53.750  1.00  0.00     0.019 C 
HETATM   12  C9  UNL     1      20.576   0.230  53.006  1.00  0.00     0.098 C 
HETATM   13  N2  UNL     1      20.520   1.080  51.845  1.00  0.00    -0.320 N 
HETATM   14  C19 UNL     1      21.627   1.405  51.024  1.00  0.00     0.099 C 
HETATM   15  C20 UNL     1      22.910   1.382  51.340  1.00  0.00     0.034 C 
BRANCH  13  16
HETATM   16  C10 UNL     1      19.259   1.636  51.497  1.00  0.00     0.125 C 
HETATM   17  N3  UNL     1      18.113   1.070  51.594  1.00  0.00    -0.269 NA
HETATM   18  C11 UNL     1      16.925   1.828  51.175  1.00  0.00     0.205 C 
HETATM   19  C12 UNL     1      17.052   3.164  51.808  1.00  0.00     0.031 C 
HETATM   20  N5  UNL     1      18.200   3.720  51.684  1.00  0.00    -0.289 NA
HETATM   21  C18 UNL     1      19.255   3.028  50.961  1.00  0.00     0.227 C 
BRANCH  19  22
HETATM   22  C13 UNL     1      15.866   3.730  52.513  1.00  0.00     0.102 C 
BRANCH  22  23
HETATM   23  C14 UNL     1      14.764   2.716  52.430  1.00  0.00     0.089 C 
HETATM   24  N4  UNL     1      13.544   2.989  52.710  1.00  0.00    -0.305 NA
BRANCH  24  25
HETATM   25  C15 UNL     1      13.224   4.339  53.124  1.00  0.00     0.147 C 
BRANCH  25  26
HETATM   26  C16 UNL     1      12.435   4.255  54.434  1.00  0.00     0.017 C 
HETATM   27  C17 UNL     1      11.663   2.970  54.464  1.00  0.00     0.007 C 
ENDBRANCH  25  26
ENDBRANCH  24  25
ENDBRANCH  22  23
ENDBRANCH  19  22
ENDBRANCH  13  16
ENDBRANCH   6   9
ENDBRANCH   4   5
ENDBRANCH   3   4
TORSDOF 8
ENDMDL
MODEL 3
REMARK VINA RESULT:      -6.4      6.697     12.560
REMARK  8 active torsions:
REMARK  status: ('A' for Active; 'I' for Inactive)
REMARK    1  A    between atoms: C3_3  and  C4_4 
REMARK    2  A    between atoms: C4_4  and  N1_5 
REMARK       I    between atoms: N1_5  and  C5_6 
REMARK    3  A    between atoms: C5_6  and  C6_8 
REMARK    4  A    between atoms: N2_12  and  C10_13 
REMARK    5  A    between atoms: C12_16  and  C13_17 
REMARK    6  A    between atoms: C13_17  and  C14_18 
REMARK    7  A    between atoms: N4_19  and  C15_20 
REMARK    8  A    between atoms: C15_20  and  C16_21 
ROOT
HETATM    1  C1  UNL     1      29.867  -1.578  53.658  1.00  0.00     0.112 C 
HETATM    2  C2  UNL     1      29.380  -0.184  53.634  1.00  0.00    -0.109 C 
HETATM    3  C3  UNL     1      28.977   0.956  53.628  1.00  0.00    -0.087 C 
ENDROOT
BRANCH   3   4
HETATM    4  C4  UNL     1      28.474   2.342  53.598  1.00  0.00     0.217 C 
BRANCH   4   5
HETATM    5  N1  UNL     1      27.021   2.364  53.615  1.00  0.00    -0.346 N 
HETATM    6  C5  UNL     1      26.480   2.565  52.320  1.00  0.00     0.252 C 
HETATM    7  O1  UNL     1      27.362   2.682  51.433  1.00  0.00    -0.268 OA
HETATM    8  H6  UNL     1      26.341   2.258  54.399  1.00  0.00     0.163 HD
BRANCH   6   9
HETATM    9  C6  UNL     1      25.082   2.645  51.928  1.00  0.00     0.033 C 
HETATM   10  C7  UNL     1      24.707   3.170  50.777  1.00  0.00     0.018 C 
HETATM   11  C8  UNL     1      23.411   3.372  50.148  1.00  0.00     0.019 C 
HETATM   12  C9  UNL     1      22.250   2.837  50.522  1.00  0.00     0.098 C 
HETATM   13  N2  UNL     1      22.009   1.943  51.625  1.00  0.00    -0.320 N 
HETATM   14  C19 UNL     1      22.844   1.816  52.762  1.00  0.00     0.099 C 
HETATM   15  C20 UNL     1      24.127   2.116  52.868  1.00  0.00     0.034 C 
BRANCH  13  16
HETATM   16  C10 UNL     1      20.848   1.127  51.569  1.00  0.00     0.125 C 
HETATM   17  N3  UNL     1      20.123   0.746  52.555  1.00  0.00    -0.269 NA
HETATM   18  C11 UNL     1      18.956  -0.103  52.275  1.00  0.00     0.205 C 
HETATM   19  C12 UNL     1      18.242   0.547  51.149  1.00  0.00     0.031 C 
HETATM   20  N5  UNL     1      18.982   0.903  50.165  1.00  0.00    -0.289 NA
HETATM   21  C18 UNL     1      20.414   0.654  50.222  1.00  0.00     0.227 C 
BRANCH  19  22
HETATM   22  C13 UNL     1      16.765   0.725  51.254  1.00  0.00     0.102 C 
BRANCH  22  23
HETATM   23  C14 UNL     1      16.278  -0.176  52.351  1.00  0.00     0.089 C 
HETATM   24  N4  UNL     1      15.287   0.120  53.105  1.00  0.00    -0.305 NA
BRANCH  24  25
HETATM   25  C15 UNL     1      14.611   1.381  52.883  1.00  0.00     0.147 C 
BRANCH  25  26
HETATM   26  C16 UNL     1      13.161   1.076  52.496  1.00  0.00     0.017 C 
HETATM   27  C17 UNL     1      12.692   2.092  51.498  1.00  0.00     0.007 C 
ENDBRANCH  25  26
ENDBRANCH  24  25
ENDBRANCH  22  23
ENDBRANCH  19  22
ENDBRANCH  13  16
ENDBRANCH   6   9
ENDBRANCH   4   5
ENDBRANCH   3   4
TORSDOF 8
ENDMDL
MODEL 4
REMARK VINA RESULT:      -6.3      4.082      5.807
REMARK  8 active torsions:
REMARK  status: ('A' for Active; 'I' for Inactive)
REMARK    1  A    between atoms: C3_3  and  C4_4 
REMARK    2  A    between atoms: C4_4  and  N1_5 
REMARK       I    between atoms: N1_5  and  C5_6 
REMARK    3  A    between atoms: C5_6  and  C6_8 
REMARK    4  A    between atoms: N2_12  and  C10_13 
REMARK    5  A    between atoms: C12_16  and  C13_17 
REMARK    6  A    between atoms: C13_17  and  C14_18 
REMARK    7  A    between atoms: N4_19  and  C15_20 
REMARK    8  A    between atoms: C15_20  and  C16_21 
ROOT
HETATM    1  C1  UNL     1      30.175  -0.902  53.454  1.00  0.00     0.112 C 
HETATM    2  C2  UNL     1      28.871  -0.473  53.999  1.00  0.00    -0.109 C 
HETATM    3  C3  UNL     1      27.800  -0.114  54.432  1.00  0.00    -0.087 C 
ENDROOT
BRANCH   3   4
HETATM    4  C4  UNL     1      26.507   0.330  54.983  1.00  0.00     0.217 C 
BRANCH   4   5
HETATM    5  N1  UNL     1      26.164   1.654  54.491  1.00  0.00    -0.346 N 
HETATM    6  C5  UNL     1      25.400   1.594  53.297  1.00  0.00     0.252 C 
HETATM    7  O1  UNL     1      25.180   0.418  52.915  1.00  0.00    -0.268 OA
HETATM    8  H6  UNL     1      26.382   2.604  54.862  1.00  0.00     0.163 HD
BRANCH   6   9
HETATM    9  C6  UNL     1      24.870   2.694  52.508  1.00  0.00     0.033 C 
HETATM   10  C7  UNL     1      24.077   3.611  53.030  1.00  0.00     0.018 C 
HETATM   11  C8  UNL     1      23.420   4.789  52.485  1.00  0.00     0.019 C 
HETATM   12  C9  UNL     1      23.666   5.368  51.310  1.00  0.00     0.098 C 
HETATM   13  N2  UNL     1      24.628   4.967  50.317  1.00  0.00    -0.320 N 
HETATM   14  C19 UNL     1      25.170   3.664  50.193  1.00  0.00     0.099 C 
HETATM   15  C20 UNL     1      25.261   2.728  51.122  1.00  0.00     0.034 C 
BRANCH  13  16
HETATM   16  C10 UNL     1      25.068   5.951  49.392  1.00  0.00     0.125 C 
HETATM   17  N3  UNL     1      24.419   6.981  48.994  1.00  0.00    -0.269 NA
HETATM   18  C11 UNL     1      25.063   7.879  48.024  1.00  0.00     0.205 C 
HETATM   19  C12 UNL     1      26.429   8.127  48.547  1.00  0.00     0.031 C 
HETATM   20  N5  UNL     1      27.069   7.082  48.923  1.00  0.00    -0.289 NA
HETATM   21  C18 UNL     1      26.433   5.778  48.814  1.00  0.00     0.227 C 
BRANCH  19  22
HETATM   22  C13 UNL     1      26.928   9.532  48.588  1.00  0.00     0.102 C 
BRANCH  22  23
HETATM   23  C14 UNL     1      28.068   9.579  49.563  1.00  0.00     0.089 C 
HETATM   24  N4  UNL     1      29.268   9.859  49.216  1.00  0.00    -0.305 NA
BRANCH  24  25
HETATM   25  C15 UNL     1      29.528  10.143  47.820  1.00  0.00     0.147 C 
BRANCH  25  26
HETATM   26  C16 UNL     1      30.414  11.389  47.750  1.00  0.00     0.017 C 
HETATM   27  C17 UNL     1      30.737  11.845  49.141  1.00  0.00     0.007 C 
ENDBRANCH  25  26
ENDBRANCH  24  25
ENDBRANCH  22  23
ENDBRANCH  19  22
ENDBRANCH  13  16
ENDBRANCH   6   9
ENDBRANCH   4   5
ENDBRANCH   3   4
TORSDOF 8
ENDMDL
MODEL 5
REMARK VINA RESULT:      -6.2      3.108      9.147
REMARK  8 active torsions:
REMARK  status: ('A' for Active; 'I' for Inactive)
REMARK    1  A    between atoms: C3_3  and  C4_4 
REMARK    2  A    between atoms: C4_4  and  N1_5 
REMARK       I    between atoms: N1_5  and  C5_6 
REMARK    3  A    between atoms: C5_6  and  C6_8 
REMARK    4  A    between atoms: N2_12  and  C10_13 
REMARK    5  A    between atoms: C12_16  and  C13_17 
REMARK    6  A    between atoms: C13_17  and  C14_18 
REMARK    7  A    between atoms: N4_19  and  C15_20 
REMARK    8  A    between atoms: C15_20  and  C16_21 
ROOT
HETATM    1  C1  UNL     1      32.399   3.097  46.726  1.00  0.00     0.112 C 
HETATM    2  C2  UNL     1      31.619   4.222  47.279  1.00  0.00    -0.109 C 
HETATM    3  C3  UNL     1      30.994   5.150  47.737  1.00  0.00    -0.087 C 
ENDROOT
BRANCH   3   4
HETATM    4  C4  UNL     1      30.214   6.265  48.306  1.00  0.00     0.217 C 
BRANCH   4   5
HETATM    5  N1  UNL     1      28.927   5.798  48.793  1.00  0.00    -0.346 N 
HETATM    6  C5  UNL     1      27.859   6.603  48.322  1.00  0.00     0.252 C 
HETATM    7  O1  UNL     1      28.243   7.546  47.588  1.00  0.00    -0.268 OA
HETATM    8  H6  UNL     1      28.675   4.995  49.409  1.00  0.00     0.163 HD
BRANCH   6   9
HETATM    9  C6  UNL     1      26.436   6.459  48.585  1.00  0.00     0.033 C 
HETATM   10  C7  UNL     1      25.521   7.006  47.805  1.00  0.00     0.018 C 
HETATM   11  C8  UNL     1      24.067   7.021  47.833  1.00  0.00     0.019 C 
HETATM   12  C9  UNL     1      23.275   6.252  48.578  1.00  0.00     0.098 C 
HETATM   13  N2  UNL     1      23.669   5.236  49.518  1.00  0.00    -0.320 N 
HETATM   14  C19 UNL     1      24.933   5.165  50.153  1.00  0.00     0.099 C 
HETATM   15  C20 UNL     1      26.079   5.684  49.745  1.00  0.00     0.034 C 
BRANCH  13  16
HETATM   16  C10 UNL     1      22.718   4.228  49.835  1.00  0.00     0.125 C 
HETATM   17  N3  UNL     1      22.369   3.238  49.101  1.00  0.00    -0.269 NA
HETATM   18  C11 UNL     1      21.360   2.305  49.624  1.00  0.00     0.205 C 
HETATM   19  C12 UNL     1      21.789   1.976  51.006  1.00  0.00     0.031 C 
HETATM   20  N5  UNL     1      22.116   2.982  51.729  1.00  0.00    -0.289 NA
HETATM   21  C18 UNL     1      22.048   4.321  51.165  1.00  0.00     0.227 C 
BRANCH  19  22
HETATM   22  C13 UNL     1      21.800   0.545  51.423  1.00  0.00     0.102 C 
BRANCH  22  23
HETATM   23  C14 UNL     1      21.544   0.503  52.900  1.00  0.00     0.089 C 
HETATM   24  N4  UNL     1      22.388   0.031  53.740  1.00  0.00    -0.305 NA
BRANCH  24  25
HETATM   25  C15 UNL     1      23.644  -0.480  53.232  1.00  0.00     0.147 C 
BRANCH  25  26
HETATM   26  C16 UNL     1      24.702   0.613  53.405  1.00  0.00     0.017 C 
HETATM   27  C17 UNL     1      25.876   0.308  52.523  1.00  0.00     0.007 C 
ENDBRANCH  25  26
ENDBRANCH  24  25
ENDBRANCH  22  23
ENDBRANCH  19  22
ENDBRANCH  13  16
ENDBRANCH   6   9
ENDBRANCH   4   5
ENDBRANCH   3   4
TORSDOF 8
ENDMDL
MODEL 6
REMARK VINA RESULT:      -6.2      5.366     12.074
REMARK  8 active torsions:
REMARK  status: ('A' for Active; 'I' for Inactive)
REMARK    1  A    between atoms: C3_3  and  C4_4 
REMARK    2  A    between atoms: C4_4  and  N1_5 
REMARK       I    between atoms: N1_5  and  C5_6 
REMARK    3  A    between atoms: C5_6  and  C6_8 
REMARK    4  A    between atoms: N2_12  and  C10_13 
REMARK    5  A    between atoms: C12_16  and  C13_17 
REMARK    6  A    between atoms: C13_17  and  C14_18 
REMARK    7  A    between atoms: N4_19  and  C15_20 
REMARK    8  A    between atoms: C15_20  and  C16_21 
ROOT
HETATM    1  C1  UNL     1      25.733   8.918  45.519  1.00  0.00     0.112 C 
HETATM    2  C2  UNL     1      26.395   8.183  46.616  1.00  0.00    -0.109 C 
HETATM    3  C3  UNL     1      26.950   7.588  47.510  1.00  0.00    -0.087 C 
ENDROOT
BRANCH   3   4
HETATM    4  C4  UNL     1      27.615   6.841  48.593  1.00  0.00     0.217 C 
BRANCH   4   5
HETATM    5  N1  UNL     1      26.645   6.079  49.363  1.00  0.00    -0.346 N 
HETATM    6  C5  UNL     1      26.923   4.689  49.337  1.00  0.00     0.252 C 
HETATM    7  O1  UNL     1      27.941   4.405  48.658  1.00  0.00    -0.268 OA
HETATM    8  H6  UNL     1      25.812   6.382  49.911  1.00  0.00     0.163 HD
BRANCH   6   9
HETATM    9  C6  UNL     1      26.191   3.610  49.980  1.00  0.00     0.033 C 
HETATM   10  C7  UNL     1      26.753   2.821  50.877  1.00  0.00     0.018 C 
HETATM   11  C8  UNL     1      26.267   1.694  51.658  1.00  0.00     0.019 C 
HETATM   12  C9  UNL     1      24.999   1.319  51.814  1.00  0.00     0.098 C 
HETATM   13  N2  UNL     1      23.825   1.935  51.253  1.00  0.00    -0.320 N 
HETATM   14  C19 UNL     1      23.814   2.759  50.101  1.00  0.00     0.099 C 
HETATM   15  C20 UNL     1      24.815   3.451  49.585  1.00  0.00     0.034 C 
BRANCH  13  16
HETATM   16  C10 UNL     1      22.584   1.701  51.904  1.00  0.00     0.125 C 
HETATM   17  N3  UNL     1      21.552   2.461  51.896  1.00  0.00    -0.269 NA
HETATM   18  C11 UNL     1      20.361   2.026  52.641  1.00  0.00     0.205 C 
HETATM   19  C12 UNL     1      20.135   0.612  52.256  1.00  0.00     0.031 C 
HETATM   20  N5  UNL     1      21.176  -0.136  52.288  1.00  0.00    -0.289 NA
HETATM   21  C18 UNL     1      22.454   0.435  52.684  1.00  0.00     0.227 C 
BRANCH  19  22
HETATM   22  C13 UNL     1      18.756   0.192  51.877  1.00  0.00     0.102 C 
BRANCH  22  23
HETATM   23  C14 UNL     1      18.274  -0.775  52.918  1.00  0.00     0.089 C 
HETATM   24  N4  UNL     1      17.074  -1.218  52.953  1.00  0.00    -0.305 NA
BRANCH  24  25
HETATM   25  C15 UNL     1      16.146  -0.762  51.940  1.00  0.00     0.147 C 
BRANCH  25  26
HETATM   26  C16 UNL     1      14.800  -0.494  52.619  1.00  0.00     0.017 C 
HETATM   27  C17 UNL     1      14.201   0.758  52.052  1.00  0.00     0.007 C 
ENDBRANCH  25  26
ENDBRANCH  24  25
ENDBRANCH  22  23
ENDBRANCH  19  22
ENDBRANCH  13  16
ENDBRANCH   6   9
ENDBRANCH   4   5
ENDBRANCH   3   4
TORSDOF 8
ENDMDL
MODEL 7
REMARK VINA RESULT:      -6.2      2.393      2.925
REMARK  8 active torsions:
REMARK  status: ('A' for Active; 'I' for Inactive)
REMARK    1  A    between atoms: C3_3  and  C4_4 
REMARK    2  A    between atoms: C4_4  and  N1_5 
REMARK       I    between atoms: N1_5  and  C5_6 
REMARK    3  A    between atoms: C5_6  and  C6_8 
REMARK    4  A    between atoms: N2_12  and  C10_13 
REMARK    5  A    between atoms: C12_16  and  C13_17 
REMARK    6  A    between atoms: C13_17  and  C14_18 
REMARK    7  A    between atoms: N4_19  and  C15_20 
REMARK    8  A    between atoms: C15_20  and  C16_21 
ROOT
HETATM    1  C1  UNL     1      22.508   0.693  52.054  1.00  0.00     0.112 C 
HETATM    2  C2  UNL     1      22.856   2.123  51.927  1.00  0.00    -0.109 C 
HETATM    3  C3  UNL     1      23.148   3.291  51.809  1.00  0.00    -0.087 C 
ENDROOT
BRANCH   3   4
HETATM    4  C4  UNL     1      23.511   4.715  51.690  1.00  0.00     0.217 C 
BRANCH   4   5
HETATM    5  N1  UNL     1      24.846   4.861  51.134  1.00  0.00    -0.346 N 
HETATM    6  C5  UNL     1      24.843   5.638  49.948  1.00  0.00     0.252 C 
HETATM    7  O1  UNL     1      23.695   6.035  49.625  1.00  0.00    -0.268 OA
HETATM    8  H6  UNL     1      25.769   4.500  51.458  1.00  0.00     0.163 HD
BRANCH   6   9
HETATM    9  C6  UNL     1      25.970   6.006  49.107  1.00  0.00     0.033 C 
HETATM   10  C7  UNL     1      26.067   7.199  48.549  1.00  0.00     0.018 C 
HETATM   11  C8  UNL     1      27.059   7.818  47.685  1.00  0.00     0.019 C 
HETATM   12  C9  UNL     1      28.285   7.365  47.425  1.00  0.00     0.098 C 
HETATM   13  N2  UNL     1      28.905   6.169  47.931  1.00  0.00    -0.320 N 
HETATM   14  C19 UNL     1      28.207   5.042  48.430  1.00  0.00     0.099 C 
HETATM   15  C20 UNL     1      26.978   4.996  48.918  1.00  0.00     0.034 C 
BRANCH  13  16
HETATM   16  C10 UNL     1      30.325   6.113  47.932  1.00  0.00     0.125 C 
HETATM   17  N3  UNL     1      31.060   5.140  48.325  1.00  0.00    -0.269 NA
HETATM   18  C11 UNL     1      32.520   5.290  48.239  1.00  0.00     0.205 C 
HETATM   19  C12 UNL     1      32.795   5.810  46.878  1.00  0.00     0.031 C 
HETATM   20  N5  UNL     1      32.062   6.795  46.510  1.00  0.00    -0.289 NA
HETATM   21  C18 UNL     1      31.052   7.312  47.420  1.00  0.00     0.227 C 
BRANCH  19  22
HETATM   22  C13 UNL     1      33.872   5.161  46.075  1.00  0.00     0.102 C 
BRANCH  22  23
HETATM   23  C14 UNL     1      33.208   4.339  45.010  1.00  0.00     0.089 C 
HETATM   24  N4  UNL     1      33.192   4.682  43.776  1.00  0.00    -0.305 NA
BRANCH  24  25
HETATM   25  C15 UNL     1      33.846   5.919  43.402  1.00  0.00     0.147 C 
BRANCH  25  26
HETATM   26  C16 UNL     1      33.935   5.960  41.874  1.00  0.00     0.017 C 
HETATM   27  C17 UNL     1      34.145   4.570  41.353  1.00  0.00     0.007 C 
ENDBRANCH  25  26
ENDBRANCH  24  25
ENDBRANCH  22  23
ENDBRANCH  19  22
ENDBRANCH  13  16
ENDBRANCH   6   9
ENDBRANCH   4   5
ENDBRANCH   3   4
TORSDOF 8
ENDMDL
MODEL 8
REMARK VINA RESULT:      -6.1      8.577     14.943
REMARK  8 active torsions:
REMARK  status: ('A' for Active; 'I' for Inactive)
REMARK    1  A    between atoms: C3_3  and  C4_4 
REMARK    2  A    between atoms: C4_4  and  N1_5 
REMARK       I    between atoms: N1_5  and  C5_6 
REMARK    3  A    between atoms: C5_6  and  C6_8 
REMARK    4  A    between atoms: N2_12  and  C10_13 
REMARK    5  A    between atoms: C12_16  and  C13_17 
REMARK    6  A    between atoms: C13_17  and  C14_18 
REMARK    7  A    between atoms: N4_19  and  C15_20 
REMARK    8  A    between atoms: C15_20  and  C16_21 
ROOT
HETATM    1  C1  UNL     1      26.794   3.920  49.329  1.00  0.00     0.112 C 
HETATM    2  C2  UNL     1      26.245   3.260  50.531  1.00  0.00    -0.109 C 
HETATM    3  C3  UNL     1      25.783   2.717  51.507  1.00  0.00    -0.087 C 
ENDROOT
BRANCH   3   4
HETATM    4  C4  UNL     1      25.228   2.074  52.713  1.00  0.00     0.217 C 
BRANCH   4   5
HETATM    5  N1  UNL     1      23.790   1.905  52.591  1.00  0.00    -0.346 N 
HETATM    6  C5  UNL     1      23.390   0.570  52.855  1.00  0.00     0.252 C 
HETATM    7  O1  UNL     1      24.354  -0.184  53.136  1.00  0.00    -0.268 OA
HETATM    8  H6  UNL     1      23.035   2.584  52.351  1.00  0.00     0.163 HD
BRANCH   6   9
HETATM    9  C6  UNL     1      22.049   0.009  52.836  1.00  0.00     0.033 C 
HETATM   10  C7  UNL     1      21.600  -0.766  53.806  1.00  0.00     0.018 C 
HETATM   11  C8  UNL     1      20.335  -1.445  54.036  1.00  0.00     0.019 C 
HETATM   12  C9  UNL     1      19.191  -1.244  53.383  1.00  0.00     0.098 C 
HETATM   13  N2  UNL     1      18.944  -0.318  52.308  1.00  0.00    -0.320 N 
HETATM   14  C19 UNL     1      19.940   0.221  51.458  1.00  0.00     0.099 C 
HETATM   15  C20 UNL     1      21.234   0.349  51.698  1.00  0.00     0.034 C 
BRANCH  13  16
HETATM   16  C10 UNL     1      17.600   0.085  52.083  1.00  0.00     0.125 C 
HETATM   17  N3  UNL     1      16.601  -0.086  52.867  1.00  0.00    -0.269 NA
HETATM   18  C11 UNL     1      15.286   0.412  52.438  1.00  0.00     0.205 C 
HETATM   19  C12 UNL     1      15.513   1.798  51.960  1.00  0.00     0.031 C 
HETATM   20  N5  UNL     1      16.506   1.945  51.163  1.00  0.00    -0.289 NA
HETATM   21  C18 UNL     1      17.308   0.787  50.799  1.00  0.00     0.227 C 
BRANCH  19  22
HETATM   22  C13 UNL     1      14.592   2.871  52.433  1.00  0.00     0.102 C 
BRANCH  22  23
HETATM   23  C14 UNL     1      13.242   2.604  51.838  1.00  0.00     0.089 C 
HETATM   24  N4  UNL     1      12.214   2.318  52.547  1.00  0.00    -0.305 NA
BRANCH  24  25
HETATM   25  C15 UNL     1      12.371   2.253  53.984  1.00  0.00     0.147 C 
BRANCH  25  26
HETATM   26  C16 UNL     1      11.047   1.768  54.581  1.00  0.00     0.017 C 
HETATM   27  C17 UNL     1      11.158   1.745  56.076  1.00  0.00     0.007 C 
ENDBRANCH  25  26
ENDBRANCH  24  25
ENDBRANCH  22  23
ENDBRANCH  19  22
ENDBRANCH  13  16
ENDBRANCH   6   9
ENDBRANCH   4   5
ENDBRANCH   3   4
TORSDOF 8
ENDMDL
MODEL 9
REMARK VINA RESULT:      -6.1      2.834      3.475
REMARK  8 active torsions:
REMARK  status: ('A' for Active; 'I' for Inactive)
REMARK    1  A    between atoms: C3_3  and  C4_4 
REMARK    2  A    between atoms: C4_4  and  N1_5 
REMARK       I    between atoms: N1_5  and  C5_6 
REMARK    3  A    between atoms: C5_6  and  C6_8 
REMARK    4  A    between atoms: N2_12  and  C10_13 
REMARK    5  A    between atoms: C12_16  and  C13_17 
REMARK    6  A    between atoms: C13_17  and  C14_18 
REMARK    7  A    between atoms: N4_19  and  C15_20 
REMARK    8  A    between atoms: C15_20  and  C16_21 
ROOT
HETATM    1  C1  UNL     1      21.458   3.718  45.922  1.00  0.00     0.112 C 
HETATM    2  C2  UNL     1      22.180   4.169  47.128  1.00  0.00    -0.109 C 
HETATM    3  C3  UNL     1      22.781   4.549  48.107  1.00  0.00    -0.087 C 
ENDROOT
BRANCH   3   4
HETATM    4  C4  UNL     1      23.515   4.986  49.308  1.00  0.00     0.217 C 
BRANCH   4   5
HETATM    5  N1  UNL     1      24.894   5.307  48.982  1.00  0.00    -0.346 N 
HETATM    6  C5  UNL     1      25.220   6.646  49.317  1.00  0.00     0.252 C 
HETATM    7  O1  UNL     1      24.256   7.273  49.822  1.00  0.00    -0.268 OA
HETATM    8  H6  UNL     1      25.652   4.730  48.557  1.00  0.00     0.163 HD
BRANCH   6   9
HETATM    9  C6  UNL     1      26.488   7.336  49.147  1.00  0.00     0.033 C 
HETATM   10  C7  UNL     1      26.769   8.452  49.794  1.00  0.00     0.018 C 
HETATM   11  C8  UNL     1      27.930   9.328  49.812  1.00  0.00     0.019 C 
HETATM   12  C9  UNL     1      29.137   9.065  49.312  1.00  0.00     0.098 C 
HETATM   13  N2  UNL     1      29.569   7.865  48.645  1.00  0.00    -0.320 N 
HETATM   14  C19 UNL     1      28.709   6.938  48.008  1.00  0.00     0.099 C 
HETATM   15  C20 UNL     1      27.422   6.732  48.232  1.00  0.00     0.034 C 
BRANCH  13  16
HETATM   16  C10 UNL     1      30.963   7.588  48.625  1.00  0.00     0.125 C 
HETATM   17  N3  UNL     1      31.568   6.628  49.219  1.00  0.00    -0.269 NA
HETATM   18  C11 UNL     1      33.027   6.523  49.066  1.00  0.00     0.205 C 
HETATM   19  C12 UNL     1      33.294   6.668  47.614  1.00  0.00     0.031 C 
HETATM   20  N5  UNL     1      32.693   7.646  47.042  1.00  0.00    -0.289 NA
HETATM   21  C18 UNL     1      31.826   8.509  47.829  1.00  0.00     0.227 C 
BRANCH  19  22
HETATM   22  C13 UNL     1      34.213   5.692  46.961  1.00  0.00     0.102 C 
BRANCH  22  23
HETATM   23  C14 UNL     1      34.632   4.698  48.004  1.00  0.00     0.089 C 
HETATM   24  N4  UNL     1      34.455   3.436  47.873  1.00  0.00    -0.305 NA
BRANCH  24  25
HETATM   25  C15 UNL     1      33.823   2.956  46.663  1.00  0.00     0.147 C 
BRANCH  25  26
HETATM   26  C16 UNL     1      32.800   1.887  47.058  1.00  0.00     0.017 C 
HETATM   27  C17 UNL     1      33.117   1.386  48.435  1.00  0.00     0.007 C 
ENDBRANCH  25  26
ENDBRANCH  24  25
ENDBRANCH  22  23
ENDBRANCH  19  22
ENDBRANCH  13  16
ENDBRANCH   6   9
ENDBRANCH   4   5
ENDBRANCH   3   4
TORSDOF 8
ENDMDL
