MODEL 1
REMARK VINA RESULT:      -9.3      0.000      0.000
REMARK  4 active torsions:
REMARK  status: ('A' for Active; 'I' for Inactive)
REMARK    1  A    between atoms: C8_10  and  N3_11 
REMARK    2  A    between atoms: N3_11  and  C9_12 
REMARK    3  A    between atoms: C17_22  and  C18_23 
REMARK    4  A    between atoms: C18_23  and  N4_24 
ROOT
HETATM    1  C1  UNL     1      29.907   0.851  54.200  1.00  0.00     0.044 C 
HETATM    2  C2  UNL     1      28.604   0.564  53.479  1.00  0.00    -0.069 C 
HETATM    3  C3  UNL     1      27.907   1.651  53.230  1.00  0.00     0.035 C 
HETATM    4  C4  UNL     1      26.664   2.131  52.619  1.00  0.00     0.066 C 
HETATM    5  N1  UNL     1      27.088   2.328  51.388  1.00  0.00    -0.259 NA
HETATM    6  C5  UNL     1      26.293   2.822  50.321  1.00  0.00     0.138 C 
HETATM    7  C6  UNL     1      25.019   3.166  50.431  1.00  0.00     0.067 C 
HETATM    8  C7  UNL     1      24.311   3.636  49.316  1.00  0.00     0.099 C 
HETATM    9  N2  UNL     1      23.712   4.022  48.408  1.00  0.00    -0.192 NA
HETATM   10  C8  UNL     1      24.450   3.110  51.804  1.00  0.00     0.164 C 
HETATM   11  C15 UNL     1      25.307   2.419  52.750  1.00  0.00     0.010 C 
HETATM   12  C16 UNL     1      24.680   1.954  53.843  1.00  0.00    -0.001 C 
HETATM   13  C17 UNL     1      24.075   0.849  53.473  1.00  0.00     0.034 C 
HETATM   14  C21 UNL     1      25.144  -0.113  53.277  1.00  0.00     0.172 A 
HETATM   15  O1  UNL     1      25.875  -0.369  52.310  1.00  0.00    -0.251 OA
HETATM   16  N5  UNL     1      25.904  -1.173  53.907  1.00  0.00    -0.297 N 
HETATM   17  S1  UNL     1      27.154  -1.680  52.701  1.00  0.00     0.023 SA
HETATM   18  C22 UNL     1      28.662  -0.887  53.402  1.00  0.00     0.148 C 
HETATM   19  H19 UNL     1      25.355  -1.146  54.793  1.00  0.00     0.177 HD
ENDROOT
BRANCH  10  20
HETATM   20  N3  UNL     1      24.014   4.395  52.304  1.00  0.00    -0.376 N 
HETATM   21  H7  UNL     1      24.173   4.459  53.355  1.00  0.00     0.160 HD
BRANCH  20  22
HETATM   22  C9  UNL     1      23.443   5.527  51.679  1.00  0.00     0.030 A 
HETATM   23  C10 UNL     1      22.120   5.729  51.438  1.00  0.00     0.032 A 
HETATM   24  C11 UNL     1      21.578   6.830  50.811  1.00  0.00     0.046 A 
HETATM   25  C12 UNL     1      22.452   7.809  50.392  1.00  0.00     0.138 A 
HETATM   26  F1  UNL     1      22.007   8.923  49.769  1.00  0.00    -0.204 F 
HETATM   27  C13 UNL     1      23.792   7.652  50.612  1.00  0.00     0.074 A 
HETATM   28 CL1  UNL     1      24.897   8.896  50.080  1.00  0.00    -0.081 Cl
HETATM   29  C14 UNL     1      24.279   6.532  51.243  1.00  0.00     0.056 A 
ENDBRANCH  20  22
ENDBRANCH  10  20
BRANCH  13  30
HETATM   30  C18 UNL     1      22.954  -0.025  53.114  1.00  0.00     0.315 C 
BRANCH  30  31
HETATM   31  N4  UNL     1      22.015  -0.205  54.186  1.00  0.00     0.084 N 
HETATM   32  C19 UNL     1      20.792   0.539  53.936  1.00  0.00     0.309 C 
HETATM   33  C20 UNL     1      21.686  -1.600  54.362  1.00  0.00     0.309 C 
ENDBRANCH  30  31
ENDBRANCH  13  30
TORSDOF 4
ENDMDL
MODEL 2
REMARK VINA RESULT:      -8.6      4.947      7.661
REMARK  4 active torsions:
REMARK  status: ('A' for Active; 'I' for Inactive)
REMARK    1  A    between atoms: C8_10  and  N3_11 
REMARK    2  A    between atoms: N3_11  and  C9_12 
REMARK    3  A    between atoms: C17_22  and  C18_23 
REMARK    4  A    between atoms: C18_23  and  N4_24 
ROOT
HETATM    1  C1  UNL     1      21.468   3.880  44.776  1.00  0.00     0.044 C 
HETATM    2  C2  UNL     1      20.965   3.863  46.206  1.00  0.00    -0.069 C 
HETATM    3  C3  UNL     1      21.892   3.509  47.069  1.00  0.00     0.035 C 
HETATM    4  C4  UNL     1      22.139   3.289  48.498  1.00  0.00     0.066 C 
HETATM    5  N1  UNL     1      22.523   4.500  48.843  1.00  0.00    -0.259 NA
HETATM    6  C5  UNL     1      22.918   4.889  50.149  1.00  0.00     0.138 C 
HETATM    7  C6  UNL     1      22.967   4.074  51.192  1.00  0.00     0.067 C 
HETATM    8  C7  UNL     1      23.362   4.553  52.449  1.00  0.00     0.099 C 
HETATM    9  N2  UNL     1      23.681   4.931  53.493  1.00  0.00    -0.192 NA
HETATM   10  C8  UNL     1      22.679   2.643  50.909  1.00  0.00     0.164 C 
HETATM   11  C15 UNL     1      22.115   2.423  49.590  1.00  0.00     0.010 C 
HETATM   12  C16 UNL     1      21.439   1.272  49.450  1.00  0.00    -0.001 C 
HETATM   13  C17 UNL     1      20.262   1.472  49.999  1.00  0.00     0.034 C 
HETATM   14  C21 UNL     1      19.573   2.367  49.087  1.00  0.00     0.172 A 
HETATM   15  O1  UNL     1      19.562   3.601  48.971  1.00  0.00    -0.251 OA
HETATM   16  N5  UNL     1      18.656   2.430  47.968  1.00  0.00    -0.297 N 
HETATM   17  S1  UNL     1      18.531   4.178  47.517  1.00  0.00     0.023 SA
HETATM   18  C22 UNL     1      19.573   4.225  45.998  1.00  0.00     0.148 C 
HETATM   19  H19 UNL     1      18.492   1.400  47.945  1.00  0.00     0.177 HD
ENDROOT
BRANCH  10  20
HETATM   20  N3  UNL     1      23.794   1.762  51.178  1.00  0.00    -0.376 N 
HETATM   21  H7  UNL     1      24.486   1.781  50.369  1.00  0.00     0.160 HD
BRANCH  20  22
HETATM   22  C9  UNL     1      24.115   0.923  52.269  1.00  0.00     0.030 A 
HETATM   23  C10 UNL     1      25.367   0.604  52.694  1.00  0.00     0.032 A 
HETATM   24  C11 UNL     1      25.666  -0.230  53.750  1.00  0.00     0.046 A 
HETATM   25  C12 UNL     1      24.607  -0.788  54.431  1.00  0.00     0.138 A 
HETATM   26  F1  UNL     1      24.810  -1.617  55.479  1.00  0.00    -0.204 F 
HETATM   27  C13 UNL     1      23.330  -0.497  54.042  1.00  0.00     0.074 A 
HETATM   28 CL1  UNL     1      21.989  -1.206  54.909  1.00  0.00    -0.081 Cl
HETATM   29  C14 UNL     1      23.088   0.343  52.980  1.00  0.00     0.056 A 
ENDBRANCH  20  22
ENDBRANCH  10  20
BRANCH  13  30
HETATM   30  C18 UNL     1      19.198   1.354  51.000  1.00  0.00     0.315 C 
BRANCH  30  31
HETATM   31  N4  UNL     1      18.915  -0.006  51.362  1.00  0.00     0.084 N 
HETATM   32  C19 UNL     1      19.245  -0.254  52.756  1.00  0.00     0.309 C 
HETATM   33  C20 UNL     1      17.522  -0.323  51.150  1.00  0.00     0.309 C 
ENDBRANCH  30  31
ENDBRANCH  13  30
TORSDOF 4
ENDMDL
MODEL 3
REMARK VINA RESULT:      -8.6      8.486     11.332
REMARK  4 active torsions:
REMARK  status: ('A' for Active; 'I' for Inactive)
REMARK    1  A    between atoms: C8_10  and  N3_11 
REMARK    2  A    between atoms: N3_11  and  C9_12 
REMARK    3  A    between atoms: C17_22  and  C18_23 
REMARK    4  A    between atoms: C18_23  and  N4_24 
ROOT
HETATM    1  C1  UNL     1      27.082   4.838  48.871  1.00  0.00     0.044 C 
HETATM    2  C2  UNL     1      27.542   6.255  48.585  1.00  0.00    -0.069 C 
HETATM    3  C3  UNL     1      28.753   6.306  48.075  1.00  0.00     0.035 C 
HETATM    4  C4  UNL     1      29.777   7.231  47.580  1.00  0.00     0.066 C 
HETATM    5  N1  UNL     1      29.427   7.286  46.312  1.00  0.00    -0.259 NA
HETATM    6  C5  UNL     1      30.095   8.042  45.313  1.00  0.00     0.138 C 
HETATM    7  C6  UNL     1      31.172   8.781  45.528  1.00  0.00     0.067 C 
HETATM    8  C7  UNL     1      31.758   9.503  44.478  1.00  0.00     0.099 C 
HETATM    9  N2  UNL     1      32.253  10.106  43.627  1.00  0.00    -0.192 NA
HETATM   10  C8  UNL     1      31.747   8.706  46.897  1.00  0.00     0.164 C 
HETATM   11  C15 UNL     1      30.869   8.054  47.851  1.00  0.00     0.010 C 
HETATM   12  C16 UNL     1      31.117   8.347  49.138  1.00  0.00    -0.001 C 
HETATM   13  C17 UNL     1      30.588   9.531  49.350  1.00  0.00     0.034 C 
HETATM   14  C21 UNL     1      29.155   9.306  49.338  1.00  0.00     0.172 A 
HETATM   15  O1  UNL     1      28.320   9.264  48.423  1.00  0.00    -0.251 OA
HETATM   16  N5  UNL     1      27.997   9.044  50.168  1.00  0.00    -0.297 N 
HETATM   17  S1  UNL     1      26.602   8.835  49.035  1.00  0.00     0.023 SA
HETATM   18  C22 UNL     1      26.393   7.005  49.066  1.00  0.00     0.148 C 
HETATM   19  H19 UNL     1      28.530   9.100  51.063  1.00  0.00     0.177 HD
ENDROOT
BRANCH  10  20
HETATM   20  N3  UNL     1      33.088   8.165  46.935  1.00  0.00    -0.376 N 
HETATM   21  H7  UNL     1      33.789   8.884  46.584  1.00  0.00     0.160 HD
BRANCH  20  22
HETATM   22  C9  UNL     1      33.609   6.914  47.338  1.00  0.00     0.030 A 
HETATM   23  C10 UNL     1      34.579   6.712  48.269  1.00  0.00     0.032 A 
HETATM   24  C11 UNL     1      35.091   5.486  48.640  1.00  0.00     0.046 A 
HETATM   25  C12 UNL     1      34.575   4.374  48.014  1.00  0.00     0.138 A 
HETATM   26  F1  UNL     1      35.019   3.133  48.318  1.00  0.00    -0.204 F 
HETATM   27  C13 UNL     1      33.597   4.526  47.071  1.00  0.00     0.074 A 
HETATM   28 CL1  UNL     1      32.945   3.111  46.281  1.00  0.00    -0.081 Cl
HETATM   29  C14 UNL     1      33.123   5.773  46.739  1.00  0.00     0.056 A 
ENDBRANCH  20  22
ENDBRANCH  10  20
BRANCH  13  30
HETATM   30  C18 UNL     1      30.559  10.977  49.583  1.00  0.00     0.315 C 
BRANCH  30  31
HETATM   31  N4  UNL     1      29.885  11.701  48.542  1.00  0.00     0.084 N 
HETATM   32  C19 UNL     1      29.244  12.894  49.070  1.00  0.00     0.309 C 
HETATM   33  C20 UNL     1      30.804  12.088  47.497  1.00  0.00     0.309 C 
ENDBRANCH  30  31
ENDBRANCH  13  30
TORSDOF 4
ENDMDL
MODEL 4
REMARK VINA RESULT:      -8.5      4.453      7.747
REMARK  4 active torsions:
REMARK  status: ('A' for Active; 'I' for Inactive)
REMARK    1  A    between atoms: C8_10  and  N3_11 
REMARK    2  A    between atoms: N3_11  and  C9_12 
REMARK    3  A    between atoms: C17_22  and  C18_23 
REMARK    4  A    between atoms: C18_23  and  N4_24 
ROOT
HETATM    1  C1  UNL     1      18.336   1.344  49.692  1.00  0.00     0.044 C 
HETATM    2  C2  UNL     1      19.285   2.502  49.448  1.00  0.00    -0.069 C 
HETATM    3  C3  UNL     1      20.407   2.395  50.127  1.00  0.00     0.035 C 
HETATM    4  C4  UNL     1      21.689   3.058  50.381  1.00  0.00     0.066 C 
HETATM    5  N1  UNL     1      22.413   2.505  49.431  1.00  0.00    -0.259 NA
HETATM    6  C5  UNL     1      23.789   2.765  49.197  1.00  0.00     0.138 C 
HETATM    7  C6  UNL     1      24.530   3.590  49.921  1.00  0.00     0.067 C 
HETATM    8  C7  UNL     1      25.881   3.790  49.608  1.00  0.00     0.099 C 
HETATM    9  N2  UNL     1      26.995   3.970  49.363  1.00  0.00    -0.192 NA
HETATM   10  C8  UNL     1      23.862   4.186  51.108  1.00  0.00     0.164 C 
HETATM   11  C15 UNL     1      22.425   3.984  51.118  1.00  0.00     0.010 C 
HETATM   12  C16 UNL     1      21.739   4.848  51.884  1.00  0.00    -0.001 C 
HETATM   13  C17 UNL     1      21.651   5.960  51.190  1.00  0.00     0.034 C 
HETATM   14  C21 UNL     1      20.716   5.660  50.122  1.00  0.00     0.172 A 
HETATM   15  O1  UNL     1      20.859   5.149  49.001  1.00  0.00    -0.251 OA
HETATM   16  N5  UNL     1      19.327   5.729  49.719  1.00  0.00    -0.297 N 
HETATM   17  S1  UNL     1      19.233   4.934  48.097  1.00  0.00     0.023 SA
HETATM   18  C22 UNL     1      18.485   3.310  48.543  1.00  0.00     0.148 C 
HETATM   19  H19 UNL     1      19.020   6.222  50.585  1.00  0.00     0.177 HD
ENDROOT
BRANCH  10  20
HETATM   20  N3  UNL     1      24.471   3.813  52.366  1.00  0.00    -0.376 N 
HETATM   21  H7  UNL     1      24.700   4.679  52.940  1.00  0.00     0.160 HD
BRANCH  20  22
HETATM   22  C9  UNL     1      24.799   2.564  52.942  1.00  0.00     0.030 A 
HETATM   23  C10 UNL     1      25.969   2.249  53.561  1.00  0.00     0.032 A 
HETATM   24  C11 UNL     1      26.283   1.021  54.103  1.00  0.00     0.046 A 
HETATM   25  C12 UNL     1      25.331   0.030  54.010  1.00  0.00     0.138 A 
HETATM   26  F1  UNL     1      25.555  -1.203  54.515  1.00  0.00    -0.204 F 
HETATM   27  C13 UNL     1      24.139   0.299  53.397  1.00  0.00     0.074 A 
HETATM   28 CL1  UNL     1      22.934  -0.961  53.282  1.00  0.00    -0.081 Cl
HETATM   29  C14 UNL     1      23.878   1.543  52.873  1.00  0.00     0.056 A 
ENDBRANCH  20  22
ENDBRANCH  10  20
BRANCH  13  30
HETATM   30  C18 UNL     1      21.938   7.348  50.817  1.00  0.00     0.315 C 
BRANCH  30  31
HETATM   31  N4  UNL     1      23.099   7.478  49.983  1.00  0.00     0.084 N 
HETATM   32  C19 UNL     1      22.917   8.530  48.997  1.00  0.00     0.309 C 
HETATM   33  C20 UNL     1      24.275   7.774  50.768  1.00  0.00     0.309 C 
ENDBRANCH  30  31
ENDBRANCH  13  30
TORSDOF 4
ENDMDL
MODEL 5
REMARK VINA RESULT:      -8.5      4.524      7.198
REMARK  4 active torsions:
REMARK  status: ('A' for Active; 'I' for Inactive)
REMARK    1  A    between atoms: C8_10  and  N3_11 
REMARK    2  A    between atoms: N3_11  and  C9_12 
REMARK    3  A    between atoms: C17_22  and  C18_23 
REMARK    4  A    between atoms: C18_23  and  N4_24 
ROOT
HETATM    1  C1  UNL     1      19.779   3.446  45.677  1.00  0.00     0.044 C 
HETATM    2  C2  UNL     1      19.680   3.269  47.180  1.00  0.00    -0.069 C 
HETATM    3  C3  UNL     1      20.855   3.158  47.760  1.00  0.00     0.035 C 
HETATM    4  C4  UNL     1      21.507   2.985  49.062  1.00  0.00     0.066 C 
HETATM    5  N1  UNL     1      21.648   4.248  49.405  1.00  0.00    -0.259 NA
HETATM    6  C5  UNL     1      22.253   4.704  50.606  1.00  0.00     0.138 C 
HETATM    7  C6  UNL     1      22.771   3.912  51.532  1.00  0.00     0.067 C 
HETATM    8  C7  UNL     1      23.340   4.456  52.692  1.00  0.00     0.099 C 
HETATM    9  N2  UNL     1      23.811   4.885  53.656  1.00  0.00    -0.192 NA
HETATM   10  C8  UNL     1      22.790   2.462  51.207  1.00  0.00     0.164 C 
HETATM   11  C15 UNL     1      21.982   2.125  50.050  1.00  0.00     0.010 C 
HETATM   12  C16 UNL     1      21.604   0.837  49.981  1.00  0.00    -0.001 C 
HETATM   13  C17 UNL     1      20.596   0.709  50.813  1.00  0.00     0.034 C 
HETATM   14  C21 UNL     1      19.495   1.405  50.174  1.00  0.00     0.172 A 
HETATM   15  O1  UNL     1      19.144   2.594  50.170  1.00  0.00    -0.251 OA
HETATM   16  N5  UNL     1      18.336   1.243  49.320  1.00  0.00    -0.297 N 
HETATM   17  S1  UNL     1      17.664   2.904  49.063  1.00  0.00     0.023 SA
HETATM   18  C22 UNL     1      18.236   3.254  47.347  1.00  0.00     0.148 C 
HETATM   19  H19 UNL     1      18.436   0.208  49.250  1.00  0.00     0.177 HD
ENDROOT
BRANCH  10  20
HETATM   20  N3  UNL     1      24.121   1.903  51.122  1.00  0.00    -0.376 N 
HETATM   21  H7  UNL     1      24.464   1.911  50.114  1.00  0.00     0.160 HD
BRANCH  20  22
HETATM   22  C9  UNL     1      25.006   1.375  52.090  1.00  0.00     0.030 A 
HETATM   23  C10 UNL     1      24.804   0.257  52.837  1.00  0.00     0.032 A 
HETATM   24  C11 UNL     1      25.669  -0.236  53.791  1.00  0.00     0.046 A 
HETATM   25  C12 UNL     1      26.835   0.463  54.004  1.00  0.00     0.138 A 
HETATM   26  F1  UNL     1      27.740   0.050  54.920  1.00  0.00    -0.204 F 
HETATM   27  C13 UNL     1      27.084   1.593  53.277  1.00  0.00     0.074 A 
HETATM   28 CL1  UNL     1      28.566   2.476  53.550  1.00  0.00    -0.081 Cl
HETATM   29  C14 UNL     1      26.186   2.041  52.337  1.00  0.00     0.056 A 
ENDBRANCH  20  22
ENDBRANCH  10  20
BRANCH  13  30
HETATM   30  C18 UNL     1      19.889   0.294  52.028  1.00  0.00     0.315 C 
BRANCH  30  31
HETATM   31  N4  UNL     1      20.750  -0.324  52.997  1.00  0.00     0.084 N 
HETATM   32  C19 UNL     1      21.313   0.665  53.900  1.00  0.00     0.309 C 
HETATM   33  C20 UNL     1      20.037  -1.312  53.773  1.00  0.00     0.309 C 
ENDBRANCH  30  31
ENDBRANCH  13  30
TORSDOF 4
ENDMDL
MODEL 6
REMARK VINA RESULT:      -8.2      3.372      5.668
REMARK  4 active torsions:
REMARK  status: ('A' for Active; 'I' for Inactive)
REMARK    1  A    between atoms: C8_10  and  N3_11 
REMARK    2  A    between atoms: N3_11  and  C9_12 
REMARK    3  A    between atoms: C17_22  and  C18_23 
REMARK    4  A    between atoms: C18_23  and  N4_24 
ROOT
HETATM    1  C1  UNL     1      23.367  -0.780  53.278  1.00  0.00     0.044 C 
HETATM    2  C2  UNL     1      23.923   0.587  52.928  1.00  0.00    -0.069 C 
HETATM    3  C3  UNL     1      23.162   1.247  52.082  1.00  0.00     0.035 C 
HETATM    4  C4  UNL     1      23.047   2.513  51.352  1.00  0.00     0.066 C 
HETATM    5  N1  UNL     1      22.377   3.217  52.238  1.00  0.00    -0.259 NA
HETATM    6  C5  UNL     1      21.954   4.561  52.063  1.00  0.00     0.138 C 
HETATM    7  C6  UNL     1      22.168   5.277  50.970  1.00  0.00     0.067 C 
HETATM    8  C7  UNL     1      21.721   6.604  50.892  1.00  0.00     0.099 C 
HETATM    9  N2  UNL     1      21.362   7.698  50.810  1.00  0.00    -0.192 NA
HETATM   10  C8  UNL     1      22.809   4.556  49.838  1.00  0.00     0.164 C 
HETATM   11  C15 UNL     1      23.348   3.263  50.216  1.00  0.00     0.010 C 
HETATM   12  C16 UNL     1      24.296   2.784  49.394  1.00  0.00    -0.001 C 
HETATM   13  C17 UNL     1      25.403   3.419  49.706  1.00  0.00     0.034 C 
HETATM   14  C21 UNL     1      25.790   2.879  50.997  1.00  0.00     0.172 A 
HETATM   15  O1  UNL     1      25.472   3.174  52.158  1.00  0.00    -0.251 OA
HETATM   16  N5  UNL     1      26.606   1.883  51.659  1.00  0.00    -0.297 N 
HETATM   17  S1  UNL     1      26.247   2.034  53.426  1.00  0.00     0.023 SA
HETATM   18  C22 UNL     1      25.160   0.569  53.691  1.00  0.00     0.148 C 
HETATM   19  H19 UNL     1      27.033   1.533  50.775  1.00  0.00     0.177 HD
ENDROOT
BRANCH  10  20
HETATM   20  N3  UNL     1      21.978   4.474  48.657  1.00  0.00    -0.376 N 
HETATM   21  H7  UNL     1      21.137   3.846  48.837  1.00  0.00     0.160 HD
BRANCH  20  22
HETATM   22  C9  UNL     1      22.075   5.051  47.371  1.00  0.00     0.030 A 
HETATM   23  C10 UNL     1      22.685   6.227  47.064  1.00  0.00     0.032 A 
HETATM   24  C11 UNL     1      22.757   6.788  45.806  1.00  0.00     0.046 A 
HETATM   25  C12 UNL     1      22.161   6.098  44.775  1.00  0.00     0.138 A 
HETATM   26  F1  UNL     1      22.185   6.575  43.510  1.00  0.00    -0.204 F 
HETATM   27  C13 UNL     1      21.535   4.911  45.033  1.00  0.00     0.074 A 
HETATM   28 CL1  UNL     1      20.782   4.038  43.721  1.00  0.00    -0.081 Cl
HETATM   29  C14 UNL     1      21.493   4.397  46.308  1.00  0.00     0.056 A 
ENDBRANCH  20  22
ENDBRANCH  10  20
BRANCH  13  30
HETATM   30  C18 UNL     1      26.506   4.372  49.552  1.00  0.00     0.315 C 
BRANCH  30  31
HETATM   31  N4  UNL     1      26.088   5.632  49.005  1.00  0.00     0.084 N 
HETATM   32  C19 UNL     1      25.588   6.512  50.049  1.00  0.00     0.309 C 
HETATM   33  C20 UNL     1      27.177   6.291  48.322  1.00  0.00     0.309 C 
ENDBRANCH  30  31
ENDBRANCH  13  30
TORSDOF 4
ENDMDL
MODEL 7
REMARK VINA RESULT:      -8.2      3.071      5.577
REMARK  4 active torsions:
REMARK  status: ('A' for Active; 'I' for Inactive)
REMARK    1  A    between atoms: C8_10  and  N3_11 
REMARK    2  A    between atoms: N3_11  and  C9_12 
REMARK    3  A    between atoms: C17_22  and  C18_23 
REMARK    4  A    between atoms: C18_23  and  N4_24 
ROOT
HETATM    1  C1  UNL     1      18.648   0.191  50.547  1.00  0.00     0.044 C 
HETATM    2  C2  UNL     1      19.747   0.865  51.344  1.00  0.00    -0.069 C 
HETATM    3  C3  UNL     1      20.469   1.694  50.621  1.00  0.00     0.035 C 
HETATM    4  C4  UNL     1      21.598   2.626  50.686  1.00  0.00     0.066 C 
HETATM    5  N1  UNL     1      20.952   3.731  50.994  1.00  0.00    -0.259 NA
HETATM    6  C5  UNL     1      21.553   5.004  51.175  1.00  0.00     0.138 C 
HETATM    7  C6  UNL     1      22.847   5.249  51.041  1.00  0.00     0.067 C 
HETATM    8  C7  UNL     1      23.351   6.540  51.249  1.00  0.00     0.099 C 
HETATM    9  N2  UNL     1      23.784   7.597  51.420  1.00  0.00    -0.192 NA
HETATM   10  C8  UNL     1      23.676   4.108  50.570  1.00  0.00     0.164 C 
HETATM   11  C15 UNL     1      22.973   2.838  50.605  1.00  0.00     0.010 C 
HETATM   12  C16 UNL     1      23.767   1.755  50.628  1.00  0.00    -0.001 C 
HETATM   13  C17 UNL     1      24.189   1.639  51.867  1.00  0.00     0.034 C 
HETATM   14  C21 UNL     1      23.024   1.206  52.618  1.00  0.00     0.172 A 
HETATM   15  O1  UNL     1      22.093   1.824  53.152  1.00  0.00    -0.251 OA
HETATM   16  N5  UNL     1      22.320   0.050  53.135  1.00  0.00    -0.297 N 
HETATM   17  S1  UNL     1      20.813   0.685  53.909  1.00  0.00     0.023 SA
HETATM   18  C22 UNL     1      19.552   0.239  52.642  1.00  0.00     0.148 C 
HETATM   19  H19 UNL     1      23.038  -0.631  52.807  1.00  0.00     0.177 HD
ENDROOT
BRANCH  10  20
HETATM   20  N3  UNL     1      24.313   4.341  49.292  1.00  0.00    -0.376 N 
HETATM   21  H7  UNL     1      23.715   3.952  48.502  1.00  0.00     0.160 HD
BRANCH  20  22
HETATM   22  C9  UNL     1      25.527   4.964  48.922  1.00  0.00     0.030 A 
HETATM   23  C10 UNL     1      26.770   4.421  49.021  1.00  0.00     0.032 A 
HETATM   24  C11 UNL     1      27.947   5.047  48.673  1.00  0.00     0.046 A 
HETATM   25  C12 UNL     1      27.856   6.331  48.184  1.00  0.00     0.138 A 
HETATM   26  F1  UNL     1      28.962   7.019  47.818  1.00  0.00    -0.204 F 
HETATM   27  C13 UNL     1      26.629   6.920  48.066  1.00  0.00     0.074 A 
HETATM   28 CL1  UNL     1      26.518   8.549  47.444  1.00  0.00    -0.081 Cl
HETATM   29  C14 UNL     1      25.485   6.249  48.428  1.00  0.00     0.056 A 
ENDBRANCH  20  22
ENDBRANCH  10  20
BRANCH  13  30
HETATM   30  C18 UNL     1      25.134   1.695  52.986  1.00  0.00     0.315 C 
BRANCH  30  31
HETATM   31  N4  UNL     1      26.489   1.430  52.590  1.00  0.00     0.084 N 
HETATM   32  C19 UNL     1      27.399   1.587  53.713  1.00  0.00     0.309 C 
HETATM   33  C20 UNL     1      26.625   0.092  52.063  1.00  0.00     0.309 C 
ENDBRANCH  30  31
ENDBRANCH  13  30
TORSDOF 4
ENDMDL
MODEL 8
REMARK VINA RESULT:      -8.2      4.425      7.588
REMARK  4 active torsions:
REMARK  status: ('A' for Active; 'I' for Inactive)
REMARK    1  A    between atoms: C8_10  and  N3_11 
REMARK    2  A    between atoms: N3_11  and  C9_12 
REMARK    3  A    between atoms: C17_22  and  C18_23 
REMARK    4  A    between atoms: C18_23  and  N4_24 
ROOT
HETATM    1  C1  UNL     1      26.769   8.278  50.103  1.00  0.00     0.044 C 
HETATM    2  C2  UNL     1      25.344   7.835  49.836  1.00  0.00    -0.069 C 
HETATM    3  C3  UNL     1      25.109   6.602  50.230  1.00  0.00     0.035 C 
HETATM    4  C4  UNL     1      24.065   5.576  50.306  1.00  0.00     0.066 C 
HETATM    5  N1  UNL     1      23.558   5.867  51.485  1.00  0.00    -0.259 NA
HETATM    6  C5  UNL     1      22.491   5.168  52.110  1.00  0.00     0.138 C 
HETATM    7  C6  UNL     1      21.876   4.118  51.589  1.00  0.00     0.067 C 
HETATM    8  C7  UNL     1      20.824   3.498  52.277  1.00  0.00     0.099 C 
HETATM    9  N2  UNL     1      19.953   2.976  52.827  1.00  0.00    -0.192 NA
HETATM   10  C8  UNL     1      22.438   3.607  50.310  1.00  0.00     0.164 C 
HETATM   11  C15 UNL     1      23.393   4.516  49.702  1.00  0.00     0.010 C 
HETATM   12  C16 UNL     1      23.582   4.335  48.384  1.00  0.00    -0.001 C 
HETATM   13  C17 UNL     1      22.555   4.898  47.788  1.00  0.00     0.034 C 
HETATM   14  C21 UNL     1      22.765   6.324  47.954  1.00  0.00     0.172 A 
HETATM   15  O1  UNL     1      22.476   7.114  48.865  1.00  0.00    -0.251 OA
HETATM   16  N5  UNL     1      23.311   7.514  47.335  1.00  0.00    -0.297 N 
HETATM   17  S1  UNL     1      23.101   8.849  48.538  1.00  0.00     0.023 SA
HETATM   18  C22 UNL     1      24.820   9.021  49.178  1.00  0.00     0.148 C 
HETATM   19  H19 UNL     1      23.580   7.026  46.454  1.00  0.00     0.177 HD
ENDROOT
BRANCH  10  20
HETATM   20  N3  UNL     1      22.954   2.258  50.400  1.00  0.00    -0.376 N 
HETATM   21  H7  UNL     1      22.758   1.725  49.500  1.00  0.00     0.160 HD
BRANCH  20  22
HETATM   22  C9  UNL     1      23.639   1.557  51.418  1.00  0.00     0.030 A 
HETATM   23  C10 UNL     1      23.084   0.690  52.307  1.00  0.00     0.032 A 
HETATM   24  C11 UNL     1      23.762   0.025  53.307  1.00  0.00     0.046 A 
HETATM   25  C12 UNL     1      25.115   0.260  53.414  1.00  0.00     0.138 A 
HETATM   26  F1  UNL     1      25.856  -0.350  54.366  1.00  0.00    -0.204 F 
HETATM   27  C13 UNL     1      25.718   1.123  52.542  1.00  0.00     0.074 A 
HETATM   28 CL1  UNL     1      27.434   1.417  52.681  1.00  0.00    -0.081 Cl
HETATM   29  C14 UNL     1      24.993   1.760  51.563  1.00  0.00     0.056 A 
ENDBRANCH  20  22
ENDBRANCH  10  20
BRANCH  13  30
HETATM   30  C18 UNL     1      21.290   4.968  47.053  1.00  0.00     0.315 C 
BRANCH  30  31
HETATM   31  N4  UNL     1      21.023   3.788  46.279  1.00  0.00     0.084 N 
HETATM   32  C19 UNL     1      19.656   3.334  46.478  1.00  0.00     0.309 C 
HETATM   33  C20 UNL     1      21.233   4.030  44.871  1.00  0.00     0.309 C 
ENDBRANCH  30  31
ENDBRANCH  13  30
TORSDOF 4
ENDMDL
MODEL 9
REMARK VINA RESULT:      -8.1      3.187      4.695
REMARK  4 active torsions:
REMARK  status: ('A' for Active; 'I' for Inactive)
REMARK    1  A    between atoms: C8_10  and  N3_11 
REMARK    2  A    between atoms: N3_11  and  C9_12 
REMARK    3  A    between atoms: C17_22  and  C18_23 
REMARK    4  A    between atoms: C18_23  and  N4_24 
ROOT
HETATM    1  C1  UNL     1      25.051   0.765  53.447  1.00  0.00     0.044 C 
HETATM    2  C2  UNL     1      23.750   0.968  52.695  1.00  0.00    -0.069 C 
HETATM    3  C3  UNL     1      23.783   2.006  51.887  1.00  0.00     0.035 C 
HETATM    4  C4  UNL     1      22.984   2.762  50.918  1.00  0.00     0.066 C 
HETATM    5  N1  UNL     1      23.304   2.113  49.818  1.00  0.00    -0.259 NA
HETATM    6  C5  UNL     1      22.825   2.425  48.518  1.00  0.00     0.138 C 
HETATM    7  C6  UNL     1      22.003   3.425  48.242  1.00  0.00     0.067 C 
HETATM    8  C7  UNL     1      21.576   3.650  46.926  1.00  0.00     0.099 C 
HETATM    9  N2  UNL     1      21.211   3.848  45.849  1.00  0.00    -0.192 NA
HETATM   10  C8  UNL     1      21.662   4.317  49.382  1.00  0.00     0.164 C 
HETATM   11  C15 UNL     1      22.065   3.779  50.669  1.00  0.00     0.010 C 
HETATM   12  C16 UNL     1      21.411   4.292  51.724  1.00  0.00    -0.001 C 
HETATM   13  C17 UNL     1      20.243   3.691  51.756  1.00  0.00     0.034 C 
HETATM   14  C21 UNL     1      20.534   2.334  52.182  1.00  0.00     0.172 A 
HETATM   15  O1  UNL     1      20.872   1.315  51.563  1.00  0.00    -0.251 OA
HETATM   16  N5  UNL     1      20.610   1.451  53.327  1.00  0.00    -0.297 N 
HETATM   17  S1  UNL     1      21.198  -0.140  52.696  1.00  0.00     0.023 SA
HETATM   18  C22 UNL     1      22.954  -0.113  53.252  1.00  0.00     0.148 C 
HETATM   19  H19 UNL     1      20.279   2.172  54.003  1.00  0.00     0.177 HD
ENDROOT
BRANCH  10  20
HETATM   20  N3  UNL     1      22.103   5.683  49.203  1.00  0.00    -0.376 N 
HETATM   21  H7  UNL     1      21.330   6.268  48.764  1.00  0.00     0.160 HD
BRANCH  20  22
HETATM   22  C9  UNL     1      23.316   6.348  49.494  1.00  0.00     0.030 A 
HETATM   23  C10 UNL     1      23.452   7.480  50.234  1.00  0.00     0.032 A 
HETATM   24  C11 UNL     1      24.640   8.129  50.496  1.00  0.00     0.046 A 
HETATM   25  C12 UNL     1      25.786   7.582  49.962  1.00  0.00     0.138 A 
HETATM   26  F1  UNL     1      26.994   8.153  50.169  1.00  0.00    -0.204 F 
HETATM   27  C13 UNL     1      25.701   6.444  49.211  1.00  0.00     0.074 A 
HETATM   28 CL1  UNL     1      27.157   5.753  48.536  1.00  0.00    -0.081 Cl
HETATM   29  C14 UNL     1      24.488   5.837  48.981  1.00  0.00     0.056 A 
ENDBRANCH  20  22
ENDBRANCH  10  20
BRANCH  13  30
HETATM   30  C18 UNL     1      18.792   3.544  51.607  1.00  0.00     0.315 C 
BRANCH  30  31
HETATM   31  N4  UNL     1      18.377   3.414  50.238  1.00  0.00     0.084 N 
HETATM   32  C19 UNL     1      17.217   2.546  50.127  1.00  0.00     0.309 C 
HETATM   33  C20 UNL     1      18.053   4.701  49.668  1.00  0.00     0.309 C 
ENDBRANCH  30  31
ENDBRANCH  13  30
TORSDOF 4
ENDMDL
