MODEL 1
REMARK VINA RESULT:      -7.1      0.000      0.000
REMARK  5 active torsions:
REMARK  status: ('A' for Active; 'I' for Inactive)
REMARK    1  A    between atoms: O1_2  and  C2_3 
REMARK    2  A    between atoms: C2_3  and  C3_4 
REMARK    3  A    between atoms: C3_4  and  C4_5 
REMARK    4  A    between atoms: C4_5  and  O3_22 
REMARK    5  A    between atoms: C5_6  and  C6_7 
ROOT
HETATM    1  C6  UNL     1      24.871  -1.267  53.459  1.00  0.00     0.188 C 
HETATM    2  O2  UNL     1      25.500  -1.267  54.748  1.00  0.00    -0.324 OA
HETATM    3  C7  UNL     1      26.012  -0.031  54.409  1.00  0.00     0.164 C 
HETATM    4  N1  UNL     1      26.428   1.252  54.445  1.00  0.00    -0.266 NA
HETATM    5  C8  UNL     1      26.058   2.477  53.830  1.00  0.00     0.195 C 
HETATM    6  C9  UNL     1      26.894   2.676  52.484  1.00  0.00     0.112 A 
HETATM    7  C10 UNL     1      26.790   2.674  50.972  1.00  0.00     0.109 A 
HETATM    8  S1  UNL     1      26.567   1.368  51.650  1.00  0.00    -0.112 SA
HETATM    9  C11 UNL     1      26.384   0.303  52.232  1.00  0.00    -0.094 C 
HETATM   10  C12 UNL     1      26.178  -0.890  52.921  1.00  0.00     0.136 C 
HETATM   11  C13 UNL     1      27.419  -1.611  53.285  1.00  0.00     0.007 C 
HETATM   12  C14 UNL     1      28.461  -0.829  53.504  1.00  0.00    -0.001 C 
HETATM   13  C15 UNL     1      29.148   0.406  53.600  1.00  0.00     0.017 C 
HETATM   14  C16 UNL     1      28.925   1.688  53.457  1.00  0.00     0.084 C 
HETATM   15  N2  UNL     1      28.197   2.858  53.191  1.00  0.00    -0.378 N 
HETATM   16  H15 UNL     1      28.267   3.865  53.336  1.00  0.00     0.160 HD
ENDROOT
BRANCH   1  17
HETATM   17  C5  UNL     1      23.895  -0.190  53.378  1.00  0.00     0.044 C 
HETATM   18  C4  UNL     1      22.610  -0.181  53.251  1.00  0.00     0.068 C 
BRANCH  18  19
HETATM   19  C3  UNL     1      21.794   0.987  53.188  1.00  0.00     0.060 C 
BRANCH  19  20
HETATM   20  C2  UNL     1      21.053   1.947  52.811  1.00  0.00     0.137 C 
BRANCH  20  21
HETATM   21  O1  UNL     1      21.710   3.035  52.280  1.00  0.00    -0.368 OA
HETATM   22  C1  UNL     1      23.002   3.030  51.741  1.00  0.00     0.208 C 
ENDBRANCH  20  21
ENDBRANCH  19  20
ENDBRANCH  18  19
BRANCH  18  23
HETATM   23  O3  UNL     1      21.434  -0.901  53.124  1.00  0.00    -0.356 OA
HETATM   24  C17 UNL     1      20.934  -1.642  54.207  1.00  0.00     0.210 C 
ENDBRANCH  18  23
ENDBRANCH   1  17
TORSDOF 5
ENDMDL
MODEL 2
REMARK VINA RESULT:      -6.7      3.072      6.264
REMARK  5 active torsions:
REMARK  status: ('A' for Active; 'I' for Inactive)
REMARK    1  A    between atoms: O1_2  and  C2_3 
REMARK    2  A    between atoms: C2_3  and  C3_4 
REMARK    3  A    between atoms: C3_4  and  C4_5 
REMARK    4  A    between atoms: C4_5  and  O3_22 
REMARK    5  A    between atoms: C5_6  and  C6_7 
ROOT
HETATM    1  C6  UNL     1      22.624  -0.182  53.834  1.00  0.00     0.188 C 
HETATM    2  O2  UNL     1      22.265  -1.300  53.011  1.00  0.00    -0.324 OA
HETATM    3  C7  UNL     1      21.848  -0.376  52.075  1.00  0.00     0.164 C 
HETATM    4  N1  UNL     1      21.604   0.277  50.921  1.00  0.00    -0.266 NA
HETATM    5  C8  UNL     1      21.991   1.508  50.327  1.00  0.00     0.195 C 
HETATM    6  C9  UNL     1      20.937   2.645  50.711  1.00  0.00     0.112 A 
HETATM    7  C10 UNL     1      20.741   3.894  51.546  1.00  0.00     0.109 A 
HETATM    8  S1  UNL     1      20.935   2.623  52.297  1.00  0.00    -0.112 SA
HETATM    9  C11 UNL     1      21.100   1.564  52.893  1.00  0.00    -0.094 C 
HETATM   10  C12 UNL     1      21.292   0.346  53.542  1.00  0.00     0.136 C 
HETATM   11  C13 UNL     1      20.069  -0.478  53.677  1.00  0.00     0.007 C 
HETATM   12  C14 UNL     1      19.191  -0.316  52.702  1.00  0.00    -0.001 C 
HETATM   13  C15 UNL     1      18.690   0.234  51.498  1.00  0.00     0.017 C 
HETATM   14  C16 UNL     1      19.033   1.095  50.573  1.00  0.00     0.084 C 
HETATM   15  N2  UNL     1      19.829   2.041  49.911  1.00  0.00    -0.378 N 
HETATM   16  H15 UNL     1      19.910   2.484  48.995  1.00  0.00     0.160 HD
ENDROOT
BRANCH   1  17
HETATM   17  C5  UNL     1      23.687   0.585  53.201  1.00  0.00     0.044 C 
HETATM   18  C4  UNL     1      24.969   0.433  53.157  1.00  0.00     0.068 C 
BRANCH  18  19
HETATM   19  C3  UNL     1      25.880   1.295  52.477  1.00  0.00     0.060 C 
BRANCH  19  20
HETATM   20  C2  UNL     1      26.507   2.297  52.014  1.00  0.00     0.137 C 
BRANCH  20  21
HETATM   21  O1  UNL     1      27.858   2.329  52.278  1.00  0.00    -0.368 OA
HETATM   22  C1  UNL     1      28.445   2.420  53.546  1.00  0.00     0.208 C 
ENDBRANCH  20  21
ENDBRANCH  19  20
ENDBRANCH  18  19
BRANCH  18  23
HETATM   23  O3  UNL     1      26.081  -0.305  53.525  1.00  0.00    -0.356 OA
HETATM   24  C17 UNL     1      26.601  -1.285  52.664  1.00  0.00     0.210 C 
ENDBRANCH  18  23
ENDBRANCH   1  17
TORSDOF 5
ENDMDL
MODEL 3
REMARK VINA RESULT:      -6.4      2.944      6.089
REMARK  5 active torsions:
REMARK  status: ('A' for Active; 'I' for Inactive)
REMARK    1  A    between atoms: O1_2  and  C2_3 
REMARK    2  A    between atoms: C2_3  and  C3_4 
REMARK    3  A    between atoms: C3_4  and  C4_5 
REMARK    4  A    between atoms: C4_5  and  O3_22 
REMARK    5  A    between atoms: C5_6  and  C6_7 
ROOT
HETATM    1  C6  UNL     1      23.645   1.970  52.912  1.00  0.00     0.188 C 
HETATM    2  O2  UNL     1      23.272   1.112  51.825  1.00  0.00    -0.324 OA
HETATM    3  C7  UNL     1      23.655   2.140  50.987  1.00  0.00     0.164 C 
HETATM    4  N1  UNL     1      24.173   2.851  49.965  1.00  0.00    -0.266 NA
HETATM    5  C8  UNL     1      25.197   3.819  49.793  1.00  0.00     0.195 C 
HETATM    6  C9  UNL     1      24.585   5.285  49.959  1.00  0.00     0.112 A 
HETATM    7  C10 UNL     1      24.542   6.491  50.875  1.00  0.00     0.109 A 
HETATM    8  S1  UNL     1      23.920   5.244  51.398  1.00  0.00    -0.112 SA
HETATM    9  C11 UNL     1      23.417   4.203  51.808  1.00  0.00    -0.094 C 
HETATM   10  C12 UNL     1      22.856   3.006  52.248  1.00  0.00     0.136 C 
HETATM   11  C13 UNL     1      21.476   2.761  51.767  1.00  0.00     0.007 C 
HETATM   12  C14 UNL     1      21.210   3.285  50.583  1.00  0.00    -0.001 C 
HETATM   13  C15 UNL     1      21.496   4.011  49.401  1.00  0.00     0.017 C 
HETATM   14  C16 UNL     1      22.484   4.665  48.844  1.00  0.00     0.084 C 
HETATM   15  N2  UNL     1      23.771   5.206  48.710  1.00  0.00    -0.378 N 
HETATM   16  H15 UNL     1      24.381   5.588  47.987  1.00  0.00     0.160 HD
ENDROOT
BRANCH   1  17
HETATM   17  C5  UNL     1      25.076   2.236  52.870  1.00  0.00     0.044 C 
HETATM   18  C4  UNL     1      26.047   1.932  53.666  1.00  0.00     0.068 C 
BRANCH  18  19
HETATM   19  C3  UNL     1      27.416   2.279  53.469  1.00  0.00     0.060 C 
BRANCH  19  20
HETATM   20  C2  UNL     1      28.671   2.436  53.585  1.00  0.00     0.137 C 
BRANCH  20  21
HETATM   21  O1  UNL     1      29.346   1.408  54.204  1.00  0.00    -0.368 OA
HETATM   22  C1  UNL     1      29.643   0.162  53.639  1.00  0.00     0.208 C 
ENDBRANCH  20  21
ENDBRANCH  19  20
ENDBRANCH  18  19
BRANCH  18  23
HETATM   23  O3  UNL     1      26.464   1.316  54.834  1.00  0.00    -0.356 OA
HETATM   24  C17 UNL     1      26.198  -0.046  55.053  1.00  0.00     0.210 C 
ENDBRANCH  18  23
ENDBRANCH   1  17
TORSDOF 5
ENDMDL
MODEL 4
REMARK VINA RESULT:      -6.3      3.214      6.282
REMARK  5 active torsions:
REMARK  status: ('A' for Active; 'I' for Inactive)
REMARK    1  A    between atoms: O1_2  and  C2_3 
REMARK    2  A    between atoms: C2_3  and  C3_4 
REMARK    3  A    between atoms: C3_4  and  C4_5 
REMARK    4  A    between atoms: C4_5  and  O3_22 
REMARK    5  A    between atoms: C5_6  and  C6_7 
ROOT
HETATM    1  C6  UNL     1      22.791   0.115  53.672  1.00  0.00     0.188 C 
HETATM    2  O2  UNL     1      22.457  -1.082  52.955  1.00  0.00    -0.324 OA
HETATM    3  C7  UNL     1      21.846  -0.261  52.030  1.00  0.00     0.164 C 
HETATM    4  N1  UNL     1      21.409   0.292  50.880  1.00  0.00    -0.266 NA
HETATM    5  C8  UNL     1      21.599   1.515  50.182  1.00  0.00     0.195 C 
HETATM    6  C9  UNL     1      20.484   2.568  50.630  1.00  0.00     0.112 A 
HETATM    7  C10 UNL     1      20.258   3.842  51.417  1.00  0.00     0.109 A 
HETATM    8  S1  UNL     1      20.663   2.645  52.203  1.00  0.00    -0.112 SA
HETATM    9  C11 UNL     1      21.001   1.646  52.829  1.00  0.00    -0.094 C 
HETATM   10  C12 UNL     1      21.388   0.495  53.512  1.00  0.00     0.136 C 
HETATM   11  C13 UNL     1      20.277  -0.432  53.833  1.00  0.00     0.007 C 
HETATM   12  C14 UNL     1      19.284  -0.416  52.962  1.00  0.00    -0.001 C 
HETATM   13  C15 UNL     1      18.597   0.008  51.798  1.00  0.00     0.017 C 
HETATM   14  C16 UNL     1      18.745   0.839  50.797  1.00  0.00     0.084 C 
HETATM   15  N2  UNL     1      19.361   1.813  49.998  1.00  0.00    -0.378 N 
HETATM   16  H15 UNL     1      19.293   2.203  49.058  1.00  0.00     0.160 HD
ENDROOT
BRANCH   1  17
HETATM   17  C5  UNL     1      23.693   0.938  52.880  1.00  0.00     0.044 C 
HETATM   18  C4  UNL     1      24.974   0.926  52.717  1.00  0.00     0.068 C 
BRANCH  18  19
HETATM   19  C3  UNL     1      25.709   1.822  51.886  1.00  0.00     0.060 C 
BRANCH  19  20
HETATM   20  C2  UNL     1      26.515   2.342  51.053  1.00  0.00     0.137 C 
BRANCH  20  21
HETATM   21  O1  UNL     1      25.998   3.358  50.279  1.00  0.00    -0.368 OA
HETATM   22  C1  UNL     1      26.714   4.137  49.362  1.00  0.00     0.208 C 
ENDBRANCH  20  21
ENDBRANCH  19  20
ENDBRANCH  18  19
BRANCH  18  23
HETATM   23  O3  UNL     1      26.195   0.349  53.022  1.00  0.00    -0.356 OA
HETATM   24  C17 UNL     1      26.356  -1.045  52.967  1.00  0.00     0.210 C 
ENDBRANCH  18  23
ENDBRANCH   1  17
TORSDOF 5
ENDMDL
MODEL 5
REMARK VINA RESULT:      -6.3      2.958      5.975
REMARK  5 active torsions:
REMARK  status: ('A' for Active; 'I' for Inactive)
REMARK    1  A    between atoms: O1_2  and  C2_3 
REMARK    2  A    between atoms: C2_3  and  C3_4 
REMARK    3  A    between atoms: C3_4  and  C4_5 
REMARK    4  A    between atoms: C4_5  and  O3_22 
REMARK    5  A    between atoms: C5_6  and  C6_7 
ROOT
HETATM    1  C6  UNL     1      24.466   1.725  51.650  1.00  0.00     0.188 C 
HETATM    2  O2  UNL     1      24.502   3.068  52.151  1.00  0.00    -0.324 OA
HETATM    3  C7  UNL     1      23.125   3.055  52.058  1.00  0.00     0.164 C 
HETATM    4  N1  UNL     1      21.810   3.228  52.301  1.00  0.00    -0.266 NA
HETATM    5  C8  UNL     1      20.688   2.398  52.561  1.00  0.00     0.195 C 
HETATM    6  C9  UNL     1      19.962   2.030  51.186  1.00  0.00     0.112 A 
HETATM    7  C10 UNL     1      19.709   0.903  50.206  1.00  0.00     0.109 A 
HETATM    8  S1  UNL     1      21.118   1.366  50.327  1.00  0.00    -0.112 SA
HETATM    9  C11 UNL     1      22.273   1.763  50.448  1.00  0.00    -0.094 C 
HETATM   10  C12 UNL     1      23.574   2.232  50.608  1.00  0.00     0.136 C 
HETATM   11  C13 UNL     1      23.891   3.447  49.821  1.00  0.00     0.007 C 
HETATM   12  C14 UNL     1      22.860   4.248  49.616  1.00  0.00    -0.001 C 
HETATM   13  C15 UNL     1      21.509   4.661  49.715  1.00  0.00     0.017 C 
HETATM   14  C16 UNL     1      20.375   4.258  50.231  1.00  0.00     0.084 C 
HETATM   15  N2  UNL     1      19.492   3.425  50.934  1.00  0.00    -0.378 N 
HETATM   16  H15 UNL     1      18.568   3.461  51.365  1.00  0.00     0.160 HD
ENDROOT
BRANCH   1  17
HETATM   17  C5  UNL     1      23.787   0.854  52.600  1.00  0.00     0.044 C 
HETATM   18  C4  UNL     1      24.215  -0.041  53.427  1.00  0.00     0.068 C 
BRANCH  18  19
HETATM   19  C3  UNL     1      23.396  -0.815  54.301  1.00  0.00     0.060 C 
BRANCH  19  20
HETATM   20  C2  UNL     1      22.639  -1.216  55.239  1.00  0.00     0.137 C 
BRANCH  20  21
HETATM   21  O1  UNL     1      21.412  -1.705  54.847  1.00  0.00    -0.368 OA
HETATM   22  C1  UNL     1      20.540  -1.100  53.935  1.00  0.00     0.208 C 
ENDBRANCH  20  21
ENDBRANCH  19  20
ENDBRANCH  18  19
BRANCH  18  23
HETATM   23  O3  UNL     1      25.287  -0.732  53.964  1.00  0.00    -0.356 OA
HETATM   24  C17 UNL     1      26.292  -0.049  54.669  1.00  0.00     0.210 C 
ENDBRANCH  18  23
ENDBRANCH   1  17
TORSDOF 5
ENDMDL
MODEL 6
REMARK VINA RESULT:      -6.0      9.373     10.889
REMARK  5 active torsions:
REMARK  status: ('A' for Active; 'I' for Inactive)
REMARK    1  A    between atoms: O1_2  and  C2_3 
REMARK    2  A    between atoms: C2_3  and  C3_4 
REMARK    3  A    between atoms: C3_4  and  C4_5 
REMARK    4  A    between atoms: C4_5  and  O3_22 
REMARK    5  A    between atoms: C5_6  and  C6_7 
ROOT
HETATM    1  C6  UNL     1      29.963   6.392  48.210  1.00  0.00     0.188 C 
HETATM    2  O2  UNL     1      30.426   5.514  49.245  1.00  0.00    -0.324 OA
HETATM    3  C7  UNL     1      31.699   5.948  48.933  1.00  0.00     0.164 C 
HETATM    4  N1  UNL     1      32.979   6.365  49.011  1.00  0.00    -0.266 NA
HETATM    5  C8  UNL     1      33.704   7.544  48.696  1.00  0.00     0.195 C 
HETATM    6  C9  UNL     1      34.259   7.452  47.201  1.00  0.00     0.112 A 
HETATM    7  C10 UNL     1      34.085   8.002  45.800  1.00  0.00     0.109 A 
HETATM    8  S1  UNL     1      32.951   7.203  46.339  1.00  0.00    -0.112 SA
HETATM    9  C11 UNL     1      32.028   6.544  46.806  1.00  0.00    -0.094 C 
HETATM   10  C12 UNL     1      30.996   5.794  47.364  1.00  0.00     0.136 C 
HETATM   11  C13 UNL     1      31.170   4.327  47.250  1.00  0.00     0.007 C 
HETATM   12  C14 UNL     1      32.429   3.926  47.251  1.00  0.00    -0.001 C 
HETATM   13  C15 UNL     1      33.835   4.091  47.299  1.00  0.00     0.017 C 
HETATM   14  C16 UNL     1      34.726   5.046  47.395  1.00  0.00     0.084 C 
HETATM   15  N2  UNL     1      35.221   6.353  47.510  1.00  0.00    -0.378 N 
HETATM   16  H15 UNL     1      36.085   6.837  47.757  1.00  0.00     0.160 HD
ENDROOT
BRANCH   1  17
HETATM   17  C5  UNL     1      30.251   7.775  48.560  1.00  0.00     0.044 C 
HETATM   18  C4  UNL     1      29.494   8.794  48.796  1.00  0.00     0.068 C 
BRANCH  18  19
HETATM   19  C3  UNL     1      29.952  10.103  49.133  1.00  0.00     0.060 C 
BRANCH  19  20
HETATM   20  C2  UNL     1      30.501  11.248  49.134  1.00  0.00     0.137 C 
BRANCH  20  21
HETATM   21  O1  UNL     1      29.790  12.251  48.515  1.00  0.00    -0.368 OA
HETATM   22  C1  UNL     1      28.634  12.866  49.012  1.00  0.00     0.208 C 
ENDBRANCH  20  21
ENDBRANCH  19  20
ENDBRANCH  18  19
BRANCH  18  23
HETATM   23  O3  UNL     1      28.215   9.314  48.895  1.00  0.00    -0.356 OA
HETATM   24  C17 UNL     1      27.526   9.278  50.119  1.00  0.00     0.210 C 
ENDBRANCH  18  23
ENDBRANCH   1  17
TORSDOF 5
ENDMDL
MODEL 7
REMARK VINA RESULT:      -6.0      2.916      4.819
REMARK  5 active torsions:
REMARK  status: ('A' for Active; 'I' for Inactive)
REMARK    1  A    between atoms: O1_2  and  C2_3 
REMARK    2  A    between atoms: C2_3  and  C3_4 
REMARK    3  A    between atoms: C3_4  and  C4_5 
REMARK    4  A    between atoms: C4_5  and  O3_22 
REMARK    5  A    between atoms: C5_6  and  C6_7 
ROOT
HETATM    1  C6  UNL     1      24.873   1.482  51.807  1.00  0.00     0.188 C 
HETATM    2  O2  UNL     1      25.588   2.495  52.527  1.00  0.00    -0.324 OA
HETATM    3  C7  UNL     1      24.541   3.340  52.219  1.00  0.00     0.164 C 
HETATM    4  N1  UNL     1      23.578   4.282  52.280  1.00  0.00    -0.266 NA
HETATM    5  C8  UNL     1      22.159   4.316  52.217  1.00  0.00     0.195 C 
HETATM    6  C9  UNL     1      21.694   4.527  50.704  1.00  0.00     0.112 A 
HETATM    7  C10 UNL     1      21.049   3.837  49.519  1.00  0.00     0.109 A 
HETATM    8  S1  UNL     1      22.382   3.323  49.936  1.00  0.00    -0.112 SA
HETATM    9  C11 UNL     1      23.481   2.915  50.301  1.00  0.00    -0.094 C 
HETATM   10  C12 UNL     1      24.726   2.471  50.740  1.00  0.00     0.136 C 
HETATM   11  C13 UNL     1      25.873   3.257  50.229  1.00  0.00     0.007 C 
HETATM   12  C14 UNL     1      25.604   4.532  50.004  1.00  0.00    -0.001 C 
HETATM   13  C15 UNL     1      24.788   5.689  49.960  1.00  0.00     0.017 C 
HETATM   14  C16 UNL     1      23.558   6.055  50.216  1.00  0.00     0.084 C 
HETATM   15  N2  UNL     1      22.222   5.922  50.621  1.00  0.00    -0.378 N 
HETATM   16  H15 UNL     1      21.434   6.506  50.902  1.00  0.00     0.160 HD
ENDROOT
BRANCH   1  17
HETATM   17  C5  UNL     1      23.615   1.185  52.478  1.00  0.00     0.044 C 
HETATM   18  C4  UNL     1      23.268   0.271  53.322  1.00  0.00     0.068 C 
BRANCH  18  19
HETATM   19  C3  UNL     1      21.968   0.122  53.890  1.00  0.00     0.060 C 
BRANCH  19  20
HETATM   20  C2  UNL     1      20.741   0.243  54.195  1.00  0.00     0.137 C 
BRANCH  20  21
HETATM   21  O1  UNL     1      19.865   0.290  53.133  1.00  0.00    -0.368 OA
HETATM   22  C1  UNL     1      19.720   1.354  52.235  1.00  0.00     0.208 C 
ENDBRANCH  20  21
ENDBRANCH  19  20
ENDBRANCH  18  19
BRANCH  18  23
HETATM   23  O3  UNL     1      23.625  -0.835  54.074  1.00  0.00    -0.356 OA
HETATM   24  C17 UNL     1      24.852  -0.863  54.758  1.00  0.00     0.210 C 
ENDBRANCH  18  23
ENDBRANCH   1  17
TORSDOF 5
ENDMDL
MODEL 8
REMARK VINA RESULT:      -5.9      2.765      5.766
REMARK  5 active torsions:
REMARK  status: ('A' for Active; 'I' for Inactive)
REMARK    1  A    between atoms: O1_2  and  C2_3 
REMARK    2  A    between atoms: C2_3  and  C3_4 
REMARK    3  A    between atoms: C3_4  and  C4_5 
REMARK    4  A    between atoms: C4_5  and  O3_22 
REMARK    5  A    between atoms: C5_6  and  C6_7 
ROOT
HETATM    1  C6  UNL     1      21.314   0.542  51.659  1.00  0.00     0.188 C 
HETATM    2  O2  UNL     1      21.400   0.328  50.244  1.00  0.00    -0.324 OA
HETATM    3  C7  UNL     1      22.211   1.444  50.205  1.00  0.00     0.164 C 
HETATM    4  N1  UNL     1      23.196   2.318  49.915  1.00  0.00    -0.266 NA
HETATM    5  C8  UNL     1      24.269   2.937  50.611  1.00  0.00     0.195 C 
HETATM    6  C9  UNL     1      23.779   4.327  51.225  1.00  0.00     0.112 A 
HETATM    7  C10 UNL     1      23.432   5.033  52.520  1.00  0.00     0.109 A 
HETATM    8  S1  UNL     1      22.533   3.917  52.116  1.00  0.00    -0.112 SA
HETATM    9  C11 UNL     1      21.809   2.992  51.764  1.00  0.00    -0.094 C 
HETATM   10  C12 UNL     1      21.007   1.935  51.339  1.00  0.00     0.136 C 
HETATM   11  C13 UNL     1      19.980   2.307  50.339  1.00  0.00     0.007 C 
HETATM   12  C14 UNL     1      20.326   3.307  49.547  1.00  0.00    -0.001 C 
HETATM   13  C15 UNL     1      21.180   4.323  49.052  1.00  0.00     0.017 C 
HETATM   14  C16 UNL     1      22.366   4.829  49.277  1.00  0.00     0.084 C 
HETATM   15  N2  UNL     1      23.616   4.983  49.894  1.00  0.00    -0.378 N 
HETATM   16  H15 UNL     1      24.519   5.425  49.719  1.00  0.00     0.160 HD
ENDROOT
BRANCH   1  17
HETATM   17  C5  UNL     1      22.626   0.379  52.270  1.00  0.00     0.044 C 
HETATM   18  C4  UNL     1      23.022  -0.215  53.346  1.00  0.00     0.068 C 
BRANCH  18  19
HETATM   19  C3  UNL     1      24.371  -0.279  53.805  1.00  0.00     0.060 C 
BRANCH  19  20
HETATM   20  C2  UNL     1      25.434  -0.502  54.463  1.00  0.00     0.137 C 
BRANCH  20  21
HETATM   21  O1  UNL     1      26.365  -1.302  53.839  1.00  0.00    -0.368 OA
HETATM   22  C1  UNL     1      26.720  -1.247  52.486  1.00  0.00     0.208 C 
ENDBRANCH  20  21
ENDBRANCH  19  20
ENDBRANCH  18  19
BRANCH  18  23
HETATM   23  O3  UNL     1      22.699  -0.954  54.472  1.00  0.00    -0.356 OA
HETATM   24  C17 UNL     1      21.479  -1.646  54.541  1.00  0.00     0.210 C 
ENDBRANCH  18  23
ENDBRANCH   1  17
TORSDOF 5
ENDMDL
MODEL 9
REMARK VINA RESULT:      -5.9      2.460      4.574
REMARK  5 active torsions:
REMARK  status: ('A' for Active; 'I' for Inactive)
REMARK    1  A    between atoms: O1_2  and  C2_3 
REMARK    2  A    between atoms: C2_3  and  C3_4 
REMARK    3  A    between atoms: C3_4  and  C4_5 
REMARK    4  A    between atoms: C4_5  and  O3_22 
REMARK    5  A    between atoms: C5_6  and  C6_7 
ROOT
HETATM    1  C6  UNL     1      23.211   1.594  51.459  1.00  0.00     0.188 C 
HETATM    2  O2  UNL     1      22.613   1.916  52.721  1.00  0.00    -0.324 OA
HETATM    3  C7  UNL     1      23.878   1.800  53.260  1.00  0.00     0.164 C 
HETATM    4  N1  UNL     1      24.998   1.995  53.985  1.00  0.00    -0.266 NA
HETATM    5  C8  UNL     1      26.351   2.340  53.727  1.00  0.00     0.195 C 
HETATM    6  C9  UNL     1      27.214   1.013  53.516  1.00  0.00     0.112 A 
HETATM    7  C10 UNL     1      27.941   0.183  52.478  1.00  0.00     0.109 A 
HETATM    8  S1  UNL     1      26.462   0.269  52.335  1.00  0.00    -0.112 SA
HETATM    9  C11 UNL     1      25.242   0.357  52.237  1.00  0.00    -0.094 C 
HETATM   10  C12 UNL     1      23.857   0.479  52.150  1.00  0.00     0.136 C 
HETATM   11  C13 UNL     1      23.102  -0.454  53.019  1.00  0.00     0.007 C 
HETATM   12  C14 UNL     1      23.724  -0.780  54.139  1.00  0.00    -0.001 C 
HETATM   13  C15 UNL     1      24.785  -0.760  55.077  1.00  0.00     0.017 C 
HETATM   14  C16 UNL     1      25.965  -0.217  55.240  1.00  0.00     0.084 C 
HETATM   15  N2  UNL     1      27.084   0.572  54.937  1.00  0.00    -0.378 N 
HETATM   16  H15 UNL     1      27.897   0.978  55.402  1.00  0.00     0.160 HD
ENDROOT
BRANCH   1  17
HETATM   17  C5  UNL     1      24.150   2.637  51.069  1.00  0.00     0.044 C 
HETATM   18  C4  UNL     1      24.287   3.333  49.990  1.00  0.00     0.068 C 
BRANCH  18  19
HETATM   19  C3  UNL     1      25.280   4.334  49.774  1.00  0.00     0.060 C 
BRANCH  19  20
HETATM   20  C2  UNL     1      25.900   5.416  49.535  1.00  0.00     0.137 C 
BRANCH  20  21
HETATM   21  O1  UNL     1      26.770   5.382  48.468  1.00  0.00    -0.368 OA
HETATM   22  C1  UNL     1      28.129   5.055  48.526  1.00  0.00     0.208 C 
ENDBRANCH  20  21
ENDBRANCH  19  20
ENDBRANCH  18  19
BRANCH  18  23
HETATM   23  O3  UNL     1      23.846   3.621  48.710  1.00  0.00    -0.356 OA
HETATM   24  C17 UNL     1      22.471   3.647  48.421  1.00  0.00     0.210 C 
ENDBRANCH  18  23
ENDBRANCH   1  17
TORSDOF 5
ENDMDL
