MODEL 1
REMARK VINA RESULT:      -7.6      0.000      0.000
REMARK  5 active torsions:
REMARK  status: ('A' for Active; 'I' for Inactive)
REMARK    1  A    between atoms: C2_2  and  C3_3 
REMARK    2  A    between atoms: C11_15  and  C12_16 
REMARK    3  A    between atoms: C12_16  and  C13_17 
REMARK    4  A    between atoms: C13_17  and  N3_18 
REMARK    5  A    between atoms: C18_24  and  O2_25 
ROOT
HETATM    1  C3  UNL     1      25.158   2.069  52.628  1.00  0.00    -0.047 C 
HETATM    2  C4  UNL     1      25.088   0.931  53.389  1.00  0.00     0.074 C 
HETATM    3  C5  UNL     1      24.000  -0.063  53.540  1.00  0.00     0.019 C 
HETATM    4 CL1  UNL     1      25.164  -0.793  54.655  1.00  0.00    -0.088 Cl
HETATM    5  C6  UNL     1      22.794  -0.688  53.368  1.00  0.00     0.023 C 
HETATM    6  C7  UNL     1      21.708  -0.187  52.444  1.00  0.00     0.301 C 
HETATM    7  N1  UNL     1      22.297   0.945  51.749  1.00  0.00     0.116 N 
HETATM    8  C8  UNL     1      21.376   1.736  50.969  1.00  0.00     0.374 C 
HETATM    9  N2  UNL     1      21.135   2.962  51.695  1.00  0.00    -0.255 NA
HETATM   10  C9  UNL     1      21.855   3.795  52.373  1.00  0.00     0.163 C 
HETATM   11  S1  UNL     1      23.611   4.100  52.757  1.00  0.00    -0.082 SA
HETATM   12  C10 UNL     1      24.499   2.976  51.630  1.00  0.00     0.018 C 
HETATM   13  C11 UNL     1      24.493   2.989  50.303  1.00  0.00    -0.005 C 
HETATM   14  C18 UNL     1      23.242   2.653  49.564  1.00  0.00     0.081 C 
HETATM   15  C20 UNL     1      22.059   2.009  49.678  1.00  0.00     0.004 C 
HETATM   16  C21 UNL     1      21.435   1.553  48.416  1.00  0.00     0.050 C 
HETATM   17  H8  UNL     1      23.041   0.550  51.067  1.00  0.00     0.319 HD
ENDROOT
BRANCH  13  18
HETATM   18  C12 UNL     1      25.551   3.300  49.270  1.00  0.00     0.073 C 
BRANCH  18  19
HETATM   19  C13 UNL     1      26.479   4.386  49.708  1.00  0.00     0.277 C 
BRANCH  19  20
HETATM   20  N3  UNL     1      26.116   5.683  49.242  1.00  0.00     0.092 N 
HETATM   21  C14 UNL     1      25.489   6.558  50.167  1.00  0.00     0.298 C 
HETATM   22  C15 UNL     1      25.772   8.022  49.927  1.00  0.00     0.198 C 
HETATM   23  O1  UNL     1      25.818   8.391  48.602  1.00  0.00    -0.388 OA
HETATM   24  C16 UNL     1      26.390   7.477  47.748  1.00  0.00     0.198 C 
HETATM   25  C17 UNL     1      27.146   6.393  48.531  1.00  0.00     0.298 C 
ENDBRANCH  19  20
ENDBRANCH  18  19
ENDBRANCH  13  18
BRANCH  14  26
HETATM   26  O2  UNL     1      23.228   3.163  48.273  1.00  0.00    -0.355 OA
HETATM   27  C19 UNL     1      22.759   4.513  48.133  1.00  0.00     0.210 C 
ENDBRANCH  14  26
BRANCH   1  28
HETATM   28  C2  UNL     1      26.519   2.219  53.199  1.00  0.00     0.043 C 
HETATM   29  C1  UNL     1      27.808   2.213  53.487  1.00  0.00    -0.008 C 
ENDBRANCH   1  28
TORSDOF 5
ENDMDL
MODEL 2
REMARK VINA RESULT:      -7.4      2.937      5.382
REMARK  5 active torsions:
REMARK  status: ('A' for Active; 'I' for Inactive)
REMARK    1  A    between atoms: C2_2  and  C3_3 
REMARK    2  A    between atoms: C11_15  and  C12_16 
REMARK    3  A    between atoms: C12_16  and  C13_17 
REMARK    4  A    between atoms: C13_17  and  N3_18 
REMARK    5  A    between atoms: C18_24  and  O2_25 
ROOT
HETATM    1  C3  UNL     1      20.988   1.061  52.648  1.00  0.00    -0.047 C 
HETATM    2  C4  UNL     1      19.894   0.236  52.604  1.00  0.00     0.074 C 
HETATM    3  C5  UNL     1      18.826   0.104  51.586  1.00  0.00     0.019 C 
HETATM    4 CL1  UNL     1      18.241  -1.117  52.726  1.00  0.00    -0.088 Cl
HETATM    5  C6  UNL     1      18.102   0.318  50.444  1.00  0.00     0.023 C 
HETATM    6  C7  UNL     1      18.484   1.319  49.377  1.00  0.00     0.301 C 
HETATM    7  N1  UNL     1      19.780   1.832  49.790  1.00  0.00     0.116 N 
HETATM    8  C8  UNL     1      20.256   2.974  49.046  1.00  0.00     0.374 C 
HETATM    9  N2  UNL     1      20.099   4.136  49.889  1.00  0.00    -0.255 NA
HETATM   10  C9  UNL     1      20.286   4.407  51.140  1.00  0.00     0.163 C 
HETATM   11  S1  UNL     1      20.984   3.618  52.628  1.00  0.00    -0.082 SA
HETATM   12  C10 UNL     1      21.807   2.127  51.978  1.00  0.00     0.018 C 
HETATM   13  C11 UNL     1      22.822   2.068  51.125  1.00  0.00    -0.005 C 
HETATM   14  C18 UNL     1      22.630   2.510  49.714  1.00  0.00     0.081 C 
HETATM   15  C20 UNL     1      21.691   2.711  48.762  1.00  0.00     0.004 C 
HETATM   16  C21 UNL     1      22.155   2.653  47.359  1.00  0.00     0.050 C 
HETATM   17  H8  UNL     1      20.500   1.034  49.650  1.00  0.00     0.319 HD
ENDROOT
BRANCH  13  18
HETATM   18  C12 UNL     1      24.260   1.625  51.262  1.00  0.00     0.073 C 
BRANCH  18  19
HETATM   19  C13 UNL     1      24.745   1.678  52.675  1.00  0.00     0.277 C 
BRANCH  19  20
HETATM   20  N3  UNL     1      25.858   0.829  52.939  1.00  0.00     0.092 N 
HETATM   21  C14 UNL     1      26.792   1.259  53.917  1.00  0.00     0.298 C 
HETATM   22  C15 UNL     1      27.471   0.136  54.664  1.00  0.00     0.198 C 
HETATM   23  O1  UNL     1      27.785  -0.962  53.896  1.00  0.00    -0.388 OA
HETATM   24  C16 UNL     1      26.863  -1.296  52.930  1.00  0.00     0.198 C 
HETATM   25  C17 UNL     1      25.536  -0.556  53.159  1.00  0.00     0.298 C 
ENDBRANCH  19  20
ENDBRANCH  18  19
ENDBRANCH  13  18
BRANCH  14  26
HETATM   26  O2  UNL     1      23.822   2.856  49.092  1.00  0.00    -0.355 OA
HETATM   27  C19 UNL     1      24.265   4.208  49.286  1.00  0.00     0.210 C 
ENDBRANCH  14  26
BRANCH   1  28
HETATM   28  C2  UNL     1      21.284   0.396  53.940  1.00  0.00     0.043 C 
HETATM   29  C1  UNL     1      21.506  -0.426  54.949  1.00  0.00    -0.008 C 
ENDBRANCH   1  28
TORSDOF 5
ENDMDL
MODEL 3
REMARK VINA RESULT:      -7.2      3.356      5.978
REMARK  5 active torsions:
REMARK  status: ('A' for Active; 'I' for Inactive)
REMARK    1  A    between atoms: C2_2  and  C3_3 
REMARK    2  A    between atoms: C11_15  and  C12_16 
REMARK    3  A    between atoms: C12_16  and  C13_17 
REMARK    4  A    between atoms: C13_17  and  N3_18 
REMARK    5  A    between atoms: C18_24  and  O2_25 
ROOT
HETATM    1  C3  UNL     1      24.932   4.486  49.748  1.00  0.00    -0.047 C 
HETATM    2  C4  UNL     1      25.055   5.845  49.880  1.00  0.00     0.074 C 
HETATM    3  C5  UNL     1      24.067   6.868  50.293  1.00  0.00     0.019 C 
HETATM    4 CL1  UNL     1      25.441   7.946  50.008  1.00  0.00    -0.088 Cl
HETATM    5  C6  UNL     1      22.888   7.425  50.711  1.00  0.00     0.023 C 
HETATM    6  C7  UNL     1      21.635   6.629  51.003  1.00  0.00     0.301 C 
HETATM    7  N1  UNL     1      22.035   5.238  50.872  1.00  0.00     0.116 N 
HETATM    8  C8  UNL     1      20.952   4.283  50.884  1.00  0.00     0.374 C 
HETATM    9  N2  UNL     1      20.764   3.824  49.527  1.00  0.00    -0.255 NA
HETATM   10  C9  UNL     1      21.537   3.493  48.544  1.00  0.00     0.163 C 
HETATM   11  S1  UNL     1      23.312   3.233  48.218  1.00  0.00    -0.082 SA
HETATM   12  C10 UNL     1      24.064   3.268  49.878  1.00  0.00     0.018 C 
HETATM   13  C11 UNL     1      23.837   2.438  50.888  1.00  0.00    -0.005 C 
HETATM   14  C18 UNL     1      22.502   2.427  51.553  1.00  0.00     0.081 C 
HETATM   15  C20 UNL     1      21.394   3.171  51.766  1.00  0.00     0.004 C 
HETATM   16  C21 UNL     1      20.597   2.835  52.965  1.00  0.00     0.050 C 
HETATM   17  H8  UNL     1      22.677   5.008  51.715  1.00  0.00     0.319 HD
ENDROOT
BRANCH  13  18
HETATM   18  C12 UNL     1      24.689   1.400  51.581  1.00  0.00     0.073 C 
BRANCH  18  19
HETATM   19  C13 UNL     1      26.129   1.794  51.653  1.00  0.00     0.277 C 
BRANCH  19  20
HETATM   20  N3  UNL     1      26.868   1.113  52.663  1.00  0.00     0.092 N 
HETATM   21  C14 UNL     1      26.534   1.386  54.015  1.00  0.00     0.298 C 
HETATM   22  C15 UNL     1      26.759   0.228  54.957  1.00  0.00     0.198 C 
HETATM   23  O1  UNL     1      27.888  -0.517  54.698  1.00  0.00    -0.388 OA
HETATM   24  C16 UNL     1      28.186  -0.702  53.367  1.00  0.00     0.198 C 
HETATM   25  C17 UNL     1      26.997  -0.308  52.478  1.00  0.00     0.298 C 
ENDBRANCH  19  20
ENDBRANCH  18  19
ENDBRANCH  13  18
BRANCH  14  26
HETATM   26  O2  UNL     1      22.244   1.237  52.219  1.00  0.00    -0.355 OA
HETATM   27  C19 UNL     1      21.544   0.232  51.468  1.00  0.00     0.210 C 
ENDBRANCH  14  26
BRANCH   1  28
HETATM   28  C2  UNL     1      26.357   4.520  49.340  1.00  0.00     0.043 C 
HETATM   29  C1  UNL     1      27.540   4.734  48.794  1.00  0.00    -0.008 C 
ENDBRANCH   1  28
TORSDOF 5
ENDMDL
MODEL 4
REMARK VINA RESULT:      -7.1      2.625      4.858
REMARK  5 active torsions:
REMARK  status: ('A' for Active; 'I' for Inactive)
REMARK    1  A    between atoms: C2_2  and  C3_3 
REMARK    2  A    between atoms: C11_15  and  C12_16 
REMARK    3  A    between atoms: C12_16  and  C13_17 
REMARK    4  A    between atoms: C13_17  and  N3_18 
REMARK    5  A    between atoms: C18_24  and  O2_25 
ROOT
HETATM    1  C3  UNL     1      22.980   1.643  52.528  1.00  0.00    -0.047 C 
HETATM    2  C4  UNL     1      21.773   0.993  52.551  1.00  0.00     0.074 C 
HETATM    3  C5  UNL     1      20.485   1.327  51.899  1.00  0.00     0.019 C 
HETATM    4 CL1  UNL     1      19.974  -0.154  52.723  1.00  0.00    -0.088 Cl
HETATM    5  C6  UNL     1      19.559   1.994  51.143  1.00  0.00     0.023 C 
HETATM    6  C7  UNL     1      19.853   3.264  50.377  1.00  0.00     0.301 C 
HETATM    7  N1  UNL     1      21.282   3.475  50.532  1.00  0.00     0.116 N 
HETATM    8  C8  UNL     1      21.769   4.754  50.074  1.00  0.00     0.374 C 
HETATM    9  N2  UNL     1      22.042   5.558  51.243  1.00  0.00    -0.255 NA
HETATM   10  C9  UNL     1      22.574   5.355  52.405  1.00  0.00     0.163 C 
HETATM   11  S1  UNL     1      23.450   4.033  53.304  1.00  0.00    -0.082 SA
HETATM   12  C10 UNL     1      23.797   2.793  52.014  1.00  0.00     0.018 C 
HETATM   13  C11 UNL     1      24.546   2.940  50.928  1.00  0.00    -0.005 C 
HETATM   14  C18 UNL     1      24.104   3.864  49.844  1.00  0.00     0.081 C 
HETATM   15  C20 UNL     1      23.018   4.473  49.318  1.00  0.00     0.004 C 
HETATM   16  C21 UNL     1      23.109   4.866  47.895  1.00  0.00     0.050 C 
HETATM   17  H8  UNL     1      21.784   2.712  49.948  1.00  0.00     0.319 HD
ENDROOT
BRANCH  13  18
HETATM   18  C12 UNL     1      25.865   2.343  50.496  1.00  0.00     0.073 C 
BRANCH  18  19
HETATM   19  C13 UNL     1      26.914   2.442  51.556  1.00  0.00     0.277 C 
BRANCH  19  20
HETATM   20  N3  UNL     1      26.911   1.357  52.480  1.00  0.00     0.092 N 
HETATM   21  C14 UNL     1      26.760   0.049  51.952  1.00  0.00     0.298 C 
HETATM   22  C15 UNL     1      27.451  -1.029  52.754  1.00  0.00     0.198 C 
HETATM   23  O1  UNL     1      27.389  -0.861  54.119  1.00  0.00    -0.388 OA
HETATM   24  C16 UNL     1      27.489   0.437  54.565  1.00  0.00     0.198 C 
HETATM   25  C17 UNL     1      27.979   1.367  53.444  1.00  0.00     0.298 C 
ENDBRANCH  19  20
ENDBRANCH  18  19
ENDBRANCH  13  18
BRANCH  14  26
HETATM   26  O2  UNL     1      25.153   4.291  49.041  1.00  0.00    -0.355 OA
HETATM   27  C19 UNL     1      25.859   5.457  49.493  1.00  0.00     0.210 C 
ENDBRANCH  14  26
BRANCH   1  28
HETATM   28  C2  UNL     1      23.449   0.543  53.405  1.00  0.00     0.043 C 
HETATM   29  C1  UNL     1      23.843  -0.588  53.961  1.00  0.00    -0.008 C 
ENDBRANCH   1  28
TORSDOF 5
ENDMDL
MODEL 5
REMARK VINA RESULT:      -6.8      4.021      7.264
REMARK  5 active torsions:
REMARK  status: ('A' for Active; 'I' for Inactive)
REMARK    1  A    between atoms: C2_2  and  C3_3 
REMARK    2  A    between atoms: C11_15  and  C12_16 
REMARK    3  A    between atoms: C12_16  and  C13_17 
REMARK    4  A    between atoms: C13_17  and  N3_18 
REMARK    5  A    between atoms: C18_24  and  O2_25 
ROOT
HETATM    1  C3  UNL     1      20.014   0.632  51.900  1.00  0.00    -0.047 C 
HETATM    2  C4  UNL     1      20.617  -0.241  52.769  1.00  0.00     0.074 C 
HETATM    3  C5  UNL     1      22.015  -0.305  53.254  1.00  0.00     0.019 C 
HETATM    4 CL1  UNL     1      21.379  -1.707  54.128  1.00  0.00    -0.088 Cl
HETATM    5  C6  UNL     1      23.336   0.014  53.424  1.00  0.00     0.023 C 
HETATM    6  C7  UNL     1      24.014   1.186  52.751  1.00  0.00     0.301 C 
HETATM    7  N1  UNL     1      22.947   1.893  52.062  1.00  0.00     0.116 N 
HETATM    8  C8  UNL     1      23.381   2.930  51.157  1.00  0.00     0.374 C 
HETATM    9  N2  UNL     1      23.221   2.426  49.812  1.00  0.00    -0.255 NA
HETATM   10  C9  UNL     1      22.328   1.733  49.181  1.00  0.00     0.163 C 
HETATM   11  S1  UNL     1      20.657   1.061  49.463  1.00  0.00    -0.082 SA
HETATM   12  C10 UNL     1      20.136   1.845  51.023  1.00  0.00     0.018 C 
HETATM   13  C11 UNL     1      19.964   3.139  51.263  1.00  0.00    -0.005 C 
HETATM   14  C18 UNL     1      21.140   4.056  51.260  1.00  0.00     0.081 C 
HETATM   15  C20 UNL     1      22.485   4.090  51.400  1.00  0.00     0.004 C 
HETATM   16  C21 UNL     1      23.068   5.379  51.831  1.00  0.00     0.050 C 
HETATM   17  H8  UNL     1      22.333   2.364  52.821  1.00  0.00     0.319 HD
ENDROOT
BRANCH  13  18
HETATM   18  C12 UNL     1      18.744   3.980  51.557  1.00  0.00     0.073 C 
BRANCH  18  19
HETATM   19  C13 UNL     1      17.514   3.463  50.884  1.00  0.00     0.277 C 
BRANCH  19  20
HETATM   20  N3  UNL     1      16.505   3.012  51.784  1.00  0.00     0.092 N 
HETATM   21  C14 UNL     1      15.761   3.999  52.481  1.00  0.00     0.298 C 
HETATM   22  C15 UNL     1      14.344   3.592  52.809  1.00  0.00     0.198 C 
HETATM   23  O1  UNL     1      14.192   2.274  53.176  1.00  0.00    -0.388 OA
HETATM   24  C16 UNL     1      14.980   1.372  52.499  1.00  0.00     0.198 C 
HETATM   25  C17 UNL     1      15.609   2.018  51.255  1.00  0.00     0.298 C 
ENDBRANCH  19  20
ENDBRANCH  18  19
ENDBRANCH  13  18
BRANCH  14  26
HETATM   26  O2  UNL     1      20.790   5.379  51.035  1.00  0.00    -0.355 OA
HETATM   27  C19 UNL     1      20.674   5.777  49.660  1.00  0.00     0.210 C 
ENDBRANCH  14  26
BRANCH   1  28
HETATM   28  C2  UNL     1      18.788  -0.166  52.144  1.00  0.00     0.043 C 
HETATM   29  C1  UNL     1      17.858  -1.022  52.526  1.00  0.00    -0.008 C 
ENDBRANCH   1  28
TORSDOF 5
ENDMDL
MODEL 6
REMARK VINA RESULT:      -6.7      3.577      6.660
REMARK  5 active torsions:
REMARK  status: ('A' for Active; 'I' for Inactive)
REMARK    1  A    between atoms: C2_2  and  C3_3 
REMARK    2  A    between atoms: C11_15  and  C12_16 
REMARK    3  A    between atoms: C12_16  and  C13_17 
REMARK    4  A    between atoms: C13_17  and  N3_18 
REMARK    5  A    between atoms: C18_24  and  O2_25 
ROOT
HETATM    1  C3  UNL     1      23.836   3.907  49.869  1.00  0.00    -0.047 C 
HETATM    2  C4  UNL     1      24.326   5.145  50.193  1.00  0.00     0.074 C 
HETATM    3  C5  UNL     1      23.623   6.424  50.450  1.00  0.00     0.019 C 
HETATM    4 CL1  UNL     1      25.282   6.998  50.676  1.00  0.00    -0.088 Cl
HETATM    5  C6  UNL     1      22.603   7.325  50.602  1.00  0.00     0.023 C 
HETATM    6  C7  UNL     1      21.140   6.977  50.448  1.00  0.00     0.301 C 
HETATM    7  N1  UNL     1      21.113   5.537  50.260  1.00  0.00     0.116 N 
HETATM    8  C8  UNL     1      19.836   4.991  49.866  1.00  0.00     0.374 C 
HETATM    9  N2  UNL     1      19.922   4.659  48.462  1.00  0.00    -0.255 NA
HETATM   10  C9  UNL     1      20.809   4.121  47.689  1.00  0.00     0.163 C 
HETATM   11  S1  UNL     1      22.432   3.301  47.820  1.00  0.00    -0.082 SA
HETATM   12  C10 UNL     1      22.638   3.038  49.611  1.00  0.00     0.018 C 
HETATM   13  C11 UNL     1      21.882   2.300  50.415  1.00  0.00    -0.005 C 
HETATM   14  C18 UNL     1      20.476   2.709  50.692  1.00  0.00     0.081 C 
HETATM   15  C20 UNL     1      19.638   3.771  50.690  1.00  0.00     0.004 C 
HETATM   16  C21 UNL     1      18.462   3.681  51.582  1.00  0.00     0.050 C 
HETATM   17  H8  UNL     1      21.378   5.084  51.209  1.00  0.00     0.319 HD
ENDROOT
BRANCH  13  18
HETATM   18  C12 UNL     1      22.134   1.021  51.178  1.00  0.00     0.073 C 
BRANCH  18  19
HETATM   19  C13 UNL     1      22.975   1.233  52.395  1.00  0.00     0.277 C 
BRANCH  19  20
HETATM   20  N3  UNL     1      22.634   0.389  53.491  1.00  0.00     0.092 N 
HETATM   21  C14 UNL     1      21.303  -0.097  53.553  1.00  0.00     0.298 C 
HETATM   22  C15 UNL     1      21.166  -1.451  54.208  1.00  0.00     0.198 C 
HETATM   23  O1  UNL     1      21.990  -1.655  55.292  1.00  0.00    -0.388 OA
HETATM   24  C16 UNL     1      23.251  -1.113  55.191  1.00  0.00     0.198 C 
HETATM   25  C17 UNL     1      23.553  -0.689  53.746  1.00  0.00     0.298 C 
ENDBRANCH  19  20
ENDBRANCH  18  19
ENDBRANCH  13  18
BRANCH  14  26
HETATM   26  O2  UNL     1      19.682   1.652  51.114  1.00  0.00    -0.355 OA
HETATM   27  C19 UNL     1      18.986   0.935  50.083  1.00  0.00     0.210 C 
ENDBRANCH  14  26
BRANCH   1  28
HETATM   28  C2  UNL     1      25.256   3.482  49.864  1.00  0.00     0.043 C 
HETATM   29  C1  UNL     1      26.419   2.858  49.800  1.00  0.00    -0.008 C 
ENDBRANCH   1  28
TORSDOF 5
ENDMDL
MODEL 7
REMARK VINA RESULT:      -6.6      5.648      9.439
REMARK  5 active torsions:
REMARK  status: ('A' for Active; 'I' for Inactive)
REMARK    1  A    between atoms: C2_2  and  C3_3 
REMARK    2  A    between atoms: C11_15  and  C12_16 
REMARK    3  A    between atoms: C12_16  and  C13_17 
REMARK    4  A    between atoms: C13_17  and  N3_18 
REMARK    5  A    between atoms: C18_24  and  O2_25 
ROOT
HETATM    1  C3  UNL     1      29.135   6.939  48.069  1.00  0.00    -0.047 C 
HETATM    2  C4  UNL     1      30.274   6.177  48.117  1.00  0.00     0.074 C 
HETATM    3  C5  UNL     1      31.695   6.554  47.938  1.00  0.00     0.019 C 
HETATM    4 CL1  UNL     1      31.927   4.821  48.214  1.00  0.00    -0.088 Cl
HETATM    5  C6  UNL     1      32.805   7.325  47.718  1.00  0.00     0.023 C 
HETATM    6  C7  UNL     1      32.762   8.817  47.477  1.00  0.00     0.301 C 
HETATM    7  N1  UNL     1      31.371   9.189  47.671  1.00  0.00     0.116 N 
HETATM    8  C8  UNL     1      31.033  10.536  47.275  1.00  0.00     0.374 C 
HETATM    9  N2  UNL     1      30.304  10.451  46.030  1.00  0.00    -0.255 NA
HETATM   10  C9  UNL     1      29.385   9.681  45.544  1.00  0.00     0.163 C 
HETATM   11  S1  UNL     1      28.298   8.324  46.090  1.00  0.00    -0.082 SA
HETATM   12  C10 UNL     1      28.518   8.298  47.899  1.00  0.00     0.018 C 
HETATM   13  C11 UNL     1      28.226   9.259  48.765  1.00  0.00    -0.005 C 
HETATM   14  C18 UNL     1      28.999  10.534  48.745  1.00  0.00     0.081 C 
HETATM   15  C20 UNL     1      30.174  11.080  48.358  1.00  0.00     0.004 C 
HETATM   16  C21 UNL     1      30.606  12.293  49.086  1.00  0.00     0.050 C 
HETATM   17  H8  UNL     1      31.161   9.103  48.731  1.00  0.00     0.319 HD
ENDROOT
BRANCH  13  18
HETATM   18  C12 UNL     1      27.195   9.381  49.863  1.00  0.00     0.073 C 
BRANCH  18  19
HETATM   19  C13 UNL     1      26.401   8.128  50.045  1.00  0.00     0.277 C 
BRANCH  19  20
HETATM   20  N3  UNL     1      25.123   8.153  49.415  1.00  0.00     0.092 N 
HETATM   21  C14 UNL     1      24.944   7.340  48.266  1.00  0.00     0.298 C 
HETATM   22  C15 UNL     1      23.534   6.832  48.078  1.00  0.00     0.198 C 
HETATM   23  O1  UNL     1      22.547   7.735  48.403  1.00  0.00    -0.388 OA
HETATM   24  C16 UNL     1      22.804   8.531  49.496  1.00  0.00     0.198 C 
HETATM   25  C17 UNL     1      23.998   7.992  50.299  1.00  0.00     0.298 C 
ENDBRANCH  19  20
ENDBRANCH  18  19
ENDBRANCH  13  18
BRANCH  14  26
HETATM   26  O2  UNL     1      28.310  11.590  49.325  1.00  0.00    -0.355 OA
HETATM   27  C19 UNL     1      27.457  12.344  48.450  1.00  0.00     0.210 C 
ENDBRANCH  14  26
BRANCH   1  28
HETATM   28  C2  UNL     1      28.422   5.671  48.356  1.00  0.00     0.043 C 
HETATM   29  C1  UNL     1      27.589   4.706  48.700  1.00  0.00    -0.008 C 
ENDBRANCH   1  28
TORSDOF 5
ENDMDL
MODEL 8
REMARK VINA RESULT:      -6.5      3.506      6.131
REMARK  5 active torsions:
REMARK  status: ('A' for Active; 'I' for Inactive)
REMARK    1  A    between atoms: C2_2  and  C3_3 
REMARK    2  A    between atoms: C11_15  and  C12_16 
REMARK    3  A    between atoms: C12_16  and  C13_17 
REMARK    4  A    between atoms: C13_17  and  N3_18 
REMARK    5  A    between atoms: C18_24  and  O2_25 
ROOT
HETATM    1  C3  UNL     1      23.816   4.764  49.460  1.00  0.00    -0.047 C 
HETATM    2  C4  UNL     1      23.263   5.979  49.144  1.00  0.00     0.074 C 
HETATM    3  C5  UNL     1      21.858   6.444  49.208  1.00  0.00     0.019 C 
HETATM    4 CL1  UNL     1      22.588   7.931  48.584  1.00  0.00    -0.088 Cl
HETATM    5  C6  UNL     1      20.507   6.434  49.428  1.00  0.00     0.023 C 
HETATM    6  C7  UNL     1      19.748   5.242  49.966  1.00  0.00     0.301 C 
HETATM    7  N1  UNL     1      20.770   4.261  50.291  1.00  0.00     0.116 N 
HETATM    8  C8  UNL     1      20.278   2.944  50.616  1.00  0.00     0.374 C 
HETATM    9  N2  UNL     1      20.544   2.090  49.481  1.00  0.00    -0.255 NA
HETATM   10  C9  UNL     1      21.526   1.924  48.655  1.00  0.00     0.163 C 
HETATM   11  S1  UNL     1      23.240   2.499  48.424  1.00  0.00    -0.082 SA
HETATM   12  C10 UNL     1      23.615   3.370  49.980  1.00  0.00     0.018 C 
HETATM   13  C11 UNL     1      23.651   2.862  51.205  1.00  0.00    -0.005 C 
HETATM   14  C18 UNL     1      22.393   2.379  51.843  1.00  0.00     0.081 C 
HETATM   15  C20 UNL     1      21.046   2.500  51.808  1.00  0.00     0.004 C 
HETATM   16  C21 UNL     1      20.324   2.167  53.054  1.00  0.00     0.050 C 
HETATM   17  H8  UNL     1      21.303   4.630  51.160  1.00  0.00     0.319 HD
ENDROOT
BRANCH  13  18
HETATM   18  C12 UNL     1      24.770   2.629  52.193  1.00  0.00     0.073 C 
BRANCH  18  19
HETATM   19  C13 UNL     1      25.902   1.851  51.606  1.00  0.00     0.277 C 
BRANCH  19  20
HETATM   20  N3  UNL     1      26.657   1.112  52.562  1.00  0.00     0.092 N 
HETATM   21  C14 UNL     1      26.414   1.378  53.934  1.00  0.00     0.298 C 
HETATM   22  C15 UNL     1      26.626   0.192  54.845  1.00  0.00     0.198 C 
HETATM   23  O1  UNL     1      27.696  -0.608  54.511  1.00  0.00    -0.388 OA
HETATM   24  C16 UNL     1      27.910  -0.784  53.163  1.00  0.00     0.198 C 
HETATM   25  C17 UNL     1      26.697  -0.311  52.347  1.00  0.00     0.298 C 
ENDBRANCH  19  20
ENDBRANCH  18  19
ENDBRANCH  13  18
BRANCH  14  26
HETATM   26  O2  UNL     1      22.623   1.462  52.859  1.00  0.00    -0.355 OA
HETATM   27  C19 UNL     1      22.679   0.082  52.464  1.00  0.00     0.210 C 
ENDBRANCH  14  26
BRANCH   1  28
HETATM   28  C2  UNL     1      25.102   5.384  49.057  1.00  0.00     0.043 C 
HETATM   29  C1  UNL     1      26.354   5.764  48.880  1.00  0.00    -0.008 C 
ENDBRANCH   1  28
TORSDOF 5
ENDMDL
MODEL 9
REMARK VINA RESULT:      -6.5      3.883      6.175
REMARK  5 active torsions:
REMARK  status: ('A' for Active; 'I' for Inactive)
REMARK    1  A    between atoms: C2_2  and  C3_3 
REMARK    2  A    between atoms: C11_15  and  C12_16 
REMARK    3  A    between atoms: C12_16  and  C13_17 
REMARK    4  A    between atoms: C13_17  and  N3_18 
REMARK    5  A    between atoms: C18_24  and  O2_25 
ROOT
HETATM    1  C3  UNL     1      25.446   5.001  49.295  1.00  0.00    -0.047 C 
HETATM    2  C4  UNL     1      24.437   4.090  49.113  1.00  0.00     0.074 C 
HETATM    3  C5  UNL     1      23.126   4.226  48.438  1.00  0.00     0.019 C 
HETATM    4 CL1  UNL     1      22.975   2.537  48.944  1.00  0.00    -0.088 Cl
HETATM    5  C6  UNL     1      22.085   4.786  47.746  1.00  0.00     0.023 C 
HETATM    6  C7  UNL     1      22.076   6.212  47.242  1.00  0.00     0.301 C 
HETATM    7  N1  UNL     1      23.404   6.723  47.538  1.00  0.00     0.116 N 
HETATM    8  C8  UNL     1      23.571   8.145  47.352  1.00  0.00     0.374 C 
HETATM    9  N2  UNL     1      23.604   8.752  48.663  1.00  0.00    -0.255 NA
HETATM   10  C9  UNL     1      24.137   8.463  49.806  1.00  0.00     0.163 C 
HETATM   11  S1  UNL     1      25.288   7.241  50.517  1.00  0.00    -0.082 SA
HETATM   12  C10 UNL     1      25.967   6.389  49.056  1.00  0.00     0.018 C 
HETATM   13  C11 UNL     1      26.686   6.915  48.072  1.00  0.00    -0.005 C 
HETATM   14  C18 UNL     1      26.060   7.896  47.140  1.00  0.00     0.081 C 
HETATM   15  C20 UNL     1      24.871   8.318  46.653  1.00  0.00     0.004 C 
HETATM   16  C21 UNL     1      24.902   8.985  45.333  1.00  0.00     0.050 C 
HETATM   17  H8  UNL     1      24.095   6.227  46.866  1.00  0.00     0.319 HD
ENDROOT
BRANCH  13  18
HETATM   18  C12 UNL     1      28.123   6.743  47.640  1.00  0.00     0.073 C 
BRANCH  18  19
HETATM   19  C13 UNL     1      28.811   5.629  48.361  1.00  0.00     0.277 C 
BRANCH  19  20
HETATM   20  N3  UNL     1      30.198   5.856  48.592  1.00  0.00     0.092 N 
HETATM   21  C14 UNL     1      31.121   5.169  47.762  1.00  0.00     0.298 C 
HETATM   22  C15 UNL     1      32.414   5.912  47.522  1.00  0.00     0.198 C 
HETATM   23  O1  UNL     1      32.898   6.596  48.615  1.00  0.00    -0.388 OA
HETATM   24  C16 UNL     1      31.949   7.196  49.410  1.00  0.00     0.198 C 
HETATM   25  C17 UNL     1      30.586   7.238  48.702  1.00  0.00     0.298 C 
ENDBRANCH  19  20
ENDBRANCH  18  19
ENDBRANCH  13  18
BRANCH  14  26
HETATM   26  O2  UNL     1      26.993   8.706  46.507  1.00  0.00    -0.355 OA
HETATM   27  C19 UNL     1      27.388   9.889  47.218  1.00  0.00     0.210 C 
ENDBRANCH  14  26
BRANCH   1  28
HETATM   28  C2  UNL     1      26.148   3.898  49.995  1.00  0.00     0.043 C 
HETATM   29  C1  UNL     1      26.557   2.768  50.543  1.00  0.00    -0.008 C 
ENDBRANCH   1  28
TORSDOF 5
ENDMDL
