MODEL 1
REMARK VINA RESULT:      -7.1      0.000      0.000
REMARK  6 active torsions:
REMARK  status: ('A' for Active; 'I' for Inactive)
REMARK    1  A    between atoms: C2_2  and  C3_3 
REMARK       I    between atoms: C3_3  and  N1_5 
REMARK    2  A    between atoms: N1_5  and  C4_6 
REMARK    3  A    between atoms: N2_14  and  C11_15 
REMARK    4  A    between atoms: C11_15  and  N3_16 
REMARK    5  A    between atoms: N3_16  and  C12_17 
REMARK    6  A    between atoms: C12_17  and  C13_18 
ROOT
HETATM    1  C4  UNL     1      25.505   0.010  53.082  1.00  0.00     0.036 A 
HETATM    2  C5  UNL     1      25.139   1.024  52.231  1.00  0.00     0.032 A 
HETATM    3  C6  UNL     1      23.845   1.483  52.133  1.00  0.00     0.040 A 
HETATM    4  C7  UNL     1      22.830   0.951  52.889  1.00  0.00     0.087 A 
HETATM    5  C8  UNL     1      23.195  -0.069  53.745  1.00  0.00     0.037 A 
HETATM    6  C9  UNL     1      24.475  -0.509  53.829  1.00  0.00     0.051 A 
HETATM    7  S1  UNL     1      22.047  -0.928  54.837  1.00  0.00    -0.107 SA
HETATM    8  C10 UNL     1      20.603  -1.322  53.826  1.00  0.00     0.201 C 
HETATM    9  N2  UNL     1      20.060  -0.276  53.067  1.00  0.00    -0.359 N 
HETATM   10  C15 UNL     1      20.383   1.061  53.311  1.00  0.00     0.298 C 
HETATM   11  O2  UNL     1      21.582   1.523  52.673  1.00  0.00    -0.331 OA
ENDROOT
BRANCH   9  12
HETATM   12  C11 UNL     1      18.655  -0.453  52.861  1.00  0.00     0.393 C 
BRANCH  12  13
HETATM   13  N3  UNL     1      18.210  -1.720  53.461  1.00  0.00     0.105 N 
HETATM   14  H12 UNL     1      18.117  -1.519  54.487  1.00  0.00     0.318 HD
BRANCH  13  15
HETATM   15  C12 UNL     1      16.845  -1.992  53.014  1.00  0.00     0.317 C 
BRANCH  15  16
HETATM   16  C13 UNL     1      16.531  -3.444  53.167  1.00  0.00     0.007 C 
HETATM   17  C14 UNL     1      17.087  -4.589  53.585  1.00  0.00     0.029 C 
HETATM   18 BR1  UNL     1      14.746  -3.724  52.558  1.00  0.00    -0.055 Br
ENDBRANCH  15  16
ENDBRANCH  13  15
ENDBRANCH  12  13
ENDBRANCH   9  12
BRANCH   1  19
HETATM   19  N1  UNL     1      26.845  -0.417  53.136  1.00  0.00    -0.324 N 
HETATM   20  C3  UNL     1      27.915  -0.010  53.968  1.00  0.00     0.241 C 
HETATM   21  O1  UNL     1      27.684   0.879  54.819  1.00  0.00    -0.269 OA
HETATM   22  H4  UNL     1      27.140  -1.165  52.455  1.00  0.00     0.169 HD
BRANCH  20  23
HETATM   23  C2  UNL     1      29.250  -0.581  53.867  1.00  0.00     0.048 C 
HETATM   24  C1  UNL     1      29.803  -1.733  53.531  1.00  0.00     0.037 C 
ENDBRANCH  20  23
ENDBRANCH   1  19
TORSDOF 6
ENDMDL
MODEL 2
REMARK VINA RESULT:      -6.8      2.368      3.152
REMARK  6 active torsions:
REMARK  status: ('A' for Active; 'I' for Inactive)
REMARK    1  A    between atoms: C2_2  and  C3_3 
REMARK       I    between atoms: C3_3  and  N1_5 
REMARK    2  A    between atoms: N1_5  and  C4_6 
REMARK    3  A    between atoms: N2_14  and  C11_15 
REMARK    4  A    between atoms: C11_15  and  N3_16 
REMARK    5  A    between atoms: N3_16  and  C12_17 
REMARK    6  A    between atoms: C12_17  and  C13_18 
ROOT
HETATM    1  C4  UNL     1      25.558   0.044  53.246  1.00  0.00     0.036 A 
HETATM    2  C5  UNL     1      25.231   1.111  52.446  1.00  0.00     0.032 A 
HETATM    3  C6  UNL     1      23.945   1.586  52.328  1.00  0.00     0.040 A 
HETATM    4  C7  UNL     1      22.898   1.017  53.009  1.00  0.00     0.087 A 
HETATM    5  C8  UNL     1      23.224  -0.057  53.814  1.00  0.00     0.037 A 
HETATM    6  C9  UNL     1      24.497  -0.512  53.919  1.00  0.00     0.051 A 
HETATM    7  S1  UNL     1      22.030  -0.973  54.806  1.00  0.00    -0.107 SA
HETATM    8  C10 UNL     1      20.623  -1.291  53.718  1.00  0.00     0.201 C 
HETATM    9  N2  UNL     1      20.116  -0.196  53.005  1.00  0.00    -0.359 N 
HETATM   10  C15 UNL     1      20.437   1.120  53.344  1.00  0.00     0.298 C 
HETATM   11  O2  UNL     1      21.662   1.612  52.782  1.00  0.00    -0.331 OA
ENDROOT
BRANCH   9  12
HETATM   12  C11 UNL     1      18.719  -0.348  52.735  1.00  0.00     0.393 C 
BRANCH  12  13
HETATM   13  N3  UNL     1      18.272   0.680  51.783  1.00  0.00     0.105 N 
HETATM   14  H12 UNL     1      18.812   1.543  52.039  1.00  0.00     0.318 HD
BRANCH  13  15
HETATM   15  C12 UNL     1      18.758   0.324  50.451  1.00  0.00     0.317 C 
BRANCH  15  16
HETATM   16  C13 UNL     1      19.378   1.513  49.793  1.00  0.00     0.007 C 
HETATM   17  C14 UNL     1      19.092   2.773  49.441  1.00  0.00     0.029 C 
HETATM   18 BR1  UNL     1      21.163   1.047  49.307  1.00  0.00    -0.055 Br
ENDBRANCH  15  16
ENDBRANCH  13  15
ENDBRANCH  12  13
ENDBRANCH   9  12
BRANCH   1  19
HETATM   19  N1  UNL     1      26.892  -0.396  53.324  1.00  0.00    -0.324 N 
HETATM   20  C3  UNL     1      27.963   0.028  54.147  1.00  0.00     0.241 C 
HETATM   21  O1  UNL     1      27.738   0.951  54.963  1.00  0.00    -0.269 OA
HETATM   22  H4  UNL     1      27.182  -1.174  52.674  1.00  0.00     0.169 HD
BRANCH  20  23
HETATM   23  C2  UNL     1      29.291  -0.562  54.076  1.00  0.00     0.048 C 
HETATM   24  C1  UNL     1      29.892  -1.556  53.446  1.00  0.00     0.037 C 
ENDBRANCH  20  23
ENDBRANCH   1  19
TORSDOF 6
ENDMDL
MODEL 3
REMARK VINA RESULT:      -6.8      0.933      1.374
REMARK  6 active torsions:
REMARK  status: ('A' for Active; 'I' for Inactive)
REMARK    1  A    between atoms: C2_2  and  C3_3 
REMARK       I    between atoms: C3_3  and  N1_5 
REMARK    2  A    between atoms: N1_5  and  C4_6 
REMARK    3  A    between atoms: N2_14  and  C11_15 
REMARK    4  A    between atoms: C11_15  and  N3_16 
REMARK    5  A    between atoms: N3_16  and  C12_17 
REMARK    6  A    between atoms: C12_17  and  C13_18 
ROOT
HETATM    1  C4  UNL     1      25.413   0.032  53.113  1.00  0.00     0.036 A 
HETATM    2  C5  UNL     1      25.129   0.949  52.131  1.00  0.00     0.032 A 
HETATM    3  C6  UNL     1      23.856   1.414  51.891  1.00  0.00     0.040 A 
HETATM    4  C7  UNL     1      22.779   0.987  52.628  1.00  0.00     0.087 A 
HETATM    5  C8  UNL     1      23.062   0.065  53.617  1.00  0.00     0.037 A 
HETATM    6  C9  UNL     1      24.322  -0.382  53.839  1.00  0.00     0.051 A 
HETATM    7  S1  UNL     1      21.822  -0.646  54.715  1.00  0.00    -0.107 SA
HETATM    8  C10 UNL     1      20.441  -1.130  53.655  1.00  0.00     0.201 C 
HETATM    9  N2  UNL     1      19.976  -0.168  52.748  1.00  0.00    -0.359 N 
HETATM   10  C15 UNL     1      20.313   1.182  52.862  1.00  0.00     0.298 C 
HETATM   11  O2  UNL     1      21.563   1.551  52.262  1.00  0.00    -0.331 OA
ENDROOT
BRANCH   9  12
HETATM   12  C11 UNL     1      18.584  -0.346  52.464  1.00  0.00     0.393 C 
BRANCH  12  13
HETATM   13  N3  UNL     1      17.956  -1.170  53.507  1.00  0.00     0.105 N 
HETATM   14  H12 UNL     1      17.444  -0.490  54.122  1.00  0.00     0.318 HD
BRANCH  13  15
HETATM   15  C12 UNL     1      16.902  -1.974  52.891  1.00  0.00     0.317 C 
BRANCH  15  16
HETATM   16  C13 UNL     1      15.750  -1.106  52.503  1.00  0.00     0.007 C 
HETATM   17  C14 UNL     1      15.122   0.016  52.878  1.00  0.00     0.029 C 
HETATM   18 BR1  UNL     1      14.926  -1.880  50.967  1.00  0.00    -0.055 Br
ENDBRANCH  15  16
ENDBRANCH  13  15
ENDBRANCH  12  13
ENDBRANCH   9  12
BRANCH   1  19
HETATM   19  N1  UNL     1      26.735  -0.406  53.309  1.00  0.00    -0.324 N 
HETATM   20  C3  UNL     1      27.763   0.089  54.147  1.00  0.00     0.241 C 
HETATM   21  O1  UNL     1      27.503   1.087  54.858  1.00  0.00    -0.269 OA
HETATM   22  H4  UNL     1      27.052  -1.243  52.753  1.00  0.00     0.169 HD
BRANCH  20  23
HETATM   23  C2  UNL     1      29.086  -0.513  54.208  1.00  0.00     0.048 C 
HETATM   24  C1  UNL     1      30.189  -0.537  53.481  1.00  0.00     0.037 C 
ENDBRANCH  20  23
ENDBRANCH   1  19
TORSDOF 6
ENDMDL
MODEL 4
REMARK VINA RESULT:      -6.4      5.280      7.019
REMARK  6 active torsions:
REMARK  status: ('A' for Active; 'I' for Inactive)
REMARK    1  A    between atoms: C2_2  and  C3_3 
REMARK       I    between atoms: C3_3  and  N1_5 
REMARK    2  A    between atoms: N1_5  and  C4_6 
REMARK    3  A    between atoms: N2_14  and  C11_15 
REMARK    4  A    between atoms: C11_15  and  N3_16 
REMARK    5  A    between atoms: N3_16  and  C12_17 
REMARK    6  A    between atoms: C12_17  and  C13_18 
ROOT
HETATM    1  C4  UNL     1      25.948   0.456  52.684  1.00  0.00     0.036 A 
HETATM    2  C5  UNL     1      24.776  -0.033  53.207  1.00  0.00     0.032 A 
HETATM    3  C6  UNL     1      23.544   0.490  52.889  1.00  0.00     0.040 A 
HETATM    4  C7  UNL     1      23.406   1.543  52.019  1.00  0.00     0.087 A 
HETATM    5  C8  UNL     1      24.583   2.036  51.491  1.00  0.00     0.037 A 
HETATM    6  C9  UNL     1      25.789   1.509  51.815  1.00  0.00     0.051 A 
HETATM    7  S1  UNL     1      24.668   3.412  50.330  1.00  0.00    -0.107 SA
HETATM    8  C10 UNL     1      23.589   4.695  51.003  1.00  0.00     0.201 C 
HETATM    9  N2  UNL     1      22.301   4.297  51.389  1.00  0.00    -0.359 N 
HETATM   10  C15 UNL     1      21.750   3.080  50.985  1.00  0.00     0.298 C 
HETATM   11  O2  UNL     1      22.096   1.953  51.802  1.00  0.00    -0.331 OA
ENDROOT
BRANCH   9  12
HETATM   12  C11 UNL     1      21.363   5.371  51.267  1.00  0.00     0.393 C 
BRANCH  12  13
HETATM   13  N3  UNL     1      22.066   6.663  51.280  1.00  0.00     0.105 N 
HETATM   14  H12 UNL     1      22.997   6.473  50.833  1.00  0.00     0.318 HD
BRANCH  13  15
HETATM   15  C12 UNL     1      21.390   7.569  50.354  1.00  0.00     0.317 C 
BRANCH  15  16
HETATM   16  C13 UNL     1      22.392   8.403  49.625  1.00  0.00     0.007 C 
HETATM   17  C14 UNL     1      23.709   8.475  49.386  1.00  0.00     0.029 C 
HETATM   18 BR1  UNL     1      21.455   9.823  48.763  1.00  0.00    -0.055 Br
ENDBRANCH  15  16
ENDBRANCH  13  15
ENDBRANCH  12  13
ENDBRANCH   9  12
BRANCH   1  19
HETATM   19  N1  UNL     1      27.179  -0.121  53.048  1.00  0.00    -0.324 N 
HETATM   20  C3  UNL     1      28.182   0.322  53.942  1.00  0.00     0.241 C 
HETATM   21  O1  UNL     1      27.992   1.408  54.538  1.00  0.00    -0.269 OA
HETATM   22  H4  UNL     1      27.432  -1.039  52.598  1.00  0.00     0.169 HD
BRANCH  20  23
HETATM   23  C2  UNL     1      29.404  -0.428  54.187  1.00  0.00     0.048 C 
HETATM   24  C1  UNL     1      30.081  -1.414  53.626  1.00  0.00     0.037 C 
ENDBRANCH  20  23
ENDBRANCH   1  19
TORSDOF 6
ENDMDL
MODEL 5
REMARK VINA RESULT:      -6.4      6.749      8.950
REMARK  6 active torsions:
REMARK  status: ('A' for Active; 'I' for Inactive)
REMARK    1  A    between atoms: C2_2  and  C3_3 
REMARK       I    between atoms: C3_3  and  N1_5 
REMARK    2  A    between atoms: N1_5  and  C4_6 
REMARK    3  A    between atoms: N2_14  and  C11_15 
REMARK    4  A    between atoms: C11_15  and  N3_16 
REMARK    5  A    between atoms: N3_16  and  C12_17 
REMARK    6  A    between atoms: C12_17  and  C13_18 
ROOT
HETATM    1  C4  UNL     1      26.422   1.251  52.483  1.00  0.00     0.036 A 
HETATM    2  C5  UNL     1      25.431   1.610  53.364  1.00  0.00     0.032 A 
HETATM    3  C6  UNL     1      24.552   2.639  53.117  1.00  0.00     0.040 A 
HETATM    4  C7  UNL     1      24.610   3.378  51.961  1.00  0.00     0.087 A 
HETATM    5  C8  UNL     1      25.606   3.020  51.074  1.00  0.00     0.037 A 
HETATM    6  C9  UNL     1      26.464   2.003  51.334  1.00  0.00     0.051 A 
HETATM    7  S1  UNL     1      25.888   3.836  49.492  1.00  0.00    -0.107 SA
HETATM    8  C10 UNL     1      25.835   5.610  49.834  1.00  0.00     0.201 C 
HETATM    9  N2  UNL     1      24.742   6.076  50.578  1.00  0.00    -0.359 N 
HETATM   10  C15 UNL     1      23.593   5.306  50.767  1.00  0.00     0.298 C 
HETATM   11  O2  UNL     1      23.653   4.381  51.862  1.00  0.00    -0.331 OA
ENDROOT
BRANCH   9  12
HETATM   12  C11 UNL     1      24.425   7.432  50.248  1.00  0.00     0.393 C 
BRANCH  12  13
HETATM   13  N3  UNL     1      25.561   8.310  50.564  1.00  0.00     0.105 N 
HETATM   14  H12 UNL     1      26.409   7.693  50.503  1.00  0.00     0.318 HD
BRANCH  13  15
HETATM   15  C12 UNL     1      25.725   9.268  49.472  1.00  0.00     0.317 C 
BRANCH  15  16
HETATM   16  C13 UNL     1      26.798   8.810  48.539  1.00  0.00     0.007 C 
HETATM   17  C14 UNL     1      26.957   8.240  47.337  1.00  0.00     0.029 C 
HETATM   18 BR1  UNL     1      28.481   9.168  49.362  1.00  0.00    -0.055 Br
ENDBRANCH  15  16
ENDBRANCH  13  15
ENDBRANCH  12  13
ENDBRANCH   9  12
BRANCH   1  19
HETATM   19  N1  UNL     1      27.292   0.189  52.794  1.00  0.00    -0.324 N 
HETATM   20  C3  UNL     1      28.570   0.184  53.402  1.00  0.00     0.241 C 
HETATM   21  O1  UNL     1      29.056   1.287  53.741  1.00  0.00    -0.269 OA
HETATM   22  H4  UNL     1      26.972  -0.784  52.544  1.00  0.00     0.169 HD
BRANCH  20  23
HETATM   23  C2  UNL     1      29.323  -1.037  53.640  1.00  0.00     0.048 C 
HETATM   24  C1  UNL     1      29.275  -2.308  53.278  1.00  0.00     0.037 C 
ENDBRANCH  20  23
ENDBRANCH   1  19
TORSDOF 6
ENDMDL
MODEL 6
REMARK VINA RESULT:      -6.4      6.126      7.050
REMARK  6 active torsions:
REMARK  status: ('A' for Active; 'I' for Inactive)
REMARK    1  A    between atoms: C2_2  and  C3_3 
REMARK       I    between atoms: C3_3  and  N1_5 
REMARK    2  A    between atoms: N1_5  and  C4_6 
REMARK    3  A    between atoms: N2_14  and  C11_15 
REMARK    4  A    between atoms: C11_15  and  N3_16 
REMARK    5  A    between atoms: N3_16  and  C12_17 
REMARK    6  A    between atoms: C12_17  and  C13_18 
ROOT
HETATM    1  C4  UNL     1      26.589   1.785  52.398  1.00  0.00     0.036 A 
HETATM    2  C5  UNL     1      25.524   1.779  53.264  1.00  0.00     0.032 A 
HETATM    3  C6  UNL     1      24.413   2.570  53.085  1.00  0.00     0.040 A 
HETATM    4  C7  UNL     1      24.298   3.424  52.016  1.00  0.00     0.087 A 
HETATM    5  C8  UNL     1      25.368   3.433  51.143  1.00  0.00     0.037 A 
HETATM    6  C9  UNL     1      26.455   2.647  51.336  1.00  0.00     0.051 A 
HETATM    7  S1  UNL     1      25.457   4.466  49.669  1.00  0.00    -0.107 SA
HETATM    8  C10 UNL     1      24.941   6.117  50.189  1.00  0.00     0.201 C 
HETATM    9  N2  UNL     1      23.751   6.203  50.927  1.00  0.00    -0.359 N 
HETATM   10  C15 UNL     1      22.838   5.149  50.982  1.00  0.00     0.298 C 
HETATM   11  O2  UNL     1      23.116   4.154  51.977  1.00  0.00    -0.331 OA
ENDROOT
BRANCH   9  12
HETATM   12  C11 UNL     1      23.099   7.461  50.724  1.00  0.00     0.393 C 
BRANCH  12  13
HETATM   13  N3  UNL     1      21.687   7.370  51.124  1.00  0.00     0.105 N 
HETATM   14  H12 UNL     1      21.604   7.975  51.977  1.00  0.00     0.318 HD
BRANCH  13  15
HETATM   15  C12 UNL     1      20.874   8.044  50.114  1.00  0.00     0.317 C 
BRANCH  15  16
HETATM   16  C13 UNL     1      20.178   7.039  49.256  1.00  0.00     0.007 C 
HETATM   17  C14 UNL     1      19.176   6.150  49.300  1.00  0.00     0.029 C 
HETATM   18 BR1  UNL     1      21.017   7.050  47.543  1.00  0.00    -0.055 Br
ENDBRANCH  15  16
ENDBRANCH  13  15
ENDBRANCH  12  13
ENDBRANCH   9  12
BRANCH   1  19
HETATM   19  N1  UNL     1      27.699   0.954  52.637  1.00  0.00    -0.324 N 
HETATM   20  C3  UNL     1      28.779   1.084  53.542  1.00  0.00     0.241 C 
HETATM   21  O1  UNL     1      28.798   2.095  54.281  1.00  0.00    -0.269 OA
HETATM   22  H4  UNL     1      27.774   0.074  52.061  1.00  0.00     0.169 HD
BRANCH  20  23
HETATM   23  C2  UNL     1      29.846   0.101  53.639  1.00  0.00     0.048 C 
HETATM   24  C1  UNL     1      29.967  -1.207  53.786  1.00  0.00     0.037 C 
ENDBRANCH  20  23
ENDBRANCH   1  19
TORSDOF 6
ENDMDL
MODEL 7
REMARK VINA RESULT:      -6.3      3.910      4.867
REMARK  6 active torsions:
REMARK  status: ('A' for Active; 'I' for Inactive)
REMARK    1  A    between atoms: C2_2  and  C3_3 
REMARK       I    between atoms: C3_3  and  N1_5 
REMARK    2  A    between atoms: N1_5  and  C4_6 
REMARK    3  A    between atoms: N2_14  and  C11_15 
REMARK    4  A    between atoms: C11_15  and  N3_16 
REMARK    5  A    between atoms: N3_16  and  C12_17 
REMARK    6  A    between atoms: C12_17  and  C13_18 
ROOT
HETATM    1  C4  UNL     1      25.206   1.185  53.351  1.00  0.00     0.036 A 
HETATM    2  C5  UNL     1      25.152   2.535  53.103  1.00  0.00     0.032 A 
HETATM    3  C6  UNL     1      23.992   3.181  52.744  1.00  0.00     0.040 A 
HETATM    4  C7  UNL     1      22.802   2.510  52.610  1.00  0.00     0.087 A 
HETATM    5  C8  UNL     1      22.852   1.152  52.859  1.00  0.00     0.037 A 
HETATM    6  C9  UNL     1      24.005   0.532  53.212  1.00  0.00     0.051 A 
HETATM    7  S1  UNL     1      21.428   0.054  52.750  1.00  0.00    -0.107 SA
HETATM    8  C10 UNL     1      20.600   0.470  51.199  1.00  0.00     0.201 C 
HETATM    9  N2  UNL     1      20.346   1.829  50.964  1.00  0.00    -0.359 N 
HETATM   10  C15 UNL     1      20.413   2.781  51.983  1.00  0.00     0.298 C 
HETATM   11  O2  UNL     1      21.722   3.304  52.242  1.00  0.00    -0.331 OA
ENDROOT
BRANCH   9  12
HETATM   12  C11 UNL     1      19.188   2.011  50.143  1.00  0.00     0.393 C 
BRANCH  12  13
HETATM   13  N3  UNL     1      19.534   1.810  48.727  1.00  0.00     0.105 N 
HETATM   14  H12 UNL     1      18.614   1.720  48.230  1.00  0.00     0.318 HD
BRANCH  13  15
HETATM   15  C12 UNL     1      20.112   3.050  48.210  1.00  0.00     0.317 C 
BRANCH  15  16
HETATM   16  C13 UNL     1      21.437   2.777  47.577  1.00  0.00     0.007 C 
HETATM   17  C14 UNL     1      22.534   2.026  47.744  1.00  0.00     0.029 C 
HETATM   18 BR1  UNL     1      21.582   3.877  46.026  1.00  0.00    -0.055 Br
ENDBRANCH  15  16
ENDBRANCH  13  15
ENDBRANCH  12  13
ENDBRANCH   9  12
BRANCH   1  19
HETATM   19  N1  UNL     1      26.424   0.582  53.714  1.00  0.00    -0.324 N 
HETATM   20  C3  UNL     1      27.290  -0.270  52.987  1.00  0.00     0.241 C 
HETATM   21  O1  UNL     1      26.964  -0.568  51.816  1.00  0.00    -0.269 OA
HETATM   22  H4  UNL     1      26.785   0.771  54.686  1.00  0.00     0.169 HD
BRANCH  20  23
HETATM   23  C2  UNL     1      28.524  -0.799  53.547  1.00  0.00     0.048 C 
HETATM   24  C1  UNL     1      29.360  -1.797  53.316  1.00  0.00     0.037 C 
ENDBRANCH  20  23
ENDBRANCH   1  19
TORSDOF 6
ENDMDL
MODEL 8
REMARK VINA RESULT:      -6.3      6.249      9.072
REMARK  6 active torsions:
REMARK  status: ('A' for Active; 'I' for Inactive)
REMARK    1  A    between atoms: C2_2  and  C3_3 
REMARK       I    between atoms: C3_3  and  N1_5 
REMARK    2  A    between atoms: N1_5  and  C4_6 
REMARK    3  A    between atoms: N2_14  and  C11_15 
REMARK    4  A    between atoms: C11_15  and  N3_16 
REMARK    5  A    between atoms: N3_16  and  C12_17 
REMARK    6  A    between atoms: C12_17  and  C13_18 
ROOT
HETATM    1  C4  UNL     1      25.675   5.923  49.290  1.00  0.00     0.036 A 
HETATM    2  C5  UNL     1      26.746   5.130  48.957  1.00  0.00     0.032 A 
HETATM    3  C6  UNL     1      26.898   3.847  49.430  1.00  0.00     0.040 A 
HETATM    4  C7  UNL     1      25.978   3.273  50.272  1.00  0.00     0.087 A 
HETATM    5  C8  UNL     1      24.900   4.068  50.608  1.00  0.00     0.037 A 
HETATM    6  C9  UNL     1      24.767   5.330  50.133  1.00  0.00     0.051 A 
HETATM    7  S1  UNL     1      23.563   3.544  51.696  1.00  0.00    -0.107 SA
HETATM    8  C10 UNL     1      24.358   2.771  53.123  1.00  0.00     0.201 C 
HETATM    9  N2  UNL     1      25.340   1.808  52.851  1.00  0.00    -0.359 N 
HETATM   10  C15 UNL     1      25.478   1.226  51.590  1.00  0.00     0.298 C 
HETATM   11  O2  UNL     1      26.276   1.971  50.659  1.00  0.00    -0.331 OA
ENDROOT
BRANCH   9  12
HETATM   12  C11 UNL     1      25.422   0.834  53.897  1.00  0.00     0.393 C 
BRANCH  12  13
HETATM   13  N3  UNL     1      26.479   1.201  54.851  1.00  0.00     0.105 N 
HETATM   14  H12 UNL     1      26.092   0.961  55.796  1.00  0.00     0.318 HD
BRANCH  13  15
HETATM   15  C12 UNL     1      27.605   0.286  54.671  1.00  0.00     0.317 C 
BRANCH  15  16
HETATM   16  C13 UNL     1      28.768   1.010  54.075  1.00  0.00     0.007 C 
HETATM   17  C14 UNL     1      29.195   2.251  53.810  1.00  0.00     0.029 C 
HETATM   18 BR1  UNL     1      30.045  -0.294  53.518  1.00  0.00    -0.055 Br
ENDBRANCH  15  16
ENDBRANCH  13  15
ENDBRANCH  12  13
ENDBRANCH   9  12
BRANCH   1  19
HETATM   19  N1  UNL     1      25.576   7.229  48.775  1.00  0.00    -0.324 N 
HETATM   20  C3  UNL     1      26.092   8.457  49.254  1.00  0.00     0.241 C 
HETATM   21  O1  UNL     1      26.759   8.433  50.314  1.00  0.00    -0.269 OA
HETATM   22  H4  UNL     1      25.031   7.354  47.882  1.00  0.00     0.169 HD
BRANCH  20  23
HETATM   23  C2  UNL     1      25.877   9.721  48.567  1.00  0.00     0.048 C 
HETATM   24  C1  UNL     1      26.498  10.879  48.421  1.00  0.00     0.037 C 
ENDBRANCH  20  23
ENDBRANCH   1  19
TORSDOF 6
ENDMDL
MODEL 9
REMARK VINA RESULT:      -6.3      2.855      3.457
REMARK  6 active torsions:
REMARK  status: ('A' for Active; 'I' for Inactive)
REMARK    1  A    between atoms: C2_2  and  C3_3 
REMARK       I    between atoms: C3_3  and  N1_5 
REMARK    2  A    between atoms: N1_5  and  C4_6 
REMARK    3  A    between atoms: N2_14  and  C11_15 
REMARK    4  A    between atoms: C11_15  and  N3_16 
REMARK    5  A    between atoms: N3_16  and  C12_17 
REMARK    6  A    between atoms: C12_17  and  C13_18 
ROOT
HETATM    1  C4  UNL     1      24.867   0.234  53.367  1.00  0.00     0.036 A 
HETATM    2  C5  UNL     1      24.021  -0.552  54.111  1.00  0.00     0.032 A 
HETATM    3  C6  UNL     1      22.674  -0.653  53.849  1.00  0.00     0.040 A 
HETATM    4  C7  UNL     1      22.085   0.033  52.816  1.00  0.00     0.087 A 
HETATM    5  C8  UNL     1      22.932   0.825  52.067  1.00  0.00     0.037 A 
HETATM    6  C9  UNL     1      24.257   0.912  52.339  1.00  0.00     0.051 A 
HETATM    7  S1  UNL     1      22.401   1.822  50.662  1.00  0.00    -0.107 SA
HETATM    8  C10 UNL     1      20.906   2.680  51.202  1.00  0.00     0.201 C 
HETATM    9  N2  UNL     1      19.913   1.897  51.807  1.00  0.00    -0.359 N 
HETATM   10  C15 UNL     1      19.909   0.504  51.712  1.00  0.00     0.298 C 
HETATM   11  O2  UNL     1      20.717  -0.175  52.683  1.00  0.00    -0.331 OA
ENDROOT
BRANCH   9  12
HETATM   12  C11 UNL     1      18.610   2.448  51.596  1.00  0.00     0.393 C 
BRANCH  12  13
HETATM   13  N3  UNL     1      17.606   1.374  51.555  1.00  0.00     0.105 N 
HETATM   14  H12 UNL     1      17.388   1.164  52.560  1.00  0.00     0.318 HD
BRANCH  13  15
HETATM   15  C12 UNL     1      16.362   1.921  51.016  1.00  0.00     0.317 C 
BRANCH  15  16
HETATM   16  C13 UNL     1      15.391   2.183  52.121  1.00  0.00     0.007 C 
HETATM   17  C14 UNL     1      14.812   3.197  52.778  1.00  0.00     0.029 C 
HETATM   18 BR1  UNL     1      14.806   0.498  52.797  1.00  0.00    -0.055 Br
ENDBRANCH  15  16
ENDBRANCH  13  15
ENDBRANCH  12  13
ENDBRANCH   9  12
BRANCH   1  19
HETATM   19  N1  UNL     1      26.236   0.297  53.686  1.00  0.00    -0.324 N 
HETATM   20  C3  UNL     1      27.269  -0.658  53.532  1.00  0.00     0.241 C 
HETATM   21  O1  UNL     1      26.967  -1.765  53.030  1.00  0.00    -0.269 OA
HETATM   22  H4  UNL     1      26.589   1.192  54.116  1.00  0.00     0.169 HD
BRANCH  20  23
HETATM   23  C2  UNL     1      28.644  -0.399  53.929  1.00  0.00     0.048 C 
HETATM   24  C1  UNL     1      29.857  -0.796  53.587  1.00  0.00     0.037 C 
ENDBRANCH  20  23
ENDBRANCH   1  19
TORSDOF 6
ENDMDL
