MODEL 1
REMARK VINA RESULT:      -7.8      0.000      0.000
REMARK  9 active torsions:
REMARK  status: ('A' for Active; 'I' for Inactive)
REMARK    1  A    between atoms: O1_2  and  C2_3 
REMARK    2  A    between atoms: C6_9  and  N3_10 
REMARK    3  A    between atoms: N3_10  and  C7_11 
REMARK    4  A    between atoms: C7_11  and  C10_15 
REMARK    5  A    between atoms: C8_12  and  C9_13 
REMARK    6  A    between atoms: C13_19  and  O2_20 
REMARK    7  A    between atoms: O2_20  and  C14_21 
REMARK    8  A    between atoms: C14_21  and  C15_22 
REMARK    9  A    between atoms: C15_22  and  C16_23 
ROOT
HETATM    1  C2  UNL     1      21.016   0.324  52.808  1.00  0.00     0.103 A 
HETATM    2  C3  UNL     1      21.276  -0.348  54.012  1.00  0.00     0.072 A 
HETATM    3  C4  UNL     1      22.559  -0.634  54.385  1.00  0.00     0.075 A 
HETATM    4  N1  UNL     1      22.862  -1.278  55.551  1.00  0.00    -0.241 NA
HETATM    5  C5  UNL     1      24.142  -1.534  55.882  1.00  0.00     0.236 A 
HETATM    6  N2  UNL     1      25.115  -1.144  55.047  1.00  0.00    -0.224 NA
HETATM    7  C6  UNL     1      24.929  -0.508  53.883  1.00  0.00     0.141 A 
HETATM    8  C11 UNL     1      23.613  -0.263  53.576  1.00  0.00     0.042 A 
HETATM    9  C12 UNL     1      23.325   0.390  52.405  1.00  0.00     0.057 A 
HETATM   10  C13 UNL     1      22.067   0.715  51.960  1.00  0.00     0.103 A 
ENDROOT
BRANCH  10  11
HETATM   11  O2  UNL     1      21.533   1.338  50.885  1.00  0.00    -0.348 OA
BRANCH  11  12
HETATM   12  C14 UNL     1      21.908   2.528  50.297  1.00  0.00     0.176 C 
BRANCH  12  13
HETATM   13  C15 UNL     1      23.101   2.509  49.403  1.00  0.00     0.032 C 
BRANCH  13  14
HETATM   14  C16 UNL     1      23.702   3.894  49.323  1.00  0.00    -0.005 C 
HETATM   15  C17 UNL     1      23.033   4.922  50.161  1.00  0.00     0.031 C 
HETATM   16  C18 UNL     1      23.965   5.663  51.082  1.00  0.00     0.168 C 
HETATM   17  O3  UNL     1      25.144   6.087  50.531  1.00  0.00    -0.391 OA
HETATM   18  C19 UNL     1      25.611   5.372  49.450  1.00  0.00     0.172 C 
HETATM   19  C20 UNL     1      25.192   3.917  49.458  1.00  0.00     0.009 C 
HETATM   20  C21 UNL     1      25.748   3.260  50.669  1.00  0.00     0.012 C 
ENDBRANCH  13  14
ENDBRANCH  12  13
ENDBRANCH  11  12
ENDBRANCH  10  11
BRANCH   1  21
HETATM   21  O1  UNL     1      19.647   0.550  52.562  1.00  0.00    -0.353 OA
HETATM   22  C1  UNL     1      18.717  -0.501  52.724  1.00  0.00     0.210 C 
ENDBRANCH   1  21
BRANCH   7  23
HETATM   23  N3  UNL     1      26.028  -0.142  53.067  1.00  0.00    -0.343 N 
HETATM   24  H6  UNL     1      26.047   0.054  52.064  1.00  0.00     0.167 HD
BRANCH  23  25
HETATM   25  C7  UNL     1      27.347  -0.036  53.585  1.00  0.00     0.023 C 
HETATM   26  C8  UNL     1      28.294  -0.910  53.280  1.00  0.00     0.030 C 
BRANCH  26  27
HETATM   27  C9  UNL     1      29.726  -1.065  53.651  1.00  0.00     0.251 C 
HETATM   28  F1  UNL     1      30.522  -0.063  53.130  1.00  0.00    -0.251 F 
ENDBRANCH  26  27
BRANCH  25  29
HETATM   29  C10 UNL     1      27.676   1.105  54.480  1.00  0.00     0.171 C 
HETATM   30 CL1  UNL     1      28.354   2.375  53.401  1.00  0.00    -0.124 Cl
ENDBRANCH  25  29
ENDBRANCH  23  25
ENDBRANCH   7  23
TORSDOF 9
ENDMDL
MODEL 2
REMARK VINA RESULT:      -7.8      3.331      5.524
REMARK  9 active torsions:
REMARK  status: ('A' for Active; 'I' for Inactive)
REMARK    1  A    between atoms: O1_2  and  C2_3 
REMARK    2  A    between atoms: C6_9  and  N3_10 
REMARK    3  A    between atoms: N3_10  and  C7_11 
REMARK    4  A    between atoms: C7_11  and  C10_15 
REMARK    5  A    between atoms: C8_12  and  C9_13 
REMARK    6  A    between atoms: C13_19  and  O2_20 
REMARK    7  A    between atoms: O2_20  and  C14_21 
REMARK    8  A    between atoms: C14_21  and  C15_22 
REMARK    9  A    between atoms: C15_22  and  C16_23 
ROOT
HETATM    1  C2  UNL     1      27.404   1.319  53.043  1.00  0.00     0.103 A 
HETATM    2  C3  UNL     1      27.141   0.566  54.198  1.00  0.00     0.072 A 
HETATM    3  C4  UNL     1      25.914  -0.001  54.394  1.00  0.00     0.075 A 
HETATM    4  N1  UNL     1      25.615  -0.749  55.498  1.00  0.00    -0.241 NA
HETATM    5  C5  UNL     1      24.393  -1.295  55.647  1.00  0.00     0.236 A 
HETATM    6  N2  UNL     1      23.474  -1.092  54.692  1.00  0.00    -0.224 NA
HETATM    7  C6  UNL     1      23.662  -0.378  53.574  1.00  0.00     0.141 A 
HETATM    8  C11 UNL     1      24.918   0.164  53.454  1.00  0.00     0.042 A 
HETATM    9  C12 UNL     1      25.206   0.907  52.338  1.00  0.00     0.057 A 
HETATM   10  C13 UNL     1      26.411   1.507  52.066  1.00  0.00     0.103 A 
ENDROOT
BRANCH  10  11
HETATM   11  O2  UNL     1      26.934   2.261  51.073  1.00  0.00    -0.348 OA
BRANCH  11  12
HETATM   12  C14 UNL     1      26.437   3.416  50.508  1.00  0.00     0.176 C 
BRANCH  12  13
HETATM   13  C15 UNL     1      25.381   3.277  49.467  1.00  0.00     0.032 C 
BRANCH  13  14
HETATM   14  C16 UNL     1      24.089   3.889  49.961  1.00  0.00    -0.005 C 
HETATM   15  C17 UNL     1      24.132   4.417  51.349  1.00  0.00     0.031 C 
HETATM   16  C18 UNL     1      23.688   5.849  51.473  1.00  0.00     0.168 C 
HETATM   17  O3  UNL     1      22.550   6.187  50.793  1.00  0.00    -0.391 OA
HETATM   18  C19 UNL     1      22.247   5.430  49.683  1.00  0.00     0.172 C 
HETATM   19  C20 UNL     1      23.464   4.847  48.997  1.00  0.00     0.009 C 
HETATM   20  C21 UNL     1      24.331   5.957  48.524  1.00  0.00     0.012 C 
ENDBRANCH  13  14
ENDBRANCH  12  13
ENDBRANCH  11  12
ENDBRANCH  10  11
BRANCH   1  21
HETATM   21  O1  UNL     1      28.713   1.835  52.981  1.00  0.00    -0.353 OA
HETATM   22  C1  UNL     1      29.463   2.003  54.167  1.00  0.00     0.210 C 
ENDBRANCH   1  21
BRANCH   7  23
HETATM   23  N3  UNL     1      22.622  -0.220  52.626  1.00  0.00    -0.343 N 
HETATM   24  H6  UNL     1      22.486  -0.700  51.734  1.00  0.00     0.167 HD
BRANCH  23  25
HETATM   25  C7  UNL     1      21.584   0.735  52.801  1.00  0.00     0.023 C 
HETATM   26  C8  UNL     1      21.522   1.846  52.082  1.00  0.00     0.030 C 
BRANCH  26  27
HETATM   27  C9  UNL     1      20.589   3.003  52.032  1.00  0.00     0.251 C 
HETATM   28  F1  UNL     1      21.088   4.117  52.681  1.00  0.00    -0.251 F 
ENDBRANCH  26  27
BRANCH  25  29
HETATM   29  C10 UNL     1      20.524   0.465  53.808  1.00  0.00     0.171 C 
HETATM   30 CL1  UNL     1      19.250  -0.447  52.925  1.00  0.00    -0.124 Cl
ENDBRANCH  25  29
ENDBRANCH  23  25
ENDBRANCH   7  23
TORSDOF 9
ENDMDL
MODEL 3
REMARK VINA RESULT:      -7.5      3.302      5.555
REMARK  9 active torsions:
REMARK  status: ('A' for Active; 'I' for Inactive)
REMARK    1  A    between atoms: O1_2  and  C2_3 
REMARK    2  A    between atoms: C6_9  and  N3_10 
REMARK    3  A    between atoms: N3_10  and  C7_11 
REMARK    4  A    between atoms: C7_11  and  C10_15 
REMARK    5  A    between atoms: C8_12  and  C9_13 
REMARK    6  A    between atoms: C13_19  and  O2_20 
REMARK    7  A    between atoms: O2_20  and  C14_21 
REMARK    8  A    between atoms: C14_21  and  C15_22 
REMARK    9  A    between atoms: C15_22  and  C16_23 
ROOT
HETATM    1  C2  UNL     1      21.350  -0.059  53.394  1.00  0.00     0.103 A 
HETATM    2  C3  UNL     1      20.327   0.821  53.008  1.00  0.00     0.072 A 
HETATM    3  C4  UNL     1      20.626   2.053  52.498  1.00  0.00     0.075 A 
HETATM    4  N1  UNL     1      19.665   2.939  52.100  1.00  0.00    -0.241 NA
HETATM    5  C5  UNL     1      20.006   4.141  51.597  1.00  0.00     0.236 A 
HETATM    6  N2  UNL     1      21.306   4.452  51.491  1.00  0.00    -0.224 NA
HETATM    7  C6  UNL     1      22.325   3.660  51.849  1.00  0.00     0.141 A 
HETATM    8  C11 UNL     1      21.942   2.443  52.359  1.00  0.00     0.042 A 
HETATM    9  C12 UNL     1      22.918   1.561  52.747  1.00  0.00     0.057 A 
HETATM   10  C13 UNL     1      22.702   0.308  53.266  1.00  0.00     0.103 A 
ENDROOT
BRANCH  10  11
HETATM   11  O2  UNL     1      23.461  -0.721  53.706  1.00  0.00    -0.348 OA
BRANCH  11  12
HETATM   12  C14 UNL     1      24.544  -0.695  54.559  1.00  0.00     0.176 C 
BRANCH  12  13
HETATM   13  C15 UNL     1      25.889  -0.963  53.975  1.00  0.00     0.032 C 
BRANCH  13  14
HETATM   14  C16 UNL     1      26.779   0.245  54.165  1.00  0.00    -0.005 C 
HETATM   15  C17 UNL     1      28.221  -0.059  54.359  1.00  0.00     0.031 C 
HETATM   16  C18 UNL     1      29.134   0.668  53.410  1.00  0.00     0.168 C 
HETATM   17  O3  UNL     1      28.874   2.000  53.228  1.00  0.00    -0.391 OA
HETATM   18  C19 UNL     1      27.576   2.410  53.440  1.00  0.00     0.172 C 
HETATM   19  C20 UNL     1      26.548   1.333  53.165  1.00  0.00     0.009 C 
HETATM   20  C21 UNL     1      26.634   0.936  51.736  1.00  0.00     0.012 C 
ENDBRANCH  13  14
ENDBRANCH  12  13
ENDBRANCH  11  12
ENDBRANCH  10  11
BRANCH   1  21
HETATM   21  O1  UNL     1      20.887  -1.290  53.897  1.00  0.00    -0.353 OA
HETATM   22  C1  UNL     1      19.508  -1.598  53.853  1.00  0.00     0.210 C 
ENDBRANCH   1  21
BRANCH   7  23
HETATM   23  N3  UNL     1      23.667   4.084  51.701  1.00  0.00    -0.343 N 
HETATM   24  H6  UNL     1      24.249   4.617  52.351  1.00  0.00     0.167 HD
BRANCH  23  25
HETATM   25  C7  UNL     1      24.409   3.834  50.515  1.00  0.00     0.023 C 
HETATM   26  C8  UNL     1      25.677   4.197  50.388  1.00  0.00     0.030 C 
BRANCH  26  27
HETATM   27  C9  UNL     1      26.689   4.080  49.306  1.00  0.00     0.251 C 
HETATM   28  F1  UNL     1      26.919   2.770  48.931  1.00  0.00    -0.251 F 
ENDBRANCH  26  27
BRANCH  25  29
HETATM   29  C10 UNL     1      23.744   3.123  49.391  1.00  0.00     0.171 C 
HETATM   30 CL1  UNL     1      23.074   4.419  48.339  1.00  0.00    -0.124 Cl
ENDBRANCH  25  29
ENDBRANCH  23  25
ENDBRANCH   7  23
TORSDOF 9
ENDMDL
MODEL 4
REMARK VINA RESULT:      -7.4      3.649      5.855
REMARK  9 active torsions:
REMARK  status: ('A' for Active; 'I' for Inactive)
REMARK    1  A    between atoms: O1_2  and  C2_3 
REMARK    2  A    between atoms: C6_9  and  N3_10 
REMARK    3  A    between atoms: N3_10  and  C7_11 
REMARK    4  A    between atoms: C7_11  and  C10_15 
REMARK    5  A    between atoms: C8_12  and  C9_13 
REMARK    6  A    between atoms: C13_19  and  O2_20 
REMARK    7  A    between atoms: O2_20  and  C14_21 
REMARK    8  A    between atoms: C14_21  and  C15_22 
REMARK    9  A    between atoms: C15_22  and  C16_23 
ROOT
HETATM    1  C2  UNL     1      26.066  -0.053  53.293  1.00  0.00     0.103 A 
HETATM    2  C3  UNL     1      25.204  -0.710  54.184  1.00  0.00     0.072 A 
HETATM    3  C4  UNL     1      23.849  -0.601  54.050  1.00  0.00     0.075 A 
HETATM    4  N1  UNL     1      22.972  -1.229  54.888  1.00  0.00    -0.241 NA
HETATM    5  C5  UNL     1      21.643  -1.098  54.714  1.00  0.00     0.236 A 
HETATM    6  N2  UNL     1      21.195  -0.340  53.703  1.00  0.00    -0.224 NA
HETATM    7  C6  UNL     1      21.966   0.317  52.826  1.00  0.00     0.141 A 
HETATM    8  C11 UNL     1      23.315   0.162  53.032  1.00  0.00     0.042 A 
HETATM    9  C12 UNL     1      24.183   0.793  52.179  1.00  0.00     0.057 A 
HETATM   10  C13 UNL     1      25.554   0.733  52.245  1.00  0.00     0.103 A 
ENDROOT
BRANCH  10  11
HETATM   11  O2  UNL     1      26.597   1.239  51.549  1.00  0.00    -0.348 OA
BRANCH  11  12
HETATM   12  C14 UNL     1      26.886   2.555  51.256  1.00  0.00     0.176 C 
BRANCH  12  13
HETATM   13  C15 UNL     1      26.426   3.087  49.943  1.00  0.00     0.032 C 
BRANCH  13  14
HETATM   14  C16 UNL     1      25.564   4.311  50.159  1.00  0.00    -0.005 C 
HETATM   15  C17 UNL     1      25.783   5.416  49.190  1.00  0.00     0.031 C 
HETATM   16  C18 UNL     1      24.530   5.889  48.506  1.00  0.00     0.168 C 
HETATM   17  O3  UNL     1      23.439   6.075  49.312  1.00  0.00    -0.391 OA
HETATM   18  C19 UNL     1      23.395   5.332  50.471  1.00  0.00     0.172 C 
HETATM   19  C20 UNL     1      24.115   4.004  50.368  1.00  0.00     0.009 C 
HETATM   20  C21 UNL     1      23.464   3.182  49.316  1.00  0.00     0.012 C 
ENDBRANCH  13  14
ENDBRANCH  12  13
ENDBRANCH  11  12
ENDBRANCH  10  11
BRANCH   1  21
HETATM   21  O1  UNL     1      27.433  -0.264  53.556  1.00  0.00    -0.353 OA
HETATM   22  C1  UNL     1      28.008   0.237  54.746  1.00  0.00     0.210 C 
ENDBRANCH   1  21
BRANCH   7  23
HETATM   23  N3  UNL     1      21.393   1.098  51.793  1.00  0.00    -0.343 N 
HETATM   24  H6  UNL     1      21.860   1.649  51.069  1.00  0.00     0.167 HD
BRANCH  23  25
HETATM   25  C7  UNL     1      19.987   1.250  51.656  1.00  0.00     0.023 C 
HETATM   26  C8  UNL     1      19.211   0.265  51.227  1.00  0.00     0.030 C 
BRANCH  26  27
HETATM   27  C9  UNL     1      17.752   0.120  50.985  1.00  0.00     0.251 C 
HETATM   28  F1  UNL     1      17.467  -0.355  49.718  1.00  0.00    -0.251 F 
ENDBRANCH  26  27
BRANCH  25  29
HETATM   29  C10 UNL     1      19.368   2.550  52.026  1.00  0.00     0.171 C 
HETATM   30 CL1  UNL     1      20.747   3.665  52.327  1.00  0.00    -0.124 Cl
ENDBRANCH  25  29
ENDBRANCH  23  25
ENDBRANCH   7  23
TORSDOF 9
ENDMDL
MODEL 5
REMARK VINA RESULT:      -7.3      3.656      5.832
REMARK  9 active torsions:
REMARK  status: ('A' for Active; 'I' for Inactive)
REMARK    1  A    between atoms: O1_2  and  C2_3 
REMARK    2  A    between atoms: C6_9  and  N3_10 
REMARK    3  A    between atoms: N3_10  and  C7_11 
REMARK    4  A    between atoms: C7_11  and  C10_15 
REMARK    5  A    between atoms: C8_12  and  C9_13 
REMARK    6  A    between atoms: C13_19  and  O2_20 
REMARK    7  A    between atoms: O2_20  and  C14_21 
REMARK    8  A    between atoms: C14_21  and  C15_22 
REMARK    9  A    between atoms: C15_22  and  C16_23 
ROOT
HETATM    1  C2  UNL     1      27.475   1.866  52.920  1.00  0.00     0.103 A 
HETATM    2  C3  UNL     1      27.222   0.993  53.989  1.00  0.00     0.072 A 
HETATM    3  C4  UNL     1      26.020   0.351  54.092  1.00  0.00     0.075 A 
HETATM    4  N1  UNL     1      25.731  -0.515  55.110  1.00  0.00    -0.241 NA
HETATM    5  C5  UNL     1      24.535  -1.130  55.169  1.00  0.00     0.236 A 
HETATM    6  N2  UNL     1      23.631  -0.879  54.211  1.00  0.00    -0.224 NA
HETATM    7  C6  UNL     1      23.811  -0.051  53.173  1.00  0.00     0.141 A 
HETATM    8  C11 UNL     1      25.041   0.559  53.143  1.00  0.00     0.042 A 
HETATM    9  C12 UNL     1      25.319   1.420  52.113  1.00  0.00     0.057 A 
HETATM   10  C13 UNL     1      26.499   2.101  51.936  1.00  0.00     0.103 A 
ENDROOT
BRANCH  10  11
HETATM   11  O2  UNL     1      27.008   2.973  51.036  1.00  0.00    -0.348 OA
BRANCH  11  12
HETATM   12  C14 UNL     1      26.373   3.609  49.991  1.00  0.00     0.176 C 
BRANCH  12  13
HETATM   13  C15 UNL     1      27.214   4.411  49.058  1.00  0.00     0.032 C 
BRANCH  13  14
HETATM   14  C16 UNL     1      26.505   5.701  48.709  1.00  0.00    -0.005 C 
HETATM   15  C17 UNL     1      25.834   6.380  49.848  1.00  0.00     0.031 C 
HETATM   16  C18 UNL     1      26.234   7.819  50.025  1.00  0.00     0.168 C 
HETATM   17  O3  UNL     1      26.278   8.575  48.884  1.00  0.00    -0.391 OA
HETATM   18  C19 UNL     1      26.506   7.900  47.705  1.00  0.00     0.172 C 
HETATM   19  C20 UNL     1      27.324   6.637  47.879  1.00  0.00     0.009 C 
HETATM   20  C21 UNL     1      28.658   6.996  48.423  1.00  0.00     0.012 C 
ENDBRANCH  13  14
ENDBRANCH  12  13
ENDBRANCH  11  12
ENDBRANCH  10  11
BRANCH   1  21
HETATM   21  O1  UNL     1      28.757   2.448  52.947  1.00  0.00    -0.353 OA
HETATM   22  C1  UNL     1      29.570   2.315  54.096  1.00  0.00     0.210 C 
ENDBRANCH   1  21
BRANCH   7  23
HETATM   23  N3  UNL     1      22.789   0.149  52.214  1.00  0.00    -0.343 N 
HETATM   24  H6  UNL     1      22.746  -0.168  51.243  1.00  0.00     0.167 HD
BRANCH  23  25
HETATM   25  C7  UNL     1      21.626   0.914  52.502  1.00  0.00     0.023 C 
HETATM   26  C8  UNL     1      21.557   2.212  52.248  1.00  0.00     0.030 C 
BRANCH  26  27
HETATM   27  C9  UNL     1      20.512   3.254  52.430  1.00  0.00     0.251 C 
HETATM   28  F1  UNL     1      19.402   3.041  51.634  1.00  0.00    -0.251 F 
ENDBRANCH  26  27
BRANCH  25  29
HETATM   29  C10 UNL     1      20.445   0.227  53.088  1.00  0.00     0.171 C 
HETATM   30 CL1  UNL     1      20.595   0.455  54.866  1.00  0.00    -0.124 Cl
ENDBRANCH  25  29
ENDBRANCH  23  25
ENDBRANCH   7  23
TORSDOF 9
ENDMDL
MODEL 6
REMARK VINA RESULT:      -7.3      1.491      1.773
REMARK  9 active torsions:
REMARK  status: ('A' for Active; 'I' for Inactive)
REMARK    1  A    between atoms: O1_2  and  C2_3 
REMARK    2  A    between atoms: C6_9  and  N3_10 
REMARK    3  A    between atoms: N3_10  and  C7_11 
REMARK    4  A    between atoms: C7_11  and  C10_15 
REMARK    5  A    between atoms: C8_12  and  C9_13 
REMARK    6  A    between atoms: C13_19  and  O2_20 
REMARK    7  A    between atoms: O2_20  and  C14_21 
REMARK    8  A    between atoms: C14_21  and  C15_22 
REMARK    9  A    between atoms: C15_22  and  C16_23 
ROOT
HETATM    1  C2  UNL     1      20.433  -0.140  52.856  1.00  0.00     0.103 A 
HETATM    2  C3  UNL     1      20.860  -0.688  54.075  1.00  0.00     0.072 A 
HETATM    3  C4  UNL     1      22.191  -0.802  54.358  1.00  0.00     0.075 A 
HETATM    4  N1  UNL     1      22.654  -1.321  55.535  1.00  0.00    -0.241 NA
HETATM    5  C5  UNL     1      23.976  -1.409  55.774  1.00  0.00     0.236 A 
HETATM    6  N2  UNL     1      24.832  -0.978  54.837  1.00  0.00    -0.224 NA
HETATM    7  C6  UNL     1      24.486  -0.454  53.653  1.00  0.00     0.141 A 
HETATM    8  C11 UNL     1      23.132  -0.379  53.442  1.00  0.00     0.042 A 
HETATM    9  C12 UNL     1      22.682   0.150  52.259  1.00  0.00     0.057 A 
HETATM   10  C13 UNL     1      21.365   0.301  51.900  1.00  0.00     0.103 A 
ENDROOT
BRANCH  10  11
HETATM   11  O2  UNL     1      20.683   0.780  50.835  1.00  0.00    -0.348 OA
BRANCH  11  12
HETATM   12  C14 UNL     1      21.171   1.344  49.676  1.00  0.00     0.176 C 
BRANCH  12  13
HETATM   13  C15 UNL     1      22.527   1.959  49.725  1.00  0.00     0.032 C 
BRANCH  13  14
HETATM   14  C16 UNL     1      22.407   3.449  49.958  1.00  0.00    -0.005 C 
HETATM   15  C17 UNL     1      22.284   3.856  51.381  1.00  0.00     0.031 C 
HETATM   16  C18 UNL     1      23.293   4.885  51.813  1.00  0.00     0.168 C 
HETATM   17  O3  UNL     1      23.485   5.935  50.957  1.00  0.00    -0.391 OA
HETATM   18  C19 UNL     1      23.212   5.704  49.626  1.00  0.00     0.172 C 
HETATM   19  C20 UNL     1      23.412   4.263  49.208  1.00  0.00     0.009 C 
HETATM   20  C21 UNL     1      24.836   3.894  49.414  1.00  0.00     0.012 C 
ENDBRANCH  13  14
ENDBRANCH  12  13
ENDBRANCH  11  12
ENDBRANCH  10  11
BRANCH   1  21
HETATM   21  O1  UNL     1      19.033  -0.084  52.711  1.00  0.00    -0.353 OA
HETATM   22  C1  UNL     1      18.226  -1.116  53.243  1.00  0.00     0.210 C 
ENDBRANCH   1  21
BRANCH   7  23
HETATM   23  N3  UNL     1      25.470  -0.031  52.727  1.00  0.00    -0.343 N 
HETATM   24  H6  UNL     1      25.364   0.205  51.738  1.00  0.00     0.167 HD
BRANCH  23  25
HETATM   25  C7  UNL     1      26.841   0.085  53.085  1.00  0.00     0.023 C 
HETATM   26  C8  UNL     1      27.385   1.246  53.421  1.00  0.00     0.030 C 
BRANCH  26  27
HETATM   27  C9  UNL     1      28.747   1.677  53.832  1.00  0.00     0.251 C 
HETATM   28  F1  UNL     1      28.975   3.019  53.593  1.00  0.00    -0.251 F 
ENDBRANCH  26  27
BRANCH  25  29
HETATM   29  C10 UNL     1      27.682  -1.140  53.104  1.00  0.00     0.171 C 
HETATM   30 CL1  UNL     1      26.797  -2.340  52.097  1.00  0.00    -0.124 Cl
ENDBRANCH  25  29
ENDBRANCH  23  25
ENDBRANCH   7  23
TORSDOF 9
ENDMDL
MODEL 7
REMARK VINA RESULT:      -7.2      4.209      7.155
REMARK  9 active torsions:
REMARK  status: ('A' for Active; 'I' for Inactive)
REMARK    1  A    between atoms: O1_2  and  C2_3 
REMARK    2  A    between atoms: C6_9  and  N3_10 
REMARK    3  A    between atoms: N3_10  and  C7_11 
REMARK    4  A    between atoms: C7_11  and  C10_15 
REMARK    5  A    between atoms: C8_12  and  C9_13 
REMARK    6  A    between atoms: C13_19  and  O2_20 
REMARK    7  A    between atoms: O2_20  and  C14_21 
REMARK    8  A    between atoms: C14_21  and  C15_22 
REMARK    9  A    between atoms: C15_22  and  C16_23 
ROOT
HETATM    1  C2  UNL     1      21.941   3.676  52.099  1.00  0.00     0.103 A 
HETATM    2  C3  UNL     1      21.096   4.563  51.415  1.00  0.00     0.072 A 
HETATM    3  C4  UNL     1      21.564   5.768  50.974  1.00  0.00     0.075 A 
HETATM    4  N1  UNL     1      20.781   6.660  50.296  1.00  0.00    -0.241 NA
HETATM    5  C5  UNL     1      21.286   7.834  49.874  1.00  0.00     0.236 A 
HETATM    6  N2  UNL     1      22.572   8.114  50.130  1.00  0.00    -0.224 NA
HETATM    7  C6  UNL     1      23.424   7.314  50.784  1.00  0.00     0.141 A 
HETATM    8  C11 UNL     1      22.877   6.125  51.200  1.00  0.00     0.042 A 
HETATM    9  C12 UNL     1      23.676   5.237  51.874  1.00  0.00     0.057 A 
HETATM   10  C13 UNL     1      23.285   4.008  52.347  1.00  0.00     0.103 A 
ENDROOT
BRANCH  10  11
HETATM   11  O2  UNL     1      23.858   2.981  53.014  1.00  0.00    -0.348 OA
BRANCH  11  12
HETATM   12  C14 UNL     1      25.155   2.520  52.945  1.00  0.00     0.176 C 
BRANCH  12  13
HETATM   13  C15 UNL     1      25.485   1.544  51.869  1.00  0.00     0.032 C 
BRANCH  13  14
HETATM   14  C16 UNL     1      26.725   0.764  52.246  1.00  0.00    -0.005 C 
HETATM   15  C17 UNL     1      27.604   1.423  53.247  1.00  0.00     0.031 C 
HETATM   16  C18 UNL     1      27.921   0.566  54.442  1.00  0.00     0.168 C 
HETATM   17  O3  UNL     1      28.268  -0.731  54.177  1.00  0.00    -0.391 OA
HETATM   18  C19 UNL     1      27.783  -1.272  53.007  1.00  0.00     0.172 C 
HETATM   19  C20 UNL     1      26.464  -0.674  52.563  1.00  0.00     0.009 C 
HETATM   20  C21 UNL     1      25.439  -0.938  53.605  1.00  0.00     0.012 C 
ENDBRANCH  13  14
ENDBRANCH  12  13
ENDBRANCH  11  12
ENDBRANCH  10  11
BRANCH   1  21
HETATM   21  O1  UNL     1      21.317   2.474  52.487  1.00  0.00    -0.353 OA
HETATM   22  C1  UNL     1      20.995   1.500  51.515  1.00  0.00     0.210 C 
ENDBRANCH   1  21
BRANCH   7  23
HETATM   23  N3  UNL     1      24.767   7.704  51.008  1.00  0.00    -0.343 N 
HETATM   24  H6  UNL     1      25.206   8.035  51.870  1.00  0.00     0.167 HD
BRANCH  23  25
HETATM   25  C7  UNL     1      25.730   7.722  49.963  1.00  0.00     0.023 C 
HETATM   26  C8  UNL     1      26.226   6.608  49.445  1.00  0.00     0.030 C 
BRANCH  26  27
HETATM   27  C9  UNL     1      27.216   6.308  48.377  1.00  0.00     0.251 C 
HETATM   28  F1  UNL     1      27.521   4.962  48.297  1.00  0.00    -0.251 F 
ENDBRANCH  26  27
BRANCH  25  29
HETATM   29  C10 UNL     1      26.176   9.033  49.422  1.00  0.00     0.171 C 
HETATM   30 CL1  UNL     1      27.718   9.398  50.274  1.00  0.00    -0.124 Cl
ENDBRANCH  25  29
ENDBRANCH  23  25
ENDBRANCH   7  23
TORSDOF 9
ENDMDL
MODEL 8
REMARK VINA RESULT:      -7.2      3.764      6.843
REMARK  9 active torsions:
REMARK  status: ('A' for Active; 'I' for Inactive)
REMARK    1  A    between atoms: O1_2  and  C2_3 
REMARK    2  A    between atoms: C6_9  and  N3_10 
REMARK    3  A    between atoms: N3_10  and  C7_11 
REMARK    4  A    between atoms: C7_11  and  C10_15 
REMARK    5  A    between atoms: C8_12  and  C9_13 
REMARK    6  A    between atoms: C13_19  and  O2_20 
REMARK    7  A    between atoms: O2_20  and  C14_21 
REMARK    8  A    between atoms: C14_21  and  C15_22 
REMARK    9  A    between atoms: C15_22  and  C16_23 
ROOT
HETATM    1  C2  UNL     1      25.858  -0.036  53.016  1.00  0.00     0.103 A 
HETATM    2  C3  UNL     1      26.669   0.670  52.115  1.00  0.00     0.072 A 
HETATM    3  C4  UNL     1      26.234   1.839  51.558  1.00  0.00     0.075 A 
HETATM    4  N1  UNL     1      26.992   2.566  50.683  1.00  0.00    -0.241 NA
HETATM    5  C5  UNL     1      26.526   3.716  50.162  1.00  0.00     0.236 A 
HETATM    6  N2  UNL     1      25.304   4.138  50.517  1.00  0.00    -0.224 NA
HETATM    7  C6  UNL     1      24.481   3.505  51.364  1.00  0.00     0.141 A 
HETATM    8  C11 UNL     1      24.988   2.336  51.876  1.00  0.00     0.042 A 
HETATM    9  C12 UNL     1      24.218   1.621  52.758  1.00  0.00     0.057 A 
HETATM   10  C13 UNL     1      24.581   0.442  53.363  1.00  0.00     0.103 A 
ENDROOT
BRANCH  10  11
HETATM   11  O2  UNL     1      24.030  -0.427  54.240  1.00  0.00    -0.348 OA
BRANCH  11  12
HETATM   12  C14 UNL     1      22.721  -0.849  54.334  1.00  0.00     0.176 C 
BRANCH  12  13
HETATM   13  C15 UNL     1      22.013  -1.189  53.068  1.00  0.00     0.032 C 
BRANCH  13  14
HETATM   14  C16 UNL     1      20.784  -0.321  52.918  1.00  0.00    -0.005 C 
HETATM   15  C17 UNL     1      20.743   0.873  53.802  1.00  0.00     0.031 C 
HETATM   16  C18 UNL     1      20.518   2.169  53.072  1.00  0.00     0.168 C 
HETATM   17  O3  UNL     1      19.536   2.159  52.119  1.00  0.00    -0.391 OA
HETATM   18  C19 UNL     1      19.252   0.943  51.538  1.00  0.00     0.172 C 
HETATM   19  C20 UNL     1      20.436  -0.001  51.499  1.00  0.00     0.009 C 
HETATM   20  C21 UNL     1      21.516   0.612  50.685  1.00  0.00     0.012 C 
ENDBRANCH  13  14
ENDBRANCH  12  13
ENDBRANCH  11  12
ENDBRANCH  10  11
BRANCH   1  21
HETATM   21  O1  UNL     1      26.443  -1.219  53.509  1.00  0.00    -0.353 OA
HETATM   22  C1  UNL     1      27.070  -2.121  52.620  1.00  0.00     0.210 C 
ENDBRANCH   1  21
BRANCH   7  23
HETATM   23  N3  UNL     1      23.204   4.032  51.672  1.00  0.00    -0.343 N 
HETATM   24  H6  UNL     1      22.572   3.784  52.437  1.00  0.00     0.167 HD
BRANCH  23  25
HETATM   25  C7  UNL     1      22.583   5.022  50.863  1.00  0.00     0.023 C 
HETATM   26  C8  UNL     1      22.778   6.317  51.061  1.00  0.00     0.030 C 
BRANCH  26  27
HETATM   27  C9  UNL     1      22.286   7.556  50.404  1.00  0.00     0.251 C 
HETATM   28  F1  UNL     1      23.313   8.367  49.958  1.00  0.00    -0.251 F 
ENDBRANCH  26  27
BRANCH  25  29
HETATM   29  C10 UNL     1      21.704   4.585  49.746  1.00  0.00     0.171 C 
HETATM   30 CL1  UNL     1      22.790   4.422  48.322  1.00  0.00    -0.124 Cl
ENDBRANCH  25  29
ENDBRANCH  23  25
ENDBRANCH   7  23
TORSDOF 9
ENDMDL
MODEL 9
REMARK VINA RESULT:      -6.9      1.967      3.112
REMARK  9 active torsions:
REMARK  status: ('A' for Active; 'I' for Inactive)
REMARK    1  A    between atoms: O1_2  and  C2_3 
REMARK    2  A    between atoms: C6_9  and  N3_10 
REMARK    3  A    between atoms: N3_10  and  C7_11 
REMARK    4  A    between atoms: C7_11  and  C10_15 
REMARK    5  A    between atoms: C8_12  and  C9_13 
REMARK    6  A    between atoms: C13_19  and  O2_20 
REMARK    7  A    between atoms: O2_20  and  C14_21 
REMARK    8  A    between atoms: C14_21  and  C15_22 
REMARK    9  A    between atoms: C15_22  and  C16_23 
ROOT
HETATM    1  C2  UNL     1      22.611   1.941  50.503  1.00  0.00     0.103 A 
HETATM    2  C3  UNL     1      21.881   0.896  51.089  1.00  0.00     0.072 A 
HETATM    3  C4  UNL     1      22.343   0.270  52.212  1.00  0.00     0.075 A 
HETATM    4  N1  UNL     1      21.663  -0.746  52.823  1.00  0.00    -0.241 NA
HETATM    5  C5  UNL     1      22.153  -1.331  53.933  1.00  0.00     0.236 A 
HETATM    6  N2  UNL     1      23.322  -0.898  54.428  1.00  0.00    -0.224 NA
HETATM    7  C6  UNL     1      24.067   0.087  53.909  1.00  0.00     0.141 A 
HETATM    8  C11 UNL     1      23.538   0.661  52.780  1.00  0.00     0.042 A 
HETATM    9  C12 UNL     1      24.229   1.683  52.181  1.00  0.00     0.057 A 
HETATM   10  C13 UNL     1      23.833   2.364  51.056  1.00  0.00     0.103 A 
ENDROOT
BRANCH  10  11
HETATM   11  O2  UNL     1      24.312   3.376  50.296  1.00  0.00    -0.348 OA
BRANCH  11  12
HETATM   12  C14 UNL     1      25.412   4.178  50.515  1.00  0.00     0.176 C 
BRANCH  12  13
HETATM   13  C15 UNL     1      26.247   4.541  49.336  1.00  0.00     0.032 C 
BRANCH  13  14
HETATM   14  C16 UNL     1      25.956   5.965  48.920  1.00  0.00    -0.005 C 
HETATM   15  C17 UNL     1      25.660   6.900  50.037  1.00  0.00     0.031 C 
HETATM   16  C18 UNL     1      26.515   8.137  50.044  1.00  0.00     0.168 C 
HETATM   17  O3  UNL     1      26.680   8.761  48.837  1.00  0.00    -0.391 OA
HETATM   18  C19 UNL     1      26.557   7.972  47.714  1.00  0.00     0.172 C 
HETATM   19  C20 UNL     1      26.941   6.526  47.944  1.00  0.00     0.009 C 
HETATM   20  C21 UNL     1      28.369   6.462  48.347  1.00  0.00     0.012 C 
ENDBRANCH  13  14
ENDBRANCH  12  13
ENDBRANCH  11  12
ENDBRANCH  10  11
BRANCH   1  21
HETATM   21  O1  UNL     1      22.006   2.489  49.355  1.00  0.00    -0.353 OA
HETATM   22  C1  UNL     1      21.951   1.739  48.159  1.00  0.00     0.210 C 
ENDBRANCH   1  21
BRANCH   7  23
HETATM   23  N3  UNL     1      25.293   0.467  54.508  1.00  0.00    -0.343 N 
HETATM   24  H6  UNL     1      25.470   1.190  55.208  1.00  0.00     0.167 HD
BRANCH  23  25
HETATM   25  C7  UNL     1      26.527  -0.135  54.143  1.00  0.00     0.023 C 
HETATM   26  C8  UNL     1      27.682   0.260  54.658  1.00  0.00     0.030 C 
BRANCH  26  27
HETATM   27  C9  UNL     1      29.098  -0.158  54.481  1.00  0.00     0.251 C 
HETATM   28  F1  UNL     1      29.620   0.229  53.261  1.00  0.00    -0.251 F 
ENDBRANCH  26  27
BRANCH  25  29
HETATM   29  C10 UNL     1      26.516  -1.258  53.168  1.00  0.00     0.171 C 
HETATM   30 CL1  UNL     1      26.831  -0.500  51.567  1.00  0.00    -0.124 Cl
ENDBRANCH  25  29
ENDBRANCH  23  25
ENDBRANCH   7  23
TORSDOF 9
ENDMDL
