MODEL 1
REMARK VINA RESULT:      -8.3      0.000      0.000
REMARK  5 active torsions:
REMARK  status: ('A' for Active; 'I' for Inactive)
REMARK    1  A    between atoms: O1_2  and  C2_3 
REMARK    2  A    between atoms: C5_6  and  O2_7 
REMARK    3  A    between atoms: O2_7  and  C6_8 
REMARK    4  A    between atoms: C8_10  and  C9_11 
REMARK    5  A    between atoms: N2_19  and  C15_20 
ROOT
HETATM    1  C6  UNL     1      23.600   1.668  52.765  1.00  0.00     0.261 C 
HETATM    2  C7  UNL     1      24.572   0.571  52.301  1.00  0.00     0.118 C 
HETATM    3  C8  UNL     1      25.851   1.181  52.748  1.00  0.00     0.069 C 
HETATM    4  N1  UNL     1      25.705   2.482  52.801  1.00  0.00    -0.172 NA
HETATM    5  N2  UNL     1      24.406   2.825  52.419  1.00  0.00    -0.215 N 
ENDROOT
BRANCH   1   6
HETATM    6  O2  UNL     1      22.390   1.610  52.101  1.00  0.00    -0.324 OA
BRANCH   6   7
HETATM    7  C5  UNL     1      21.360   0.824  52.582  1.00  0.00     0.071 A 
HETATM    8  C4  UNL     1      21.181   0.086  53.731  1.00  0.00     0.039 A 
HETATM    9  C3  UNL     1      20.014  -0.610  53.929  1.00  0.00     0.039 A 
HETATM   10  C2  UNL     1      18.988  -0.605  53.013  1.00  0.00     0.068 A 
HETATM   11  C19 UNL     1      19.138   0.120  51.865  1.00  0.00     0.039 A 
HETATM   12  C18 UNL     1      20.316   0.831  51.648  1.00  0.00     0.039 A 
BRANCH  10  13
HETATM   13  O1  UNL     1      17.838  -1.328  53.278  1.00  0.00    -0.356 OA
HETATM   14  C1  UNL     1      17.888  -2.666  53.688  1.00  0.00     0.210 C 
ENDBRANCH  10  13
ENDBRANCH   6   7
ENDBRANCH   1   6
BRANCH   5  15
HETATM   15  C15 UNL     1      23.818   3.957  51.832  1.00  0.00     0.191 A 
HETATM   16  N3  UNL     1      23.189   4.925  52.133  1.00  0.00    -0.235 NA
HETATM   17  C16 UNL     1      22.777   5.837  51.260  1.00  0.00     0.127 A 
HETATM   18  C17 UNL     1      23.084   5.693  49.844  1.00  0.00     0.072 A 
HETATM   19  S1  UNL     1      24.048   4.058  49.954  1.00  0.00    -0.061 SA
ENDBRANCH   5  15
BRANCH   3  20
HETATM   20  C9  UNL     1      27.093   0.511  53.087  1.00  0.00    -0.009 A 
HETATM   21  C10 UNL     1      28.102   1.249  53.671  1.00  0.00     0.016 A 
HETATM   22  C11 UNL     1      29.300   0.647  54.008  1.00  0.00     0.043 A 
HETATM   23  C12 UNL     1      29.453  -0.699  53.745  1.00  0.00     0.116 A 
HETATM   24  F1  UNL     1      30.601  -1.395  54.040  1.00  0.00    -0.206 F 
HETATM   25  C13 UNL     1      28.437  -1.444  53.157  1.00  0.00     0.043 A 
HETATM   26  C14 UNL     1      27.221  -0.845  52.812  1.00  0.00     0.016 A 
ENDBRANCH   3  20
TORSDOF 5
ENDMDL
MODEL 2
REMARK VINA RESULT:      -8.2      4.141      7.110
REMARK  5 active torsions:
REMARK  status: ('A' for Active; 'I' for Inactive)
REMARK    1  A    between atoms: O1_2  and  C2_3 
REMARK    2  A    between atoms: C5_6  and  O2_7 
REMARK    3  A    between atoms: O2_7  and  C6_8 
REMARK    4  A    between atoms: C8_10  and  C9_11 
REMARK    5  A    between atoms: N2_19  and  C15_20 
ROOT
HETATM    1  C6  UNL     1      25.092   3.194  51.007  1.00  0.00     0.261 C 
HETATM    2  C7  UNL     1      26.366   3.334  50.160  1.00  0.00     0.118 C 
HETATM    3  C8  UNL     1      25.979   4.513  49.341  1.00  0.00     0.069 C 
HETATM    4  N1  UNL     1      24.672   4.566  49.264  1.00  0.00    -0.172 NA
HETATM    5  N2  UNL     1      24.117   3.500  49.977  1.00  0.00    -0.215 N 
ENDROOT
BRANCH   1   6
HETATM    6  O2  UNL     1      24.958   1.929  51.546  1.00  0.00    -0.324 OA
BRANCH   6   7
HETATM    7  C5  UNL     1      25.934   1.410  52.376  1.00  0.00     0.071 A 
HETATM    8  C4  UNL     1      26.620   1.903  53.464  1.00  0.00     0.039 A 
HETATM    9  C3  UNL     1      27.558   1.126  54.098  1.00  0.00     0.039 A 
HETATM   10  C2  UNL     1      27.853  -0.154  53.689  1.00  0.00     0.068 A 
HETATM   11  C19 UNL     1      27.187  -0.669  52.613  1.00  0.00     0.039 A 
HETATM   12  C18 UNL     1      26.233   0.107  51.958  1.00  0.00     0.039 A 
BRANCH  10  13
HETATM   13  O1  UNL     1      28.809  -0.882  54.375  1.00  0.00    -0.356 OA
HETATM   14  C1  UNL     1      30.080  -1.120  53.836  1.00  0.00     0.210 C 
ENDBRANCH  10  13
ENDBRANCH   6   7
ENDBRANCH   1   6
BRANCH   5  15
HETATM   15  C15 UNL     1      22.924   2.765  49.878  1.00  0.00     0.191 A 
HETATM   16  N3  UNL     1      22.444   1.876  49.243  1.00  0.00    -0.235 NA
HETATM   17  C16 UNL     1      21.214   1.412  49.437  1.00  0.00     0.127 A 
HETATM   18  C17 UNL     1      20.364   1.987  50.470  1.00  0.00     0.072 A 
HETATM   19  S1  UNL     1      21.591   3.288  51.118  1.00  0.00    -0.061 SA
ENDBRANCH   5  15
BRANCH   3  20
HETATM   20  C9  UNL     1      26.848   5.485  48.703  1.00  0.00    -0.009 A 
HETATM   21  C10 UNL     1      26.311   6.697  48.321  1.00  0.00     0.016 A 
HETATM   22  C11 UNL     1      27.105   7.649  47.710  1.00  0.00     0.043 A 
HETATM   23  C12 UNL     1      28.436   7.353  47.497  1.00  0.00     0.116 A 
HETATM   24  F1  UNL     1      29.313   8.226  46.900  1.00  0.00    -0.206 F 
HETATM   25  C13 UNL     1      28.979   6.131  47.882  1.00  0.00     0.043 A 
HETATM   26  C14 UNL     1      28.184   5.161  48.500  1.00  0.00     0.016 A 
ENDBRANCH   3  20
TORSDOF 5
ENDMDL
MODEL 3
REMARK VINA RESULT:      -8.1      3.451      5.878
REMARK  5 active torsions:
REMARK  status: ('A' for Active; 'I' for Inactive)
REMARK    1  A    between atoms: O1_2  and  C2_3 
REMARK    2  A    between atoms: C5_6  and  O2_7 
REMARK    3  A    between atoms: O2_7  and  C6_8 
REMARK    4  A    between atoms: C8_10  and  C9_11 
REMARK    5  A    between atoms: N2_19  and  C15_20 
ROOT
HETATM    1  C6  UNL     1      24.956   1.723  51.576  1.00  0.00     0.261 C 
HETATM    2  C7  UNL     1      24.805   3.252  51.524  1.00  0.00     0.118 C 
HETATM    3  C8  UNL     1      25.869   3.564  50.534  1.00  0.00     0.069 C 
HETATM    4  N1  UNL     1      26.768   2.611  50.563  1.00  0.00    -0.172 NA
HETATM    5  N2  UNL     1      26.404   1.651  51.511  1.00  0.00    -0.215 N 
ENDROOT
BRANCH   1   6
HETATM    6  O2  UNL     1      24.420   1.183  52.729  1.00  0.00    -0.324 OA
BRANCH   6   7
HETATM    7  C5  UNL     1      23.106   0.755  52.762  1.00  0.00     0.071 A 
HETATM    8  C4  UNL     1      21.992   1.040  52.003  1.00  0.00     0.039 A 
HETATM    9  C3  UNL     1      20.791   0.439  52.288  1.00  0.00     0.039 A 
HETATM   10  C2  UNL     1      20.642  -0.458  53.320  1.00  0.00     0.068 A 
HETATM   11  C19 UNL     1      21.731  -0.759  54.089  1.00  0.00     0.039 A 
HETATM   12  C18 UNL     1      22.956  -0.158  53.814  1.00  0.00     0.039 A 
BRANCH  10  13
HETATM   13  O1  UNL     1      19.402  -1.027  53.551  1.00  0.00    -0.356 OA
HETATM   14  C1  UNL     1      18.304  -0.762  52.724  1.00  0.00     0.210 C 
ENDBRANCH  10  13
ENDBRANCH   6   7
ENDBRANCH   1   6
BRANCH   5  15
HETATM   15  C15 UNL     1      27.112   0.741  52.313  1.00  0.00     0.191 A 
HETATM   16  N3  UNL     1      27.257  -0.435  52.457  1.00  0.00    -0.235 NA
HETATM   17  C16 UNL     1      28.056  -0.972  53.373  1.00  0.00     0.127 A 
HETATM   18  C17 UNL     1      28.818  -0.121  54.276  1.00  0.00     0.072 A 
HETATM   19  S1  UNL     1      28.218   1.558  53.615  1.00  0.00    -0.061 SA
ENDBRANCH   5  15
BRANCH   3  20
HETATM   20  C9  UNL     1      25.960   4.709  49.648  1.00  0.00    -0.009 A 
HETATM   21  C10 UNL     1      27.188   5.024  49.103  1.00  0.00     0.016 A 
HETATM   22  C11 UNL     1      27.318   6.108  48.256  1.00  0.00     0.043 A 
HETATM   23  C12 UNL     1      26.193   6.858  47.976  1.00  0.00     0.116 A 
HETATM   24  F1  UNL     1      26.209   7.954  47.147  1.00  0.00    -0.206 F 
HETATM   25  C13 UNL     1      24.955   6.543  48.525  1.00  0.00     0.043 A 
HETATM   26  C14 UNL     1      24.813   5.448  49.383  1.00  0.00     0.016 A 
ENDBRANCH   3  20
TORSDOF 5
ENDMDL
MODEL 4
REMARK VINA RESULT:      -8.1      3.842      8.059
REMARK  5 active torsions:
REMARK  status: ('A' for Active; 'I' for Inactive)
REMARK    1  A    between atoms: O1_2  and  C2_3 
REMARK    2  A    between atoms: C5_6  and  O2_7 
REMARK    3  A    between atoms: O2_7  and  C6_8 
REMARK    4  A    between atoms: C8_10  and  C9_11 
REMARK    5  A    between atoms: N2_19  and  C15_20 
ROOT
HETATM    1  C6  UNL     1      24.436   2.054  52.136  1.00  0.00     0.261 C 
HETATM    2  C7  UNL     1      23.372   1.327  51.298  1.00  0.00     0.118 C 
HETATM    3  C8  UNL     1      22.597   0.691  52.396  1.00  0.00     0.069 C 
HETATM    4  N1  UNL     1      23.380   0.538  53.434  1.00  0.00    -0.172 NA
HETATM    5  N2  UNL     1      24.656   1.025  53.137  1.00  0.00    -0.215 N 
ENDROOT
BRANCH   1   6
HETATM    6  O2  UNL     1      25.561   2.365  51.397  1.00  0.00    -0.324 OA
BRANCH   6   7
HETATM    7  C5  UNL     1      25.620   3.534  50.662  1.00  0.00     0.071 A 
HETATM    8  C4  UNL     1      24.837   4.667  50.610  1.00  0.00     0.039 A 
HETATM    9  C3  UNL     1      25.161   5.689  49.753  1.00  0.00     0.039 A 
HETATM   10  C2  UNL     1      26.257   5.638  48.924  1.00  0.00     0.068 A 
HETATM   11  C19 UNL     1      27.051   4.526  48.955  1.00  0.00     0.039 A 
HETATM   12  C18 UNL     1      26.736   3.479  49.818  1.00  0.00     0.039 A 
BRANCH  10  13
HETATM   13  O1  UNL     1      26.526   6.705  48.085  1.00  0.00    -0.356 OA
HETATM   14  C1  UNL     1      25.540   7.639  47.744  1.00  0.00     0.210 C 
ENDBRANCH  10  13
ENDBRANCH   6   7
ENDBRANCH   1   6
BRANCH   5  15
HETATM   15  C15 UNL     1      25.953   0.728  53.584  1.00  0.00     0.191 A 
HETATM   16  N3  UNL     1      26.755   1.099  54.387  1.00  0.00    -0.235 NA
HETATM   17  C16 UNL     1      27.954   0.549  54.539  1.00  0.00     0.127 A 
HETATM   18  C17 UNL     1      28.362  -0.572  53.703  1.00  0.00     0.072 A 
HETATM   19  S1  UNL     1      26.772  -0.716  52.671  1.00  0.00    -0.061 SA
ENDBRANCH   5  15
BRANCH   3  20
HETATM   20  C9  UNL     1      21.204   0.283  52.389  1.00  0.00    -0.009 A 
HETATM   21  C10 UNL     1      20.415   0.652  51.319  1.00  0.00     0.016 A 
HETATM   22  C11 UNL     1      19.083   0.283  51.277  1.00  0.00     0.043 A 
HETATM   23  C12 UNL     1      18.575  -0.457  52.324  1.00  0.00     0.116 A 
HETATM   24  F1  UNL     1      17.268  -0.877  52.382  1.00  0.00    -0.206 F 
HETATM   25  C13 UNL     1      19.369  -0.830  53.403  1.00  0.00     0.043 A 
HETATM   26  C14 UNL     1      20.718  -0.462  53.457  1.00  0.00     0.016 A 
ENDBRANCH   3  20
TORSDOF 5
ENDMDL
MODEL 5
REMARK VINA RESULT:      -8.1      3.553      7.505
REMARK  5 active torsions:
REMARK  status: ('A' for Active; 'I' for Inactive)
REMARK    1  A    between atoms: O1_2  and  C2_3 
REMARK    2  A    between atoms: C5_6  and  O2_7 
REMARK    3  A    between atoms: O2_7  and  C6_8 
REMARK    4  A    between atoms: C8_10  and  C9_11 
REMARK    5  A    between atoms: N2_19  and  C15_20 
ROOT
HETATM    1  C6  UNL     1      23.135   1.040  52.642  1.00  0.00     0.261 C 
HETATM    2  C7  UNL     1      21.853   0.799  53.456  1.00  0.00     0.118 C 
HETATM    3  C8  UNL     1      20.870   0.748  52.342  1.00  0.00     0.069 C 
HETATM    4  N1  UNL     1      21.341   1.431  51.329  1.00  0.00    -0.172 NA
HETATM    5  N2  UNL     1      22.592   1.959  51.659  1.00  0.00    -0.215 N 
ENDROOT
BRANCH   1   6
HETATM    6  O2  UNL     1      24.149   1.578  53.410  1.00  0.00    -0.324 OA
BRANCH   6   7
HETATM    7  C5  UNL     1      25.359   0.922  53.539  1.00  0.00     0.071 A 
HETATM    8  C4  UNL     1      26.326   0.891  54.519  1.00  0.00     0.039 A 
HETATM    9  C3  UNL     1      27.451   0.122  54.354  1.00  0.00     0.039 A 
HETATM   10  C2  UNL     1      27.666  -0.639  53.228  1.00  0.00     0.068 A 
HETATM   11  C19 UNL     1      26.722  -0.626  52.239  1.00  0.00     0.039 A 
HETATM   12  C18 UNL     1      25.575   0.149  52.391  1.00  0.00     0.039 A 
BRANCH  10  13
HETATM   13  O1  UNL     1      28.823  -1.391  53.127  1.00  0.00    -0.356 OA
HETATM   14  C1  UNL     1      30.023  -0.979  53.718  1.00  0.00     0.210 C 
ENDBRANCH  10  13
ENDBRANCH   6   7
ENDBRANCH   1   6
BRANCH   5  15
HETATM   15  C15 UNL     1      23.323   3.087  51.253  1.00  0.00     0.191 A 
HETATM   16  N3  UNL     1      24.268   3.376  50.582  1.00  0.00    -0.235 NA
HETATM   17  C16 UNL     1      24.700   4.621  50.416  1.00  0.00     0.127 A 
HETATM   18  C17 UNL     1      24.017   5.731  51.066  1.00  0.00     0.072 A 
HETATM   19  S1  UNL     1      22.668   4.723  51.949  1.00  0.00    -0.061 SA
ENDBRANCH   5  15
BRANCH   3  20
HETATM   20  C9  UNL     1      19.585   0.074  52.312  1.00  0.00    -0.009 A 
HETATM   21  C10 UNL     1      19.274  -0.796  53.336  1.00  0.00     0.016 A 
HETATM   22  C11 UNL     1      18.060  -1.459  53.343  1.00  0.00     0.043 A 
HETATM   23  C12 UNL     1      17.181  -1.225  52.306  1.00  0.00     0.116 A 
HETATM   24  F1  UNL     1      15.950  -1.829  52.215  1.00  0.00    -0.206 F 
HETATM   25  C13 UNL     1      17.494  -0.349  51.272  1.00  0.00     0.043 A 
HETATM   26  C14 UNL     1      18.719   0.326  51.255  1.00  0.00     0.016 A 
ENDBRANCH   3  20
TORSDOF 5
ENDMDL
MODEL 6
REMARK VINA RESULT:      -8.0      3.545      6.665
REMARK  5 active torsions:
REMARK  status: ('A' for Active; 'I' for Inactive)
REMARK    1  A    between atoms: O1_2  and  C2_3 
REMARK    2  A    between atoms: C5_6  and  O2_7 
REMARK    3  A    between atoms: O2_7  and  C6_8 
REMARK    4  A    between atoms: C8_10  and  C9_11 
REMARK    5  A    between atoms: N2_19  and  C15_20 
ROOT
HETATM    1  C6  UNL     1      24.327   2.866  52.462  1.00  0.00     0.261 C 
HETATM    2  C7  UNL     1      25.432   2.826  51.395  1.00  0.00     0.118 C 
HETATM    3  C8  UNL     1      25.013   3.992  50.573  1.00  0.00     0.069 C 
HETATM    4  N1  UNL     1      23.724   4.175  50.725  1.00  0.00    -0.172 NA
HETATM    5  N2  UNL     1      23.213   3.214  51.600  1.00  0.00    -0.215 N 
ENDROOT
BRANCH   1   6
HETATM    6  O2  UNL     1      24.179   1.654  53.107  1.00  0.00    -0.324 OA
BRANCH   6   7
HETATM    7  C5  UNL     1      25.236   0.768  53.195  1.00  0.00     0.071 A 
HETATM    8  C4  UNL     1      25.528  -0.430  52.581  1.00  0.00     0.039 A 
HETATM    9  C3  UNL     1      26.690  -1.095  52.885  1.00  0.00     0.039 A 
HETATM   10  C2  UNL     1      27.601  -0.611  53.795  1.00  0.00     0.068 A 
HETATM   11  C19 UNL     1      27.336   0.575  54.419  1.00  0.00     0.039 A 
HETATM   12  C18 UNL     1      26.161   1.262  54.123  1.00  0.00     0.039 A 
BRANCH  10  13
HETATM   13  O1  UNL     1      28.753  -1.333  54.054  1.00  0.00    -0.356 OA
HETATM   14  C1  UNL     1      30.006  -0.909  53.594  1.00  0.00     0.210 C 
ENDBRANCH  10  13
ENDBRANCH   6   7
ENDBRANCH   1   6
BRANCH   5  15
HETATM   15  C15 UNL     1      21.959   2.602  51.768  1.00  0.00     0.191 A 
HETATM   16  N3  UNL     1      20.956   2.726  52.403  1.00  0.00    -0.235 NA
HETATM   17  C16 UNL     1      19.912   1.911  52.295  1.00  0.00     0.127 A 
HETATM   18  C17 UNL     1      19.944   0.791  51.366  1.00  0.00     0.072 A 
HETATM   19  S1  UNL     1      21.691   1.081  50.673  1.00  0.00    -0.061 SA
ENDBRANCH   5  15
BRANCH   3  20
HETATM   20  C9  UNL     1      25.836   4.831  49.723  1.00  0.00    -0.009 A 
HETATM   21  C10 UNL     1      27.042   4.332  49.274  1.00  0.00     0.016 A 
HETATM   22  C11 UNL     1      27.855   5.101  48.463  1.00  0.00     0.043 A 
HETATM   23  C12 UNL     1      27.428   6.368  48.120  1.00  0.00     0.116 A 
HETATM   24  F1  UNL     1      28.157   7.214  47.320  1.00  0.00    -0.206 F 
HETATM   25  C13 UNL     1      26.213   6.872  48.571  1.00  0.00     0.043 A 
HETATM   26  C14 UNL     1      25.383   6.102  49.393  1.00  0.00     0.016 A 
ENDBRANCH   3  20
TORSDOF 5
ENDMDL
MODEL 7
REMARK VINA RESULT:      -8.0      3.400      6.745
REMARK  5 active torsions:
REMARK  status: ('A' for Active; 'I' for Inactive)
REMARK    1  A    between atoms: O1_2  and  C2_3 
REMARK    2  A    between atoms: C5_6  and  O2_7 
REMARK    3  A    between atoms: O2_7  and  C6_8 
REMARK    4  A    between atoms: C8_10  and  C9_11 
REMARK    5  A    between atoms: N2_19  and  C15_20 
ROOT
HETATM    1  C6  UNL     1      25.305   2.738  50.607  1.00  0.00     0.261 C 
HETATM    2  C7  UNL     1      26.509   2.448  51.516  1.00  0.00     0.118 C 
HETATM    3  C8  UNL     1      26.142   1.080  51.969  1.00  0.00     0.069 C 
HETATM    4  N1  UNL     1      24.841   0.945  51.897  1.00  0.00    -0.172 NA
HETATM    5  N2  UNL     1      24.271   2.129  51.424  1.00  0.00    -0.215 N 
ENDROOT
BRANCH   1   6
HETATM    6  O2  UNL     1      25.125   4.091  50.393  1.00  0.00    -0.324 OA
BRANCH   6   7
HETATM    7  C5  UNL     1      26.060   4.824  49.688  1.00  0.00     0.071 A 
HETATM    8  C4  UNL     1      27.187   4.489  48.969  1.00  0.00     0.039 A 
HETATM    9  C3  UNL     1      27.935   5.469  48.363  1.00  0.00     0.039 A 
HETATM   10  C2  UNL     1      27.604   6.802  48.440  1.00  0.00     0.068 A 
HETATM   11  C19 UNL     1      26.491   7.162  49.146  1.00  0.00     0.039 A 
HETATM   12  C18 UNL     1      25.722   6.181  49.767  1.00  0.00     0.039 A 
BRANCH  10  13
HETATM   13  O1  UNL     1      28.402   7.737  47.804  1.00  0.00    -0.356 OA
HETATM   14  C1  UNL     1      27.945   8.466  46.699  1.00  0.00     0.210 C 
ENDBRANCH  10  13
ENDBRANCH   6   7
ENDBRANCH   1   6
BRANCH   5  15
HETATM   15  C15 UNL     1      23.023   2.754  51.582  1.00  0.00     0.191 A 
HETATM   16  N3  UNL     1      22.437   3.450  52.355  1.00  0.00    -0.235 NA
HETATM   17  C16 UNL     1      21.192   3.874  52.167  1.00  0.00     0.127 A 
HETATM   18  C17 UNL     1      20.458   3.495  50.968  1.00  0.00     0.072 A 
HETATM   19  S1  UNL     1      21.818   2.445  50.154  1.00  0.00    -0.061 SA
ENDBRANCH   5  15
BRANCH   3  20
HETATM   20  C9  UNL     1      27.023   0.022  52.426  1.00  0.00    -0.009 A 
HETATM   21  C10 UNL     1      26.645  -1.288  52.212  1.00  0.00     0.016 A 
HETATM   22  C11 UNL     1      27.456  -2.325  52.633  1.00  0.00     0.043 A 
HETATM   23  C12 UNL     1      28.641  -2.013  53.267  1.00  0.00     0.116 A 
HETATM   24  F1  UNL     1      29.520  -2.965  53.724  1.00  0.00    -0.206 F 
HETATM   25  C13 UNL     1      29.023  -0.694  53.484  1.00  0.00     0.043 A 
HETATM   26  C14 UNL     1      28.210   0.363  53.062  1.00  0.00     0.016 A 
ENDBRANCH   3  20
TORSDOF 5
ENDMDL
MODEL 8
REMARK VINA RESULT:      -7.8      2.620      6.048
REMARK  5 active torsions:
REMARK  status: ('A' for Active; 'I' for Inactive)
REMARK    1  A    between atoms: O1_2  and  C2_3 
REMARK    2  A    between atoms: C5_6  and  O2_7 
REMARK    3  A    between atoms: O2_7  and  C6_8 
REMARK    4  A    between atoms: C8_10  and  C9_11 
REMARK    5  A    between atoms: N2_19  and  C15_20 
ROOT
HETATM    1  C6  UNL     1      24.407   2.422  50.921  1.00  0.00     0.261 C 
HETATM    2  C7  UNL     1      25.617   2.611  51.849  1.00  0.00     0.118 C 
HETATM    3  C8  UNL     1      25.819   1.199  52.268  1.00  0.00     0.069 C 
HETATM    4  N1  UNL     1      24.680   0.559  52.166  1.00  0.00    -0.172 NA
HETATM    5  N2  UNL     1      23.691   1.431  51.704  1.00  0.00    -0.215 N 
ENDROOT
BRANCH   1   6
HETATM    6  O2  UNL     1      23.705   3.596  50.729  1.00  0.00    -0.324 OA
BRANCH   6   7
HETATM    7  C5  UNL     1      24.366   4.768  50.410  1.00  0.00     0.071 A 
HETATM    8  C4  UNL     1      25.351   5.088  49.502  1.00  0.00     0.039 A 
HETATM    9  C3  UNL     1      25.818   6.377  49.417  1.00  0.00     0.039 A 
HETATM   10  C2  UNL     1      25.336   7.390  50.214  1.00  0.00     0.068 A 
HETATM   11  C19 UNL     1      24.358   7.099  51.123  1.00  0.00     0.039 A 
HETATM   12  C18 UNL     1      23.874   5.797  51.223  1.00  0.00     0.039 A 
BRANCH  10  13
HETATM   13  O1  UNL     1      25.851   8.667  50.075  1.00  0.00    -0.356 OA
HETATM   14  C1  UNL     1      27.229   8.913  50.111  1.00  0.00     0.210 C 
ENDBRANCH  10  13
ENDBRANCH   6   7
ENDBRANCH   1   6
BRANCH   5  15
HETATM   15  C15 UNL     1      22.296   1.504  51.849  1.00  0.00     0.191 A 
HETATM   16  N3  UNL     1      21.473   1.885  52.625  1.00  0.00    -0.235 NA
HETATM   17  C16 UNL     1      20.164   1.785  52.419  1.00  0.00     0.127 A 
HETATM   18  C17 UNL     1      19.655   1.186  51.193  1.00  0.00     0.072 A 
HETATM   19  S1  UNL     1      21.330   0.788  50.386  1.00  0.00    -0.061 SA
ENDBRANCH   5  15
BRANCH   3  20
HETATM   20  C9  UNL     1      27.043   0.566  52.722  1.00  0.00    -0.009 A 
HETATM   21  C10 UNL     1      28.060   1.367  53.200  1.00  0.00     0.016 A 
HETATM   22  C11 UNL     1      29.243   0.802  53.641  1.00  0.00     0.043 A 
HETATM   23  C12 UNL     1      29.372  -0.571  53.590  1.00  0.00     0.116 A 
HETATM   24  F1  UNL     1      30.502  -1.234  54.003  1.00  0.00    -0.206 F 
HETATM   25  C13 UNL     1      28.347  -1.379  53.109  1.00  0.00     0.043 A 
HETATM   26  C14 UNL     1      27.147  -0.818  52.659  1.00  0.00     0.016 A 
ENDBRANCH   3  20
TORSDOF 5
ENDMDL
MODEL 9
REMARK VINA RESULT:      -7.8      2.236      5.247
REMARK  5 active torsions:
REMARK  status: ('A' for Active; 'I' for Inactive)
REMARK    1  A    between atoms: O1_2  and  C2_3 
REMARK    2  A    between atoms: C5_6  and  O2_7 
REMARK    3  A    between atoms: O2_7  and  C6_8 
REMARK    4  A    between atoms: C8_10  and  C9_11 
REMARK    5  A    between atoms: N2_19  and  C15_20 
ROOT
HETATM    1  C6  UNL     1      24.011   1.928  52.421  1.00  0.00     0.261 C 
HETATM    2  C7  UNL     1      25.232   1.994  53.351  1.00  0.00     0.118 C 
HETATM    3  C8  UNL     1      25.690   0.583  53.245  1.00  0.00     0.069 C 
HETATM    4  N1  UNL     1      24.666  -0.172  52.930  1.00  0.00    -0.172 NA
HETATM    5  N2  UNL     1      23.520   0.618  52.808  1.00  0.00    -0.215 N 
ENDROOT
BRANCH   1   6
HETATM    6  O2  UNL     1      23.116   2.953  52.657  1.00  0.00    -0.324 OA
BRANCH   6   7
HETATM    7  C5  UNL     1      22.923   3.950  51.720  1.00  0.00     0.071 A 
HETATM    8  C4  UNL     1      22.319   5.188  51.757  1.00  0.00     0.039 A 
HETATM    9  C3  UNL     1      22.284   5.972  50.630  1.00  0.00     0.039 A 
HETATM   10  C2  UNL     1      22.838   5.572  49.436  1.00  0.00     0.068 A 
HETATM   11  C19 UNL     1      23.443   4.348  49.371  1.00  0.00     0.039 A 
HETATM   12  C18 UNL     1      23.487   3.541  50.505  1.00  0.00     0.039 A 
BRANCH  10  13
HETATM   13  O1  UNL     1      22.767   6.413  48.339  1.00  0.00    -0.356 OA
HETATM   14  C1  UNL     1      23.917   6.956  47.753  1.00  0.00     0.210 C 
ENDBRANCH  10  13
ENDBRANCH   6   7
ENDBRANCH   1   6
BRANCH   5  15
HETATM   15  C15 UNL     1      22.144   0.390  52.976  1.00  0.00     0.191 A 
HETATM   16  N3  UNL     1      21.347   0.181  53.840  1.00  0.00    -0.235 NA
HETATM   17  C16 UNL     1      20.049   0.004  53.617  1.00  0.00     0.127 A 
HETATM   18  C17 UNL     1      19.520   0.056  52.261  1.00  0.00     0.072 A 
HETATM   19  S1  UNL     1      21.158   0.397  51.359  1.00  0.00    -0.061 SA
ENDBRANCH   5  15
BRANCH   3  20
HETATM   20  C9  UNL     1      27.028   0.058  53.443  1.00  0.00    -0.009 A 
HETATM   21  C10 UNL     1      27.337  -1.176  52.908  1.00  0.00     0.016 A 
HETATM   22  C11 UNL     1      28.600  -1.711  53.075  1.00  0.00     0.043 A 
HETATM   23  C12 UNL     1      29.531  -0.981  53.786  1.00  0.00     0.116 A 
HETATM   24  F1  UNL     1      30.815  -1.419  54.010  1.00  0.00    -0.206 F 
HETATM   25  C13 UNL     1      29.221   0.262  54.326  1.00  0.00     0.043 A 
HETATM   26  C14 UNL     1      27.946   0.812  54.163  1.00  0.00     0.016 A 
ENDBRANCH   3  20
TORSDOF 5
ENDMDL
