MODEL 1
REMARK VINA RESULT:      -8.2      0.000      0.000
REMARK  4 active torsions:
REMARK  status: ('A' for Active; 'I' for Inactive)
REMARK    1  A    between atoms: C3_3  and  O1_4 
REMARK    2  A    between atoms: O1_4  and  N1_5 
REMARK    3  A    between atoms: C8_13  and  N4_14 
REMARK    4  A    between atoms: N4_14  and  C9_15 
ROOT
HETATM    1  C1  UNL     1      23.254   1.150  51.478  1.00  0.00     0.052 C 
HETATM    2  C2  UNL     1      22.572   0.397  52.559  1.00  0.00    -0.010 A 
HETATM    3  C3  UNL     1      21.178   0.242  52.574  1.00  0.00     0.100 A 
HETATM    4  C4  UNL     1      20.455  -0.437  53.531  1.00  0.00     0.041 A 
HETATM    5  C5  UNL     1      21.129  -1.020  54.567  1.00  0.00     0.035 A 
HETATM    6  C6  UNL     1      22.500  -0.899  54.601  1.00  0.00     0.072 A 
HETATM    7  N2  UNL     1      23.191  -1.452  55.599  1.00  0.00    -0.241 NA
HETATM    8  C7  UNL     1      24.511  -1.382  55.713  1.00  0.00     0.236 A 
HETATM    9  N3  UNL     1      25.172  -0.712  54.760  1.00  0.00    -0.223 NA
HETATM   10  C8  UNL     1      24.546  -0.133  53.732  1.00  0.00     0.142 A 
HETATM   11  C15 UNL     1      23.181  -0.214  53.628  1.00  0.00     0.047 A 
ENDROOT
BRANCH  10  12
HETATM   12  N4  UNL     1      25.365   0.553  52.791  1.00  0.00    -0.340 N 
HETATM   13  H8  UNL     1      25.664   1.064  51.950  1.00  0.00     0.167 HD
BRANCH  12  14
HETATM   14  C9  UNL     1      26.757   0.653  53.191  1.00  0.00     0.035 A 
HETATM   15  C10 UNL     1      27.103   1.995  53.425  1.00  0.00     0.029 A 
HETATM   16  C11 UNL     1      28.412   2.336  53.790  1.00  0.00     0.004 A 
HETATM   17  C12 UNL     1      29.385   1.370  53.927  1.00  0.00     0.024 A 
HETATM   18  C13 UNL     1      29.070   0.052  53.704  1.00  0.00     0.036 A 
HETATM   19 CL1  UNL     1      30.129  -1.325  53.817  1.00  0.00    -0.084 Cl
HETATM   20  C14 UNL     1      27.784  -0.257  53.348  1.00  0.00     0.053 A 
ENDBRANCH  12  14
ENDBRANCH  10  12
BRANCH   3  21
HETATM   21  O1  UNL     1      20.446   0.818  51.541  1.00  0.00    -0.253 OA
BRANCH  21  22
HETATM   22  N1  UNL     1      19.438   1.692  51.751  1.00  0.00    -0.129 NA
HETATM   23 BR1  UNL     1      20.223   3.391  52.058  1.00  0.00     0.038 Br
HETATM   24  H4  UNL     1      18.709   1.700  51.026  1.00  0.00     0.169 HD
ENDBRANCH  21  22
ENDBRANCH   3  21
TORSDOF 4
ENDMDL
MODEL 2
REMARK VINA RESULT:      -8.1      2.304      3.398
REMARK  4 active torsions:
REMARK  status: ('A' for Active; 'I' for Inactive)
REMARK    1  A    between atoms: C3_3  and  O1_4 
REMARK    2  A    between atoms: O1_4  and  N1_5 
REMARK    3  A    between atoms: C8_13  and  N4_14 
REMARK    4  A    between atoms: N4_14  and  C9_15 
ROOT
HETATM    1  C1  UNL     1      22.432  -1.061  54.615  1.00  0.00     0.052 C 
HETATM    2  C2  UNL     1      21.908  -0.345  53.426  1.00  0.00    -0.010 A 
HETATM    3  C3  UNL     1      20.565  -0.455  53.038  1.00  0.00     0.100 A 
HETATM    4  C4  UNL     1      19.988   0.169  51.954  1.00  0.00     0.041 A 
HETATM    5  C5  UNL     1      20.768   0.970  51.170  1.00  0.00     0.035 A 
HETATM    6  C6  UNL     1      22.096   1.115  51.506  1.00  0.00     0.072 A 
HETATM    7  N2  UNL     1      22.889   1.887  50.760  1.00  0.00    -0.241 NA
HETATM    8  C7  UNL     1      24.179   2.080  51.008  1.00  0.00     0.236 A 
HETATM    9  N3  UNL     1      24.696   1.452  52.073  1.00  0.00    -0.223 NA
HETATM   10  C8  UNL     1      23.962   0.665  52.862  1.00  0.00     0.142 A 
HETATM   11  C15 UNL     1      22.631   0.476  52.594  1.00  0.00     0.047 A 
ENDROOT
BRANCH  10  12
HETATM   12  N4  UNL     1      24.637   0.053  53.957  1.00  0.00    -0.340 N 
HETATM   13  H8  UNL     1      24.808  -0.414  54.856  1.00  0.00     0.167 HD
BRANCH  12  14
HETATM   14  C9  UNL     1      26.080   0.018  53.809  1.00  0.00     0.035 A 
HETATM   15  C10 UNL     1      26.475  -1.158  53.148  1.00  0.00     0.029 A 
HETATM   16  C11 UNL     1      27.832  -1.424  52.925  1.00  0.00     0.004 A 
HETATM   17  C12 UNL     1      28.806  -0.544  53.346  1.00  0.00     0.024 A 
HETATM   18  C13 UNL     1      28.444   0.612  53.993  1.00  0.00     0.036 A 
HETATM   19 CL1  UNL     1      29.494   1.857  54.606  1.00  0.00    -0.084 Cl
HETATM   20  C14 UNL     1      27.112   0.850  54.199  1.00  0.00     0.053 A 
ENDBRANCH  12  14
ENDBRANCH  10  12
BRANCH   3  21
HETATM   21  O1  UNL     1      19.730  -1.261  53.804  1.00  0.00    -0.253 OA
BRANCH  21  22
HETATM   22  N1  UNL     1      18.387  -1.111  53.834  1.00  0.00    -0.129 NA
HETATM   23 BR1  UNL     1      17.626  -2.830  53.582  1.00  0.00     0.038 Br
HETATM   24  H4  UNL     1      18.022  -0.615  54.658  1.00  0.00     0.169 HD
ENDBRANCH  21  22
ENDBRANCH   3  21
TORSDOF 4
ENDMDL
MODEL 3
REMARK VINA RESULT:      -7.8      3.208      4.248
REMARK  4 active torsions:
REMARK  status: ('A' for Active; 'I' for Inactive)
REMARK    1  A    between atoms: C3_3  and  O1_4 
REMARK    2  A    between atoms: O1_4  and  N1_5 
REMARK    3  A    between atoms: C8_13  and  N4_14 
REMARK    4  A    between atoms: N4_14  and  C9_15 
ROOT
HETATM    1  C1  UNL     1      20.880   1.002  51.464  1.00  0.00     0.052 C 
HETATM    2  C2  UNL     1      21.554   0.301  52.585  1.00  0.00    -0.010 A 
HETATM    3  C3  UNL     1      20.822  -0.403  53.552  1.00  0.00     0.100 A 
HETATM    4  C4  UNL     1      21.355  -1.083  54.626  1.00  0.00     0.041 A 
HETATM    5  C5  UNL     1      22.711  -1.089  54.787  1.00  0.00     0.035 A 
HETATM    6  C6  UNL     1      23.479  -0.413  53.865  1.00  0.00     0.072 A 
HETATM    7  N2  UNL     1      24.807  -0.394  53.992  1.00  0.00    -0.241 NA
HETATM    8  C7  UNL     1      25.622   0.234  53.154  1.00  0.00     0.236 A 
HETATM    9  N3  UNL     1      25.059   0.882  52.125  1.00  0.00    -0.223 NA
HETATM   10  C8  UNL     1      23.737   0.905  51.935  1.00  0.00     0.142 A 
HETATM   11  C15 UNL     1      22.908   0.251  52.810  1.00  0.00     0.047 A 
ENDROOT
BRANCH  10  12
HETATM   12  N4  UNL     1      23.268   1.635  50.806  1.00  0.00    -0.340 N 
HETATM   13  H8  UNL     1      22.740   1.888  49.962  1.00  0.00     0.167 HD
BRANCH  12  14
HETATM   14  C9  UNL     1      23.927   2.915  50.622  1.00  0.00     0.035 A 
HETATM   15  C10 UNL     1      23.247   3.921  51.331  1.00  0.00     0.029 A 
HETATM   16  C11 UNL     1      23.686   5.250  51.271  1.00  0.00     0.004 A 
HETATM   17  C12 UNL     1      24.788   5.601  50.521  1.00  0.00     0.024 A 
HETATM   18  C13 UNL     1      25.468   4.634  49.821  1.00  0.00     0.036 A 
HETATM   19 CL1  UNL     1      26.875   4.846  48.817  1.00  0.00    -0.084 Cl
HETATM   20  C14 UNL     1      25.021   3.343  49.895  1.00  0.00     0.053 A 
ENDBRANCH  12  14
ENDBRANCH  10  12
BRANCH   3  21
HETATM   21  O1  UNL     1      19.436  -0.427  53.432  1.00  0.00    -0.253 OA
BRANCH  21  22
HETATM   22  N1  UNL     1      18.682  -1.479  53.817  1.00  0.00    -0.129 NA
HETATM   23 BR1  UNL     1      17.099  -1.446  52.773  1.00  0.00     0.038 Br
HETATM   24  H4  UNL     1      19.164  -2.388  53.808  1.00  0.00     0.169 HD
ENDBRANCH  21  22
ENDBRANCH   3  21
TORSDOF 4
ENDMDL
MODEL 4
REMARK VINA RESULT:      -7.7      1.534      1.662
REMARK  4 active torsions:
REMARK  status: ('A' for Active; 'I' for Inactive)
REMARK    1  A    between atoms: C3_3  and  O1_4 
REMARK    2  A    between atoms: O1_4  and  N1_5 
REMARK    3  A    between atoms: C8_13  and  N4_14 
REMARK    4  A    between atoms: N4_14  and  C9_15 
ROOT
HETATM    1  C1  UNL     1      24.089   1.864  51.357  1.00  0.00     0.052 C 
HETATM    2  C2  UNL     1      23.099   0.977  52.016  1.00  0.00    -0.010 A 
HETATM    3  C3  UNL     1      21.796   0.838  51.517  1.00  0.00     0.100 A 
HETATM    4  C4  UNL     1      20.809   0.042  52.057  1.00  0.00     0.041 A 
HETATM    5  C5  UNL     1      21.097  -0.686  53.176  1.00  0.00     0.035 A 
HETATM    6  C6  UNL     1      22.363  -0.588  53.708  1.00  0.00     0.072 A 
HETATM    7  N2  UNL     1      22.679  -1.281  54.804  1.00  0.00    -0.241 NA
HETATM    8  C7  UNL     1      23.872  -1.243  55.384  1.00  0.00     0.236 A 
HETATM    9  N3  UNL     1      24.799  -0.455  54.825  1.00  0.00    -0.223 NA
HETATM   10  C8  UNL     1      24.553   0.267  53.729  1.00  0.00     0.142 A 
HETATM   11  C15 UNL     1      23.316   0.217  53.139  1.00  0.00     0.047 A 
ENDROOT
BRANCH  10  12
HETATM   12  N4  UNL     1      25.624   1.067  53.239  1.00  0.00    -0.340 N 
HETATM   13  H8  UNL     1      26.141   1.850  52.818  1.00  0.00     0.167 HD
BRANCH  12  14
HETATM   14  C9  UNL     1      26.928   0.440  53.364  1.00  0.00     0.035 A 
HETATM   15  C10 UNL     1      27.904   1.401  53.679  1.00  0.00     0.029 A 
HETATM   16  C11 UNL     1      29.247   1.028  53.814  1.00  0.00     0.004 A 
HETATM   17  C12 UNL     1      29.641  -0.282  53.643  1.00  0.00     0.024 A 
HETATM   18  C13 UNL     1      28.704  -1.238  53.336  1.00  0.00     0.036 A 
HETATM   19 CL1  UNL     1      28.971  -2.938  53.077  1.00  0.00    -0.084 Cl
HETATM   20  C14 UNL     1      27.398  -0.850  53.209  1.00  0.00     0.053 A 
ENDBRANCH  12  14
ENDBRANCH  10  12
BRANCH   3  21
HETATM   21  O1  UNL     1      21.453   1.560  50.378  1.00  0.00    -0.253 OA
BRANCH  21  22
HETATM   22  N1  UNL     1      21.319   0.993  49.159  1.00  0.00    -0.129 NA
HETATM   23 BR1  UNL     1      21.884   2.274  47.880  1.00  0.00     0.038 Br
HETATM   24  H4  UNL     1      21.773   0.076  49.053  1.00  0.00     0.169 HD
ENDBRANCH  21  22
ENDBRANCH   3  21
TORSDOF 4
ENDMDL
MODEL 5
REMARK VINA RESULT:      -7.7      4.263      6.063
REMARK  4 active torsions:
REMARK  status: ('A' for Active; 'I' for Inactive)
REMARK    1  A    between atoms: C3_3  and  O1_4 
REMARK    2  A    between atoms: O1_4  and  N1_5 
REMARK    3  A    between atoms: C8_13  and  N4_14 
REMARK    4  A    between atoms: N4_14  and  C9_15 
ROOT
HETATM    1  C1  UNL     1      25.337   0.624  52.242  1.00  0.00     0.052 C 
HETATM    2  C2  UNL     1      24.554  -0.015  53.328  1.00  0.00    -0.010 A 
HETATM    3  C3  UNL     1      25.179  -0.751  54.345  1.00  0.00     0.100 A 
HETATM    4  C4  UNL     1      24.541  -1.379  55.393  1.00  0.00     0.041 A 
HETATM    5  C5  UNL     1      23.180  -1.293  55.473  1.00  0.00     0.035 A 
HETATM    6  C6  UNL     1      22.514  -0.581  54.500  1.00  0.00     0.072 A 
HETATM    7  N2  UNL     1      21.184  -0.480  54.544  1.00  0.00    -0.241 NA
HETATM    8  C7  UNL     1      20.463   0.182  53.648  1.00  0.00     0.236 A 
HETATM    9  N3  UNL     1      21.127   0.775  52.647  1.00  0.00    -0.223 NA
HETATM   10  C8  UNL     1      22.456   0.716  52.540  1.00  0.00     0.142 A 
HETATM   11  C15 UNL     1      23.188   0.028  53.474  1.00  0.00     0.047 A 
ENDROOT
BRANCH  10  12
HETATM   12  N4  UNL     1      23.037   1.385  51.426  1.00  0.00    -0.340 N 
HETATM   13  H8  UNL     1      23.602   1.569  50.587  1.00  0.00     0.167 HD
BRANCH  12  14
HETATM   14  C9  UNL     1      22.615   2.768  51.289  1.00  0.00     0.035 A 
HETATM   15  C10 UNL     1      23.178   3.553  52.309  1.00  0.00     0.029 A 
HETATM   16  C11 UNL     1      22.880   4.919  52.398  1.00  0.00     0.004 A 
HETATM   17  C12 UNL     1      22.033   5.521  51.492  1.00  0.00     0.024 A 
HETATM   18  C13 UNL     1      21.471   4.773  50.487  1.00  0.00     0.036 A 
HETATM   19 CL1  UNL     1      20.382   5.318  49.243  1.00  0.00    -0.084 Cl
HETATM   20  C14 UNL     1      21.777   3.440  50.420  1.00  0.00     0.053 A 
ENDBRANCH  12  14
ENDBRANCH  10  12
BRANCH   3  21
HETATM   21  O1  UNL     1      26.565  -0.867  54.307  1.00  0.00    -0.253 OA
BRANCH  21  22
HETATM   22  N1  UNL     1      27.386  -0.156  55.111  1.00  0.00    -0.129 NA
HETATM   23 BR1  UNL     1      28.950   0.233  54.111  1.00  0.00     0.038 Br
HETATM   24  H4  UNL     1      26.959   0.671  55.548  1.00  0.00     0.169 HD
ENDBRANCH  21  22
ENDBRANCH   3  21
TORSDOF 4
ENDMDL
MODEL 6
REMARK VINA RESULT:      -7.6      4.670      6.065
REMARK  4 active torsions:
REMARK  status: ('A' for Active; 'I' for Inactive)
REMARK    1  A    between atoms: C3_3  and  O1_4 
REMARK    2  A    between atoms: O1_4  and  N1_5 
REMARK    3  A    between atoms: C8_13  and  N4_14 
REMARK    4  A    between atoms: N4_14  and  C9_15 
ROOT
HETATM    1  C1  UNL     1      26.868   3.875  49.346  1.00  0.00     0.052 C 
HETATM    2  C2  UNL     1      25.813   4.694  49.991  1.00  0.00    -0.010 A 
HETATM    3  C3  UNL     1      25.659   6.056  49.692  1.00  0.00     0.100 A 
HETATM    4  C4  UNL     1      24.712   6.897  50.236  1.00  0.00     0.041 A 
HETATM    5  C5  UNL     1      23.834   6.387  51.149  1.00  0.00     0.035 A 
HETATM    6  C6  UNL     1      23.940   5.054  51.480  1.00  0.00     0.072 A 
HETATM    7  N2  UNL     1      23.101   4.522  52.371  1.00  0.00    -0.241 NA
HETATM    8  C7  UNL     1      23.134   3.251  52.750  1.00  0.00     0.236 A 
HETATM    9  N3  UNL     1      24.071   2.471  52.195  1.00  0.00    -0.223 NA
HETATM   10  C8  UNL     1      24.943   2.936  51.296  1.00  0.00     0.142 A 
HETATM   11  C15 UNL     1      24.897   4.252  50.914  1.00  0.00     0.047 A 
ENDROOT
BRANCH  10  12
HETATM   12  N4  UNL     1      25.892   2.003  50.788  1.00  0.00    -0.340 N 
HETATM   13  H8  UNL     1      26.421   1.412  50.135  1.00  0.00     0.167 HD
BRANCH  12  14
HETATM   14  C9  UNL     1      26.744   1.421  51.809  1.00  0.00     0.035 A 
HETATM   15  C10 UNL     1      26.510   0.039  51.910  1.00  0.00     0.029 A 
HETATM   16  C11 UNL     1      27.198  -0.729  52.859  1.00  0.00     0.004 A 
HETATM   17  C12 UNL     1      28.115  -0.150  53.710  1.00  0.00     0.024 A 
HETATM   18  C13 UNL     1      28.359   1.199  53.628  1.00  0.00     0.036 A 
HETATM   19 CL1  UNL     1      29.465   2.135  54.594  1.00  0.00    -0.084 Cl
HETATM   20  C14 UNL     1      27.675   1.928  52.693  1.00  0.00     0.053 A 
ENDBRANCH  12  14
ENDBRANCH  10  12
BRANCH   3  21
HETATM   21  O1  UNL     1      26.530   6.623  48.767  1.00  0.00    -0.253 OA
BRANCH  21  22
HETATM   22  N1  UNL     1      27.682   7.234  49.120  1.00  0.00    -0.129 NA
HETATM   23 BR1  UNL     1      29.005   6.701  47.870  1.00  0.00     0.038 Br
HETATM   24  H4  UNL     1      27.616   8.253  49.241  1.00  0.00     0.169 HD
ENDBRANCH  21  22
ENDBRANCH   3  21
TORSDOF 4
ENDMDL
MODEL 7
REMARK VINA RESULT:      -7.4      4.717      6.177
REMARK  4 active torsions:
REMARK  status: ('A' for Active; 'I' for Inactive)
REMARK    1  A    between atoms: C3_3  and  O1_4 
REMARK    2  A    between atoms: O1_4  and  N1_5 
REMARK    3  A    between atoms: C8_13  and  N4_14 
REMARK    4  A    between atoms: N4_14  and  C9_15 
ROOT
HETATM    1  C1  UNL     1      26.235   2.207  53.415  1.00  0.00     0.052 C 
HETATM    2  C2  UNL     1      25.069   1.291  53.392  1.00  0.00    -0.010 A 
HETATM    3  C3  UNL     1      25.184  -0.051  53.782  1.00  0.00     0.100 A 
HETATM    4  C4  UNL     1      24.163  -0.976  53.794  1.00  0.00     0.041 A 
HETATM    5  C5  UNL     1      22.918  -0.579  53.397  1.00  0.00     0.035 A 
HETATM    6  C6  UNL     1      22.747   0.730  53.005  1.00  0.00     0.072 A 
HETATM    7  N2  UNL     1      21.545   1.153  52.607  1.00  0.00    -0.241 NA
HETATM    8  C7  UNL     1      21.292   2.393  52.209  1.00  0.00     0.236 A 
HETATM    9  N3  UNL     1      22.316   3.257  52.213  1.00  0.00    -0.223 NA
HETATM   10  C8  UNL     1      23.545   2.904  52.598  1.00  0.00     0.142 A 
HETATM   11  C15 UNL     1      23.791   1.618  53.007  1.00  0.00     0.047 A 
ENDROOT
BRANCH  10  12
HETATM   12  N4  UNL     1      24.544   3.917  52.549  1.00  0.00    -0.340 N 
HETATM   13  H8  UNL     1      25.345   4.507  52.806  1.00  0.00     0.167 HD
BRANCH  12  14
HETATM   14  C9  UNL     1      24.466   4.759  51.369  1.00  0.00     0.035 A 
HETATM   15  C10 UNL     1      25.174   4.176  50.305  1.00  0.00     0.029 A 
HETATM   16  C11 UNL     1      25.265   4.832  49.070  1.00  0.00     0.004 A 
HETATM   17  C12 UNL     1      24.666   6.057  48.872  1.00  0.00     0.024 A 
HETATM   18  C13 UNL     1      23.968   6.646  49.898  1.00  0.00     0.036 A 
HETATM   19 CL1  UNL     1      23.138   8.176  49.874  1.00  0.00    -0.084 Cl
HETATM   20  C14 UNL     1      23.893   5.986  51.095  1.00  0.00     0.053 A 
ENDBRANCH  12  14
ENDBRANCH  10  12
BRANCH   3  21
HETATM   21  O1  UNL     1      26.433  -0.505  54.194  1.00  0.00    -0.253 OA
BRANCH  21  22
HETATM   22  N1  UNL     1      27.185  -1.357  53.464  1.00  0.00    -0.129 NA
HETATM   23 BR1  UNL     1      28.981  -0.758  53.574  1.00  0.00     0.038 Br
HETATM   24  H4  UNL     1      27.067  -2.352  53.697  1.00  0.00     0.169 HD
ENDBRANCH  21  22
ENDBRANCH   3  21
TORSDOF 4
ENDMDL
MODEL 8
REMARK VINA RESULT:      -7.4      4.141      6.256
REMARK  4 active torsions:
REMARK  status: ('A' for Active; 'I' for Inactive)
REMARK    1  A    between atoms: C3_3  and  O1_4 
REMARK    2  A    between atoms: O1_4  and  N1_5 
REMARK    3  A    between atoms: C8_13  and  N4_14 
REMARK    4  A    between atoms: N4_14  and  C9_15 
ROOT
HETATM    1  C1  UNL     1      25.214   1.244  52.429  1.00  0.00     0.052 C 
HETATM    2  C2  UNL     1      24.087   0.617  53.163  1.00  0.00    -0.010 A 
HETATM    3  C3  UNL     1      24.295  -0.447  54.052  1.00  0.00     0.100 A 
HETATM    4  C4  UNL     1      23.317  -1.092  54.777  1.00  0.00     0.041 A 
HETATM    5  C5  UNL     1      22.022  -0.680  54.637  1.00  0.00     0.035 A 
HETATM    6  C6  UNL     1      21.761   0.363  53.777  1.00  0.00     0.072 A 
HETATM    7  N2  UNL     1      20.507   0.790  53.612  1.00  0.00    -0.241 NA
HETATM    8  C7  UNL     1      20.165   1.784  52.802  1.00  0.00     0.236 A 
HETATM    9  N3  UNL     1      21.150   2.381  52.117  1.00  0.00    -0.223 NA
HETATM   10  C8  UNL     1      22.426   2.006  52.233  1.00  0.00     0.142 A 
HETATM   11  C15 UNL     1      22.765   0.977  53.074  1.00  0.00     0.047 A 
ENDROOT
BRANCH  10  12
HETATM   12  N4  UNL     1      23.373   2.720  51.444  1.00  0.00    -0.340 N 
HETATM   13  H8  UNL     1      24.222   3.229  51.167  1.00  0.00     0.167 HD
BRANCH  12  14
HETATM   14  C9  UNL     1      22.945   2.944  50.076  1.00  0.00     0.035 A 
HETATM   15  C10 UNL     1      22.512   1.739  49.496  1.00  0.00     0.029 A 
HETATM   16  C11 UNL     1      22.085   1.708  48.162  1.00  0.00     0.004 A 
HETATM   17  C12 UNL     1      22.078   2.852  47.392  1.00  0.00     0.024 A 
HETATM   18  C13 UNL     1      22.496   4.040  47.939  1.00  0.00     0.036 A 
HETATM   19 CL1  UNL     1      22.572   5.596  47.160  1.00  0.00    -0.084 Cl
HETATM   20  C14 UNL     1      22.909   4.046  49.244  1.00  0.00     0.053 A 
ENDBRANCH  12  14
ENDBRANCH  10  12
BRANCH   3  21
HETATM   21  O1  UNL     1      25.597  -0.904  54.229  1.00  0.00    -0.253 OA
BRANCH  21  22
HETATM   22  N1  UNL     1      26.356  -0.571  55.296  1.00  0.00    -0.129 NA
HETATM   23 BR1  UNL     1      27.995   0.110  54.628  1.00  0.00     0.038 Br
HETATM   24  H4  UNL     1      25.900   0.047  55.980  1.00  0.00     0.169 HD
ENDBRANCH  21  22
ENDBRANCH   3  21
TORSDOF 4
ENDMDL
MODEL 9
REMARK VINA RESULT:      -7.4      6.297      8.921
REMARK  4 active torsions:
REMARK  status: ('A' for Active; 'I' for Inactive)
REMARK    1  A    between atoms: C3_3  and  O1_4 
REMARK    2  A    between atoms: O1_4  and  N1_5 
REMARK    3  A    between atoms: C8_13  and  N4_14 
REMARK    4  A    between atoms: N4_14  and  C9_15 
ROOT
HETATM    1  C1  UNL     1      26.706   3.497  49.767  1.00  0.00     0.052 C 
HETATM    2  C2  UNL     1      26.442   4.839  49.192  1.00  0.00    -0.010 A 
HETATM    3  C3  UNL     1      27.441   5.556  48.519  1.00  0.00     0.100 A 
HETATM    4  C4  UNL     1      27.293   6.804  47.954  1.00  0.00     0.041 A 
HETATM    5  C5  UNL     1      26.077   7.420  48.041  1.00  0.00     0.035 A 
HETATM    6  C6  UNL     1      25.058   6.760  48.691  1.00  0.00     0.072 A 
HETATM    7  N2  UNL     1      23.858   7.333  48.799  1.00  0.00    -0.241 NA
HETATM    8  C7  UNL     1      22.823   6.771  49.411  1.00  0.00     0.236 A 
HETATM    9  N3  UNL     1      23.014   5.558  49.946  1.00  0.00    -0.223 NA
HETATM   10  C8  UNL     1      24.188   4.925  49.876  1.00  0.00     0.142 A 
HETATM   11  C15 UNL     1      25.249   5.518  49.240  1.00  0.00     0.047 A 
ENDROOT
BRANCH  10  12
HETATM   12  N4  UNL     1      24.259   3.643  50.491  1.00  0.00    -0.340 N 
HETATM   13  H8  UNL     1      24.575   2.862  51.080  1.00  0.00     0.167 HD
BRANCH  12  14
HETATM   14  C9  UNL     1      23.223   2.725  50.052  1.00  0.00     0.035 A 
HETATM   15  C10 UNL     1      23.189   2.662  48.649  1.00  0.00     0.029 A 
HETATM   16  C11 UNL     1      22.241   1.863  47.998  1.00  0.00     0.004 A 
HETATM   17  C12 UNL     1      21.324   1.124  48.715  1.00  0.00     0.024 A 
HETATM   18  C13 UNL     1      21.339   1.170  50.087  1.00  0.00     0.036 A 
HETATM   19 CL1  UNL     1      20.285   0.327  51.187  1.00  0.00    -0.084 Cl
HETATM   20  C14 UNL     1      22.275   1.958  50.701  1.00  0.00     0.053 A 
ENDBRANCH  12  14
ENDBRANCH  10  12
BRANCH   3  21
HETATM   21  O1  UNL     1      28.698   4.971  48.404  1.00  0.00    -0.253 OA
BRANCH  21  22
HETATM   22  N1  UNL     1      29.787   5.433  49.057  1.00  0.00    -0.129 NA
HETATM   23 BR1  UNL     1      31.131   5.744  47.755  1.00  0.00     0.038 Br
HETATM   24  H4  UNL     1      29.617   6.238  49.674  1.00  0.00     0.169 HD
ENDBRANCH  21  22
ENDBRANCH   3  21
TORSDOF 4
ENDMDL
