MODEL 1
REMARK VINA RESULT:      -7.1      0.000      0.000
REMARK  4 active torsions:
REMARK  status: ('A' for Active; 'I' for Inactive)
REMARK    1  A    between atoms: C2_2  and  C3_3 
REMARK    2  A    between atoms: C4_4  and  O1_5 
REMARK    3  A    between atoms: O1_5  and  C5_6 
REMARK       I    between atoms: C5_6  and  N1_8 
REMARK    4  A    between atoms: N2_9  and  C6_10 
ROOT
HETATM    1  C6  UNL     1      23.596   3.605  51.502  1.00  0.00     0.078 C 
HETATM    2  C7  UNL     1      23.665   3.157  52.789  1.00  0.00     0.121 C 
HETATM    3  C8  UNL     1      24.520   2.171  53.527  1.00  0.00     0.009 C 
HETATM    4  C9  UNL     1      25.498   1.333  53.057  1.00  0.00     0.039 C 
HETATM    5  C10 UNL     1      26.340   0.715  51.998  1.00  0.00     0.137 C 
HETATM    6  C11 UNL     1      26.786   1.962  51.300  1.00  0.00     0.111 C 
HETATM    7  N3  UNL     1      27.642   2.518  52.015  1.00  0.00    -0.228 NA
HETATM    8  C12 UNL     1      27.650   2.195  53.472  1.00  0.00     0.235 C 
HETATM    9  N4  UNL     1      26.678   1.279  53.980  1.00  0.00    -0.246 NA
HETATM   10  N5  UNL     1      26.460   2.595  50.083  1.00  0.00    -0.347 N 
HETATM   11  C13 UNL     1      25.493   3.623  49.987  1.00  0.00     0.017 A 
HETATM   12  C14 UNL     1      25.019   4.863  49.836  1.00  0.00     0.012 A 
HETATM   13  C15 UNL     1      24.012   3.767  50.042  1.00  0.00     0.087 A 
HETATM   14  H13 UNL     1      27.082   2.119  49.404  1.00  0.00     0.167 HD
ENDROOT
BRANCH   1  15
HETATM   15  N2  UNL     1      22.495   4.465  51.872  1.00  0.00    -0.180 NA
HETATM   16  N1  UNL     1      21.308   4.136  51.960  1.00  0.00    -0.088 NA
HETATM   17  C5  UNL     1      20.756   2.875  51.726  1.00  0.00     0.409 C 
HETATM   18  O2  UNL     1      20.071   3.289  52.707  1.00  0.00    -0.234 OA
BRANCH  17  19
HETATM   19  O1  UNL     1      20.183   1.638  51.530  1.00  0.00    -0.271 OA
BRANCH  19  20
HETATM   20  C4  UNL     1      20.558   0.513  52.285  1.00  0.00     0.143 C 
HETATM   21  C3  UNL     1      21.758  -0.004  52.560  1.00  0.00    -0.002 C 
BRANCH  21  22
HETATM   22  C2  UNL     1      22.022  -1.223  53.387  1.00  0.00     0.024 C 
HETATM   23  C1  UNL     1      22.061  -0.876  54.857  1.00  0.00     0.009 C 
ENDBRANCH  21  22
ENDBRANCH  19  20
ENDBRANCH  17  19
ENDBRANCH   1  15
TORSDOF 4
ENDMDL
MODEL 2
REMARK VINA RESULT:      -7.0      2.155      3.570
REMARK  4 active torsions:
REMARK  status: ('A' for Active; 'I' for Inactive)
REMARK    1  A    between atoms: C2_2  and  C3_3 
REMARK    2  A    between atoms: C4_4  and  O1_5 
REMARK    3  A    between atoms: O1_5  and  C5_6 
REMARK       I    between atoms: C5_6  and  N1_8 
REMARK    4  A    between atoms: N2_9  and  C6_10 
ROOT
HETATM    1  C6  UNL     1      23.236   1.153  52.958  1.00  0.00     0.078 C 
HETATM    2  C7  UNL     1      23.592   0.033  53.651  1.00  0.00     0.121 C 
HETATM    3  C8  UNL     1      24.857  -0.754  53.823  1.00  0.00     0.009 C 
HETATM    4  C9  UNL     1      26.081  -0.588  53.228  1.00  0.00     0.039 C 
HETATM    5  C10 UNL     1      27.044   0.059  52.297  1.00  0.00     0.137 C 
HETATM    6  C11 UNL     1      26.803   1.488  52.672  1.00  0.00     0.111 C 
HETATM    7  N3  UNL     1      27.341   1.692  53.777  1.00  0.00    -0.228 NA
HETATM    8  C12 UNL     1      27.596   0.513  54.656  1.00  0.00     0.235 C 
HETATM    9  N4  UNL     1      27.205  -0.783  54.201  1.00  0.00    -0.246 NA
HETATM   10  N5  UNL     1      26.138   2.579  52.073  1.00  0.00    -0.347 N 
HETATM   11  C13 UNL     1      24.798   2.917  52.370  1.00  0.00     0.017 A 
HETATM   12  C14 UNL     1      23.787   3.617  52.893  1.00  0.00     0.012 A 
HETATM   13  C15 UNL     1      23.430   2.396  52.093  1.00  0.00     0.087 A 
HETATM   14  H13 UNL     1      26.865   2.974  51.449  1.00  0.00     0.167 HD
ENDROOT
BRANCH   1  15
HETATM   15  N2  UNL     1      21.887   1.021  53.458  1.00  0.00    -0.180 NA
HETATM   16  N1  UNL     1      20.872   0.825  52.781  1.00  0.00    -0.088 NA
HETATM   17  C5  UNL     1      20.788   0.688  51.395  1.00  0.00     0.409 C 
HETATM   18  O2  UNL     1      19.928  -0.150  51.799  1.00  0.00    -0.234 OA
BRANCH  17  19
HETATM   19  O1  UNL     1      20.674   0.520  50.032  1.00  0.00    -0.271 OA
BRANCH  19  20
HETATM   20  C4  UNL     1      21.009   1.538  49.123  1.00  0.00     0.143 C 
HETATM   21  C3  UNL     1      22.012   1.645  48.249  1.00  0.00    -0.002 C 
BRANCH  21  22
HETATM   22  C2  UNL     1      22.257   2.800  47.328  1.00  0.00     0.024 C 
HETATM   23  C1  UNL     1      22.624   4.039  48.109  1.00  0.00     0.009 C 
ENDBRANCH  21  22
ENDBRANCH  19  20
ENDBRANCH  17  19
ENDBRANCH   1  15
TORSDOF 4
ENDMDL
MODEL 3
REMARK VINA RESULT:      -6.7      2.574      4.347
REMARK  4 active torsions:
REMARK  status: ('A' for Active; 'I' for Inactive)
REMARK    1  A    between atoms: C2_2  and  C3_3 
REMARK    2  A    between atoms: C4_4  and  O1_5 
REMARK    3  A    between atoms: O1_5  and  C5_6 
REMARK       I    between atoms: C5_6  and  N1_8 
REMARK    4  A    between atoms: N2_9  and  C6_10 
ROOT
HETATM    1  C6  UNL     1      21.492   1.798  51.497  1.00  0.00     0.078 C 
HETATM    2  C7  UNL     1      21.841   2.865  52.274  1.00  0.00     0.121 C 
HETATM    3  C8  UNL     1      22.864   3.957  52.183  1.00  0.00     0.009 C 
HETATM    4  C9  UNL     1      23.853   4.157  51.255  1.00  0.00     0.039 C 
HETATM    5  C10 UNL     1      24.656   3.807  50.052  1.00  0.00     0.137 C 
HETATM    6  C11 UNL     1      23.535   3.530  49.100  1.00  0.00     0.111 C 
HETATM    7  N3  UNL     1      23.035   4.622  48.765  1.00  0.00    -0.228 NA
HETATM    8  C12 UNL     1      23.239   5.789  49.673  1.00  0.00     0.235 C 
HETATM    9  N4  UNL     1      23.981   5.602  50.879  1.00  0.00    -0.246 NA
HETATM   10  N5  UNL     1      22.965   2.367  48.540  1.00  0.00    -0.347 N 
HETATM   11  C13 UNL     1      21.835   1.723  49.095  1.00  0.00     0.017 A 
HETATM   12  C14 UNL     1      20.561   1.332  49.196  1.00  0.00     0.012 A 
HETATM   13  C15 UNL     1      21.502   0.880  50.277  1.00  0.00     0.087 A 
HETATM   14  H13 UNL     1      23.569   2.191  47.717  1.00  0.00     0.167 HD
ENDROOT
BRANCH   1  15
HETATM   15  N2  UNL     1      20.474   1.444  52.459  1.00  0.00    -0.180 NA
HETATM   16  N1  UNL     1      20.590   0.629  53.381  1.00  0.00    -0.088 NA
HETATM   17  C5  UNL     1      21.714  -0.131  53.705  1.00  0.00     0.409 C 
HETATM   18  O2  UNL     1      21.246   0.155  54.847  1.00  0.00    -0.234 OA
BRANCH  17  19
HETATM   19  O1  UNL     1      22.814  -0.876  54.071  1.00  0.00    -0.271 OA
BRANCH  19  20
HETATM   20  C4  UNL     1      24.116  -0.534  53.665  1.00  0.00     0.143 C 
HETATM   21  C3  UNL     1      24.561   0.410  52.833  1.00  0.00    -0.002 C 
BRANCH  21  22
HETATM   22  C2  UNL     1      25.993   0.670  52.483  1.00  0.00     0.024 C 
HETATM   23  C1  UNL     1      26.741  -0.627  52.286  1.00  0.00     0.009 C 
ENDBRANCH  21  22
ENDBRANCH  19  20
ENDBRANCH  17  19
ENDBRANCH   1  15
TORSDOF 4
ENDMDL
MODEL 4
REMARK VINA RESULT:      -6.6      1.669      2.120
REMARK  4 active torsions:
REMARK  status: ('A' for Active; 'I' for Inactive)
REMARK    1  A    between atoms: C2_2  and  C3_3 
REMARK    2  A    between atoms: C4_4  and  O1_5 
REMARK    3  A    between atoms: O1_5  and  C5_6 
REMARK       I    between atoms: C5_6  and  N1_8 
REMARK    4  A    between atoms: N2_9  and  C6_10 
ROOT
HETATM    1  C6  UNL     1      24.114   4.679  50.738  1.00  0.00     0.078 C 
HETATM    2  C7  UNL     1      23.831   4.395  52.042  1.00  0.00     0.121 C 
HETATM    3  C8  UNL     1      24.172   3.280  52.986  1.00  0.00     0.009 C 
HETATM    4  C9  UNL     1      24.858   2.115  52.755  1.00  0.00     0.039 C 
HETATM    5  C10 UNL     1      25.581   1.128  51.909  1.00  0.00     0.137 C 
HETATM    6  C11 UNL     1      26.529   2.063  51.225  1.00  0.00     0.111 C 
HETATM    7  N3  UNL     1      27.409   2.388  52.046  1.00  0.00    -0.228 NA
HETATM    8  C12 UNL     1      27.088   2.262  53.497  1.00  0.00     0.235 C 
HETATM    9  N4  UNL     1      25.795   1.788  53.879  1.00  0.00    -0.246 NA
HETATM   10  N5  UNL     1      26.628   2.614  49.930  1.00  0.00    -0.347 N 
HETATM   11  C13 UNL     1      26.102   3.883  49.594  1.00  0.00     0.017 A 
HETATM   12  C14 UNL     1      26.115   5.182  49.281  1.00  0.00     0.012 A 
HETATM   13  C15 UNL     1      24.772   4.514  49.370  1.00  0.00     0.087 A 
HETATM   14  H13 UNL     1      27.139   1.880  49.407  1.00  0.00     0.167 HD
ENDROOT
BRANCH   1  15
HETATM   15  N2  UNL     1      23.337   5.893  50.846  1.00  0.00    -0.180 NA
HETATM   16  N1  UNL     1      22.158   6.039  50.507  1.00  0.00    -0.088 NA
HETATM   17  C5  UNL     1      21.310   5.082  49.947  1.00  0.00     0.409 C 
HETATM   18  O2  UNL     1      20.524   5.725  50.704  1.00  0.00    -0.234 OA
BRANCH  17  19
HETATM   19  O1  UNL     1      20.438   4.154  49.420  1.00  0.00    -0.271 OA
BRANCH  19  20
HETATM   20  C4  UNL     1      20.516   2.788  49.742  1.00  0.00     0.143 C 
HETATM   21  C3  UNL     1      21.565   1.993  49.964  1.00  0.00    -0.002 C 
BRANCH  21  22
HETATM   22  C2  UNL     1      21.508   0.536  50.302  1.00  0.00     0.024 C 
HETATM   23  C1  UNL     1      21.648   0.325  51.791  1.00  0.00     0.009 C 
ENDBRANCH  21  22
ENDBRANCH  19  20
ENDBRANCH  17  19
ENDBRANCH   1  15
TORSDOF 4
ENDMDL
MODEL 5
REMARK VINA RESULT:      -6.3      2.663      4.935
REMARK  4 active torsions:
REMARK  status: ('A' for Active; 'I' for Inactive)
REMARK    1  A    between atoms: C2_2  and  C3_3 
REMARK    2  A    between atoms: C4_4  and  O1_5 
REMARK    3  A    between atoms: O1_5  and  C5_6 
REMARK       I    between atoms: C5_6  and  N1_8 
REMARK    4  A    between atoms: N2_9  and  C6_10 
ROOT
HETATM    1  C6  UNL     1      23.511   3.502  52.418  1.00  0.00     0.078 C 
HETATM    2  C7  UNL     1      22.155   3.657  52.421  1.00  0.00     0.121 C 
HETATM    3  C8  UNL     1      20.979   2.735  52.300  1.00  0.00     0.009 C 
HETATM    4  C9  UNL     1      20.944   1.385  52.064  1.00  0.00     0.039 C 
HETATM    5  C10 UNL     1      21.549   0.056  51.780  1.00  0.00     0.137 C 
HETATM    6  C11 UNL     1      22.603   0.051  52.844  1.00  0.00     0.111 C 
HETATM    7  N3  UNL     1      22.044  -0.152  53.939  1.00  0.00    -0.228 NA
HETATM    8  C12 UNL     1      20.590   0.168  54.049  1.00  0.00     0.235 C 
HETATM    9  N4  UNL     1      19.913   0.698  52.908  1.00  0.00    -0.246 NA
HETATM   10  N5  UNL     1      24.004   0.216  52.861  1.00  0.00    -0.347 N 
HETATM   11  C13 UNL     1      24.626   1.460  53.112  1.00  0.00     0.017 A 
HETATM   12  C14 UNL     1      25.311   2.384  53.793  1.00  0.00     0.012 A 
HETATM   13  C15 UNL     1      24.844   2.758  52.415  1.00  0.00     0.087 A 
HETATM   14  H13 UNL     1      24.349  -0.741  52.661  1.00  0.00     0.167 HD
ENDROOT
BRANCH   1  15
HETATM   15  N2  UNL     1      23.664   4.930  52.578  1.00  0.00    -0.180 NA
HETATM   16  N1  UNL     1      23.738   5.763  51.669  1.00  0.00    -0.088 NA
HETATM   17  C5  UNL     1      23.691   5.528  50.294  1.00  0.00     0.409 C 
HETATM   18  O2  UNL     1      23.052   6.616  50.400  1.00  0.00    -0.234 OA
BRANCH  17  19
HETATM   19  O1  UNL     1      23.621   5.333  48.931  1.00  0.00    -0.271 OA
BRANCH  19  20
HETATM   20  C4  UNL     1      22.928   4.250  48.366  1.00  0.00     0.143 C 
HETATM   21  C3  UNL     1      22.947   2.945  48.650  1.00  0.00    -0.002 C 
BRANCH  21  22
HETATM   22  C2  UNL     1      22.148   1.883  47.960  1.00  0.00     0.024 C 
HETATM   23  C1  UNL     1      20.667   2.130  48.132  1.00  0.00     0.009 C 
ENDBRANCH  21  22
ENDBRANCH  19  20
ENDBRANCH  17  19
ENDBRANCH   1  15
TORSDOF 4
ENDMDL
MODEL 6
REMARK VINA RESULT:      -6.2      3.051      5.661
REMARK  4 active torsions:
REMARK  status: ('A' for Active; 'I' for Inactive)
REMARK    1  A    between atoms: C2_2  and  C3_3 
REMARK    2  A    between atoms: C4_4  and  O1_5 
REMARK    3  A    between atoms: O1_5  and  C5_6 
REMARK       I    between atoms: C5_6  and  N1_8 
REMARK    4  A    between atoms: N2_9  and  C6_10 
ROOT
HETATM    1  C6  UNL     1      23.483   3.819  50.245  1.00  0.00     0.078 C 
HETATM    2  C7  UNL     1      23.154   2.899  49.293  1.00  0.00     0.121 C 
HETATM    3  C8  UNL     1      22.164   1.776  49.198  1.00  0.00     0.009 C 
HETATM    4  C9  UNL     1      21.299   1.286  50.142  1.00  0.00     0.039 C 
HETATM    5  C10 UNL     1      20.687   1.222  51.497  1.00  0.00     0.137 C 
HETATM    6  C11 UNL     1      20.396   2.677  51.688  1.00  0.00     0.111 C 
HETATM    7  N3  UNL     1      19.414   2.970  50.978  1.00  0.00    -0.228 NA
HETATM    8  C12 UNL     1      19.110   2.090  49.812  1.00  0.00     0.235 C 
HETATM    9  N4  UNL     1      19.956   0.967  49.557  1.00  0.00    -0.246 NA
HETATM   10  N5  UNL     1      20.964   3.717  52.454  1.00  0.00    -0.347 N 
HETATM   11  C13 UNL     1      21.933   4.608  51.939  1.00  0.00     0.017 A 
HETATM   12  C14 UNL     1      22.431   5.758  51.476  1.00  0.00     0.012 A 
HETATM   13  C15 UNL     1      23.373   4.590  51.558  1.00  0.00     0.087 A 
HETATM   14  H13 UNL     1      20.492   3.609  53.370  1.00  0.00     0.167 HD
ENDROOT
BRANCH   1  15
HETATM   15  N2  UNL     1      24.489   4.359  49.359  1.00  0.00    -0.180 NA
HETATM   16  N1  UNL     1      25.708   4.175  49.437  1.00  0.00    -0.088 NA
HETATM   17  C5  UNL     1      26.393   3.414  50.386  1.00  0.00     0.409 C 
HETATM   18  O2  UNL     1      27.052   3.181  49.330  1.00  0.00    -0.234 OA
BRANCH  17  19
HETATM   19  O1  UNL     1      27.098   2.648  51.290  1.00  0.00    -0.271 OA
BRANCH  19  20
HETATM   20  C4  UNL     1      26.689   1.353  51.650  1.00  0.00     0.143 C 
HETATM   21  C3  UNL     1      26.018   0.903  52.713  1.00  0.00    -0.002 C 
BRANCH  21  22
HETATM   22  C2  UNL     1      25.644  -0.522  52.978  1.00  0.00     0.024 C 
HETATM   23  C1  UNL     1      26.756  -1.455  52.559  1.00  0.00     0.009 C 
ENDBRANCH  21  22
ENDBRANCH  19  20
ENDBRANCH  17  19
ENDBRANCH   1  15
TORSDOF 4
ENDMDL
MODEL 7
REMARK VINA RESULT:      -6.2      3.013      6.492
REMARK  4 active torsions:
REMARK  status: ('A' for Active; 'I' for Inactive)
REMARK    1  A    between atoms: C2_2  and  C3_3 
REMARK    2  A    between atoms: C4_4  and  O1_5 
REMARK    3  A    between atoms: O1_5  and  C5_6 
REMARK       I    between atoms: C5_6  and  N1_8 
REMARK    4  A    between atoms: N2_9  and  C6_10 
ROOT
HETATM    1  C6  UNL     1      23.582   2.770  52.338  1.00  0.00     0.078 C 
HETATM    2  C7  UNL     1      23.278   1.550  51.808  1.00  0.00     0.121 C 
HETATM    3  C8  UNL     1      22.096   0.967  51.093  1.00  0.00     0.009 C 
HETATM    4  C9  UNL     1      20.875   1.525  50.816  1.00  0.00     0.039 C 
HETATM    5  C10 UNL     1      19.851   2.603  50.861  1.00  0.00     0.137 C 
HETATM    6  C11 UNL     1      20.705   3.751  50.420  1.00  0.00     0.111 C 
HETATM    7  N3  UNL     1      20.902   3.636  49.194  1.00  0.00    -0.228 NA
HETATM    8  C12 UNL     1      20.753   2.281  48.589  1.00  0.00     0.235 C 
HETATM    9  N4  UNL     1      20.405   1.183  49.434  1.00  0.00    -0.246 NA
HETATM   10  N5  UNL     1      21.294   4.861  51.061  1.00  0.00    -0.347 N 
HETATM   11  C13 UNL     1      22.624   4.854  51.541  1.00  0.00     0.017 A 
HETATM   12  C14 UNL     1      23.926   5.154  51.577  1.00  0.00     0.012 A 
HETATM   13  C15 UNL     1      23.402   4.252  52.659  1.00  0.00     0.087 A 
HETATM   14  H13 UNL     1      20.530   5.562  51.051  1.00  0.00     0.167 HD
ENDROOT
BRANCH   1  15
HETATM   15  N2  UNL     1      24.866   2.256  52.756  1.00  0.00    -0.180 NA
HETATM   16  N1  UNL     1      25.892   2.205  52.069  1.00  0.00    -0.088 NA
HETATM   17  C5  UNL     1      26.051   2.623  50.747  1.00  0.00     0.409 C 
HETATM   18  O2  UNL     1      27.159   2.949  51.265  1.00  0.00    -0.234 OA
BRANCH  17  19
HETATM   19  O1  UNL     1      26.249   3.051  49.452  1.00  0.00    -0.271 OA
BRANCH  19  20
HETATM   20  C4  UNL     1      27.050   4.165  49.148  1.00  0.00     0.143 C 
HETATM   21  C3  UNL     1      26.732   5.388  48.718  1.00  0.00    -0.002 C 
BRANCH  21  22
HETATM   22  C2  UNL     1      27.696   6.497  48.428  1.00  0.00     0.024 C 
HETATM   23  C1  UNL     1      29.078   5.949  48.161  1.00  0.00     0.009 C 
ENDBRANCH  21  22
ENDBRANCH  19  20
ENDBRANCH  17  19
ENDBRANCH   1  15
TORSDOF 4
ENDMDL
MODEL 8
REMARK VINA RESULT:      -6.1      2.759      5.477
REMARK  4 active torsions:
REMARK  status: ('A' for Active; 'I' for Inactive)
REMARK    1  A    between atoms: C2_2  and  C3_3 
REMARK    2  A    between atoms: C4_4  and  O1_5 
REMARK    3  A    between atoms: O1_5  and  C5_6 
REMARK       I    between atoms: C5_6  and  N1_8 
REMARK    4  A    between atoms: N2_9  and  C6_10 
ROOT
HETATM    1  C6  UNL     1      23.588   3.150  50.926  1.00  0.00     0.078 C 
HETATM    2  C7  UNL     1      23.537   2.802  49.607  1.00  0.00     0.121 C 
HETATM    3  C8  UNL     1      22.472   2.297  48.681  1.00  0.00     0.009 C 
HETATM    4  C9  UNL     1      21.170   1.956  48.945  1.00  0.00     0.039 C 
HETATM    5  C10 UNL     1      19.991   1.741  49.826  1.00  0.00     0.137 C 
HETATM    6  C11 UNL     1      20.014   3.045  50.562  1.00  0.00     0.111 C 
HETATM    7  N3  UNL     1      19.598   3.931  49.790  1.00  0.00    -0.228 NA
HETATM    8  C12 UNL     1      19.682   3.672  48.323  1.00  0.00     0.235 C 
HETATM    9  N4  UNL     1      20.239   2.436  47.872  1.00  0.00    -0.246 NA
HETATM   10  N5  UNL     1      20.383   3.450  51.862  1.00  0.00    -0.347 N 
HETATM   11  C13 UNL     1      21.666   3.956  52.172  1.00  0.00     0.017 A 
HETATM   12  C14 UNL     1      22.592   4.866  52.490  1.00  0.00     0.012 A 
HETATM   13  C15 UNL     1      23.058   3.447  52.327  1.00  0.00     0.087 A 
HETATM   14  H13 UNL     1      19.520   3.276  52.409  1.00  0.00     0.167 HD
ENDROOT
BRANCH   1  15
HETATM   15  N2  UNL     1      24.992   3.457  50.780  1.00  0.00    -0.180 NA
HETATM   16  N1  UNL     1      25.931   2.851  51.308  1.00  0.00    -0.088 NA
HETATM   17  C5  UNL     1      25.860   1.746  52.157  1.00  0.00     0.409 C 
HETATM   18  O2  UNL     1      26.893   1.489  51.471  1.00  0.00    -0.234 OA
BRANCH  17  19
HETATM   19  O1  UNL     1      25.826   0.637  52.975  1.00  0.00    -0.271 OA
BRANCH  19  20
HETATM   20  C4  UNL     1      24.705  -0.206  53.044  1.00  0.00     0.143 C 
HETATM   21  C3  UNL     1      23.468   0.006  53.499  1.00  0.00    -0.002 C 
BRANCH  21  22
HETATM   22  C2  UNL     1      22.353  -0.993  53.516  1.00  0.00     0.024 C 
HETATM   23  C1  UNL     1      21.464  -0.785  54.719  1.00  0.00     0.009 C 
ENDBRANCH  21  22
ENDBRANCH  19  20
ENDBRANCH  17  19
ENDBRANCH   1  15
TORSDOF 4
ENDMDL
MODEL 9
REMARK VINA RESULT:      -6.1      2.571      5.266
REMARK  4 active torsions:
REMARK  status: ('A' for Active; 'I' for Inactive)
REMARK    1  A    between atoms: C2_2  and  C3_3 
REMARK    2  A    between atoms: C4_4  and  O1_5 
REMARK    3  A    between atoms: O1_5  and  C5_6 
REMARK       I    between atoms: C5_6  and  N1_8 
REMARK    4  A    between atoms: N2_9  and  C6_10 
ROOT
HETATM    1  C6  UNL     1      22.025   3.828  52.123  1.00  0.00     0.078 C 
HETATM    2  C7  UNL     1      20.724   3.459  52.306  1.00  0.00     0.121 C 
HETATM    3  C8  UNL     1      19.990   2.153  52.379  1.00  0.00     0.009 C 
HETATM    4  C9  UNL     1      20.452   0.876  52.197  1.00  0.00     0.039 C 
HETATM    5  C10 UNL     1      21.487  -0.145  51.878  1.00  0.00     0.137 C 
HETATM    6  C11 UNL     1      22.574   0.339  52.787  1.00  0.00     0.111 C 
HETATM    7  N3  UNL     1      22.265   0.033  53.955  1.00  0.00    -0.228 NA
HETATM    8  C12 UNL     1      20.824  -0.212  54.252  1.00  0.00     0.235 C 
HETATM    9  N4  UNL     1      19.870  -0.076  53.198  1.00  0.00    -0.246 NA
HETATM   10  N5  UNL     1      23.795   1.023  52.606  1.00  0.00    -0.347 N 
HETATM   11  C13 UNL     1      23.913   2.427  52.727  1.00  0.00     0.017 A 
HETATM   12  C14 UNL     1      24.260   3.595  53.276  1.00  0.00     0.012 A 
HETATM   13  C15 UNL     1      23.532   3.647  51.962  1.00  0.00     0.087 A 
HETATM   14  H13 UNL     1      24.458   0.255  52.394  1.00  0.00     0.167 HD
ENDROOT
BRANCH   1  15
HETATM   15  N2  UNL     1      21.632   5.216  52.211  1.00  0.00    -0.180 NA
HETATM   16  N1  UNL     1      21.826   6.087  51.356  1.00  0.00    -0.088 NA
HETATM   17  C5  UNL     1      22.461   5.939  50.122  1.00  0.00     0.409 C 
HETATM   18  O2  UNL     1      21.531   6.755  49.848  1.00  0.00    -0.234 OA
BRANCH  17  19
HETATM   19  O1  UNL     1      23.057   5.822  48.885  1.00  0.00    -0.271 OA
BRANCH  19  20
HETATM   20  C4  UNL     1      24.294   5.179  48.710  1.00  0.00     0.143 C 
HETATM   21  C3  UNL     1      25.471   5.348  49.319  1.00  0.00    -0.002 C 
BRANCH  21  22
HETATM   22  C2  UNL     1      26.727   4.586  49.032  1.00  0.00     0.024 C 
HETATM   23  C1  UNL     1      26.666   3.205  49.641  1.00  0.00     0.009 C 
ENDBRANCH  21  22
ENDBRANCH  19  20
ENDBRANCH  17  19
ENDBRANCH   1  15
TORSDOF 4
ENDMDL
