MODEL 1
REMARK VINA RESULT:      -8.4      0.000      0.000
REMARK  5 active torsions:
REMARK  status: ('A' for Active; 'I' for Inactive)
REMARK    1  A    between atoms: C2_2  and  C3_4 
REMARK    2  A    between atoms: C4_5  and  C5_6 
REMARK    3  A    between atoms: C6_7  and  N1_8 
REMARK    4  A    between atoms: N1_8  and  C7_9 
REMARK    5  A    between atoms: C12_16  and  C13_17 
ROOT
HETATM    1  C7  UNL     1      23.160   3.732  52.267  1.00  0.00     0.141 A 
HETATM    2  N2  UNL     1      21.922   4.122  51.952  1.00  0.00    -0.224 NA
HETATM    3  C8  UNL     1      20.882   3.241  51.994  1.00  0.00     0.236 A 
HETATM    4  N3  UNL     1      21.139   1.974  52.360  1.00  0.00    -0.241 NA
HETATM    5  C9  UNL     1      22.361   1.514  52.690  1.00  0.00     0.072 A 
HETATM    6  C10 UNL     1      22.580   0.212  53.058  1.00  0.00     0.033 A 
HETATM    7  C11 UNL     1      23.848  -0.201  53.384  1.00  0.00     0.014 A 
HETATM    8  C12 UNL     1      24.883   0.721  53.331  1.00  0.00    -0.022 A 
HETATM    9  C17 UNL     1      24.692   2.038  52.964  1.00  0.00     0.030 A 
HETATM   10  C18 UNL     1      23.410   2.433  52.640  1.00  0.00     0.040 A 
ENDROOT
BRANCH   1  11
HETATM   11  N1  UNL     1      24.172   4.725  52.192  1.00  0.00    -0.350 N 
HETATM   12  H9  UNL     1      25.038   4.858  52.749  1.00  0.00     0.166 HD
BRANCH  11  13
HETATM   13  C6  UNL     1      24.063   5.754  51.219  1.00  0.00     0.090 C 
HETATM   14  C5  UNL     1      24.668   5.708  50.046  1.00  0.00     0.017 C 
BRANCH  14  15
HETATM   15  C4  UNL     1      25.495   4.564  49.701  1.00  0.00     0.000 C 
HETATM   16  C3  UNL     1      26.664   4.700  49.095  1.00  0.00     0.009 C 
BRANCH  16  17
HETATM   17  C2  UNL     1      27.201   6.037  48.729  1.00  0.00     0.189 C 
HETATM   18  C1  UNL     1      28.634   5.824  48.241  1.00  0.00     0.049 C 
HETATM   19  F1  UNL     1      26.444   6.600  47.693  1.00  0.00    -0.246 F 
ENDBRANCH  16  17
ENDBRANCH  14  15
ENDBRANCH  11  13
ENDBRANCH   1  11
BRANCH   8  20
HETATM   20  C13 UNL     1      26.206   0.223  53.688  1.00  0.00     0.010 A 
HETATM   21  C14 UNL     1      26.727   0.268  54.982  1.00  0.00     0.152 A 
HETATM   22  N4  UNL     1      27.960  -0.272  54.953  1.00  0.00    -0.185 NA
HETATM   23  N5  UNL     1      28.265  -0.659  53.730  1.00  0.00    -0.285 N 
HETATM   24  C15 UNL     1      29.499  -1.289  53.273  1.00  0.00     0.179 C 
HETATM   25  C16 UNL     1      27.211  -0.363  52.961  1.00  0.00     0.125 A 
ENDBRANCH   8  20
TORSDOF 5
ENDMDL
MODEL 2
REMARK VINA RESULT:      -8.4      2.735      3.514
REMARK  5 active torsions:
REMARK  status: ('A' for Active; 'I' for Inactive)
REMARK    1  A    between atoms: C2_2  and  C3_4 
REMARK    2  A    between atoms: C4_5  and  C5_6 
REMARK    3  A    between atoms: C6_7  and  N1_8 
REMARK    4  A    between atoms: N1_8  and  C7_9 
REMARK    5  A    between atoms: C12_16  and  C13_17 
ROOT
HETATM    1  C7  UNL     1      21.110   0.375  51.382  1.00  0.00     0.141 A 
HETATM    2  N2  UNL     1      19.774   0.355  51.362  1.00  0.00    -0.224 NA
HETATM    3  C8  UNL     1      19.068  -0.098  52.437  1.00  0.00     0.236 A 
HETATM    4  N3  UNL     1      19.754  -0.523  53.513  1.00  0.00    -0.241 NA
HETATM    5  C9  UNL     1      21.098  -0.532  53.599  1.00  0.00     0.072 A 
HETATM    6  C10 UNL     1      21.758  -0.974  54.715  1.00  0.00     0.033 A 
HETATM    7  C11 UNL     1      23.131  -0.959  54.747  1.00  0.00     0.014 A 
HETATM    8  C12 UNL     1      23.817  -0.491  53.636  1.00  0.00    -0.022 A 
HETATM    9  C17 UNL     1      23.178  -0.039  52.499  1.00  0.00     0.030 A 
HETATM   10  C18 UNL     1      21.799  -0.063  52.487  1.00  0.00     0.040 A 
ENDROOT
BRANCH   1  11
HETATM   11  N1  UNL     1      21.749   0.866  50.213  1.00  0.00    -0.350 N 
HETATM   12  H9  UNL     1      22.437   0.421  49.576  1.00  0.00     0.166 HD
BRANCH  11  13
HETATM   13  C6  UNL     1      21.457   2.181  49.762  1.00  0.00     0.090 C 
HETATM   14  C5  UNL     1      22.386   3.093  49.541  1.00  0.00     0.017 C 
BRANCH  14  15
HETATM   15  C4  UNL     1      23.786   2.771  49.759  1.00  0.00     0.000 C 
HETATM   16  C3  UNL     1      24.410   3.076  50.886  1.00  0.00     0.009 C 
BRANCH  16  17
HETATM   17  C2  UNL     1      23.711   3.770  52.000  1.00  0.00     0.189 C 
HETATM   18  C1  UNL     1      24.336   3.269  53.301  1.00  0.00     0.049 C 
HETATM   19  F1  UNL     1      23.900   5.156  51.906  1.00  0.00    -0.246 F 
ENDBRANCH  16  17
ENDBRANCH  14  15
ENDBRANCH  11  13
ENDBRANCH   1  11
BRANCH   8  20
HETATM   20  C13 UNL     1      25.273  -0.500  53.729  1.00  0.00     0.010 A 
HETATM   21  C14 UNL     1      26.094  -1.319  52.952  1.00  0.00     0.152 A 
HETATM   22  N4  UNL     1      27.371  -1.071  53.294  1.00  0.00    -0.185 NA
HETATM   23  N5  UNL     1      27.427  -0.150  54.236  1.00  0.00    -0.285 N 
HETATM   24  C15 UNL     1      28.613   0.401  54.880  1.00  0.00     0.179 C 
HETATM   25  C16 UNL     1      26.163   0.199  54.503  1.00  0.00     0.125 A 
ENDBRANCH   8  20
TORSDOF 5
ENDMDL
MODEL 3
REMARK VINA RESULT:      -8.3      2.622      5.758
REMARK  5 active torsions:
REMARK  status: ('A' for Active; 'I' for Inactive)
REMARK    1  A    between atoms: C2_2  and  C3_4 
REMARK    2  A    between atoms: C4_5  and  C5_6 
REMARK    3  A    between atoms: C6_7  and  N1_8 
REMARK    4  A    between atoms: N1_8  and  C7_9 
REMARK    5  A    between atoms: C12_16  and  C13_17 
ROOT
HETATM    1  C7  UNL     1      26.584   0.657  52.572  1.00  0.00     0.141 A 
HETATM    2  N2  UNL     1      27.820   0.565  53.069  1.00  0.00    -0.224 NA
HETATM    3  C8  UNL     1      28.043  -0.018  54.282  1.00  0.00     0.236 A 
HETATM    4  N3  UNL     1      26.984  -0.495  54.959  1.00  0.00    -0.241 NA
HETATM    5  C9  UNL     1      25.713  -0.435  54.517  1.00  0.00     0.072 A 
HETATM    6  C10 UNL     1      24.661  -0.934  55.241  1.00  0.00     0.033 A 
HETATM    7  C11 UNL     1      23.385  -0.845  54.740  1.00  0.00     0.014 A 
HETATM    8  C12 UNL     1      23.196  -0.245  53.504  1.00  0.00    -0.022 A 
HETATM    9  C17 UNL     1      24.236   0.265  52.754  1.00  0.00     0.030 A 
HETATM   10  C18 UNL     1      25.510   0.166  53.275  1.00  0.00     0.040 A 
ENDROOT
BRANCH   1  11
HETATM   11  N1  UNL     1      26.461   1.281  51.303  1.00  0.00    -0.350 N 
HETATM   12  H9  UNL     1      26.228   0.888  50.371  1.00  0.00     0.166 HD
BRANCH  11  13
HETATM   13  C6  UNL     1      26.674   2.682  51.195  1.00  0.00     0.090 C 
HETATM   14  C5  UNL     1      25.791   3.510  50.667  1.00  0.00     0.017 C 
BRANCH  14  15
HETATM   15  C4  UNL     1      24.529   2.999  50.161  1.00  0.00     0.000 C 
HETATM   16  C3  UNL     1      23.378   3.239  50.771  1.00  0.00     0.009 C 
BRANCH  16  17
HETATM   17  C2  UNL     1      23.311   4.048  52.016  1.00  0.00     0.189 C 
HETATM   18  C1  UNL     1      21.844   4.421  52.227  1.00  0.00     0.049 C 
HETATM   19  F1  UNL     1      23.755   3.296  53.111  1.00  0.00    -0.246 F 
ENDBRANCH  16  17
ENDBRANCH  14  15
ENDBRANCH  11  13
ENDBRANCH   1  11
BRANCH   8  20
HETATM   20  C13 UNL     1      21.820  -0.180  53.026  1.00  0.00     0.010 A 
HETATM   21  C14 UNL     1      20.727  -0.674  53.741  1.00  0.00     0.152 A 
HETATM   22  N4  UNL     1      19.618  -0.450  53.013  1.00  0.00    -0.185 NA
HETATM   23  N5  UNL     1      19.923   0.153  51.880  1.00  0.00    -0.285 N 
HETATM   24  C15 UNL     1      19.017   0.570  50.816  1.00  0.00     0.179 C 
HETATM   25  C16 UNL     1      21.251   0.319  51.882  1.00  0.00     0.125 A 
ENDBRANCH   8  20
TORSDOF 5
ENDMDL
MODEL 4
REMARK VINA RESULT:      -8.3      1.521      2.047
REMARK  5 active torsions:
REMARK  status: ('A' for Active; 'I' for Inactive)
REMARK    1  A    between atoms: C2_2  and  C3_4 
REMARK    2  A    between atoms: C4_5  and  C5_6 
REMARK    3  A    between atoms: C6_7  and  N1_8 
REMARK    4  A    between atoms: N1_8  and  C7_9 
REMARK    5  A    between atoms: C12_16  and  C13_17 
ROOT
HETATM    1  C7  UNL     1      22.056   1.023  51.826  1.00  0.00     0.141 A 
HETATM    2  N2  UNL     1      20.722   1.003  51.747  1.00  0.00    -0.224 NA
HETATM    3  C8  UNL     1      19.981   0.294  52.645  1.00  0.00     0.236 A 
HETATM    4  N3  UNL     1      20.631  -0.381  53.610  1.00  0.00    -0.241 NA
HETATM    5  C9  UNL     1      21.970  -0.404  53.747  1.00  0.00     0.072 A 
HETATM    6  C10 UNL     1      22.593  -1.107  54.746  1.00  0.00     0.033 A 
HETATM    7  C11 UNL     1      23.963  -1.094  54.838  1.00  0.00     0.014 A 
HETATM    8  C12 UNL     1      24.685  -0.362  53.907  1.00  0.00    -0.022 A 
HETATM    9  C17 UNL     1      24.085   0.355  52.891  1.00  0.00     0.030 A 
HETATM   10  C18 UNL     1      22.708   0.329  52.817  1.00  0.00     0.040 A 
ENDROOT
BRANCH   1  11
HETATM   11  N1  UNL     1      22.733   1.792  50.843  1.00  0.00    -0.350 N 
HETATM   12  H9  UNL     1      23.072   1.538  49.896  1.00  0.00     0.166 HD
BRANCH  11  13
HETATM   13  C6  UNL     1      23.042   3.152  51.116  1.00  0.00     0.090 C 
HETATM   14  C5  UNL     1      24.244   3.669  50.945  1.00  0.00     0.017 C 
BRANCH  14  15
HETATM   15  C4  UNL     1      25.330   2.837  50.457  1.00  0.00     0.000 C 
HETATM   16  C3  UNL     1      26.321   3.329  49.729  1.00  0.00     0.009 C 
BRANCH  16  17
HETATM   17  C2  UNL     1      26.379   4.770  49.367  1.00  0.00     0.189 C 
HETATM   18  C1  UNL     1      27.700   4.992  48.632  1.00  0.00     0.049 C 
HETATM   19  F1  UNL     1      25.319   5.102  48.513  1.00  0.00    -0.246 F 
ENDBRANCH  16  17
ENDBRANCH  14  15
ENDBRANCH  11  13
ENDBRANCH   1  11
BRANCH   8  20
HETATM   20  C13 UNL     1      26.136  -0.387  54.056  1.00  0.00     0.010 A 
HETATM   21  C14 UNL     1      26.812   0.172  55.141  1.00  0.00     0.152 A 
HETATM   22  N4  UNL     1      28.130  -0.030  54.959  1.00  0.00    -0.185 NA
HETATM   23  N5  UNL     1      28.345  -0.679  53.831  1.00  0.00    -0.285 N 
HETATM   24  C15 UNL     1      29.625  -1.093  53.268  1.00  0.00     0.179 C 
HETATM   25  C16 UNL     1      27.145  -0.898  53.282  1.00  0.00     0.125 A 
ENDBRANCH   8  20
TORSDOF 5
ENDMDL
MODEL 5
REMARK VINA RESULT:      -8.1      2.291      5.539
REMARK  5 active torsions:
REMARK  status: ('A' for Active; 'I' for Inactive)
REMARK    1  A    between atoms: C2_2  and  C3_4 
REMARK    2  A    between atoms: C4_5  and  C5_6 
REMARK    3  A    between atoms: C6_7  and  N1_8 
REMARK    4  A    between atoms: N1_8  and  C7_9 
REMARK    5  A    between atoms: C12_16  and  C13_17 
ROOT
HETATM    1  C7  UNL     1      26.674   2.109  52.395  1.00  0.00     0.141 A 
HETATM    2  N2  UNL     1      27.964   1.915  52.681  1.00  0.00    -0.224 NA
HETATM    3  C8  UNL     1      28.357   0.863  53.455  1.00  0.00     0.236 A 
HETATM    4  N3  UNL     1      27.409   0.031  53.920  1.00  0.00    -0.241 NA
HETATM    5  C9  UNL     1      26.093   0.168  53.672  1.00  0.00     0.072 A 
HETATM    6  C10 UNL     1      25.159  -0.705  54.167  1.00  0.00     0.033 A 
HETATM    7  C11 UNL     1      23.829  -0.516  53.880  1.00  0.00     0.014 A 
HETATM    8  C12 UNL     1      23.466   0.564  53.090  1.00  0.00    -0.022 A 
HETATM    9  C17 UNL     1      24.384   1.458  52.578  1.00  0.00     0.030 A 
HETATM   10  C18 UNL     1      25.715   1.250  52.877  1.00  0.00     0.040 A 
ENDROOT
BRANCH   1  11
HETATM   11  N1  UNL     1      26.371   3.232  51.582  1.00  0.00    -0.350 N 
HETATM   12  H9  UNL     1      26.102   4.202  51.834  1.00  0.00     0.166 HD
BRANCH  11  13
HETATM   13  C6  UNL     1      26.420   3.099  50.168  1.00  0.00     0.090 C 
HETATM   14  C5  UNL     1      25.406   3.399  49.377  1.00  0.00     0.017 C 
BRANCH  14  15
HETATM   15  C4  UNL     1      24.163   3.892  49.946  1.00  0.00     0.000 C 
HETATM   16  C3  UNL     1      22.983   3.426  49.567  1.00  0.00     0.009 C 
BRANCH  16  17
HETATM   17  C2  UNL     1      22.860   2.366  48.532  1.00  0.00     0.189 C 
HETATM   18  C1  UNL     1      21.808   1.376  49.029  1.00  0.00     0.049 C 
HETATM   19  F1  UNL     1      22.432   2.918  47.317  1.00  0.00    -0.246 F 
ENDBRANCH  16  17
ENDBRANCH  14  15
ENDBRANCH  11  13
ENDBRANCH   1  11
BRANCH   8  20
HETATM   20  C13 UNL     1      22.040   0.712  52.821  1.00  0.00     0.010 A 
HETATM   21  C14 UNL     1      21.413   1.943  52.623  1.00  0.00     0.152 A 
HETATM   22  N4  UNL     1      20.106   1.713  52.401  1.00  0.00    -0.185 NA
HETATM   23  N5  UNL     1      19.851   0.420  52.442  1.00  0.00    -0.285 N 
HETATM   24  C15 UNL     1      18.568  -0.246  52.253  1.00  0.00     0.179 C 
HETATM   25  C16 UNL     1      21.015  -0.190  52.695  1.00  0.00     0.125 A 
ENDBRANCH   8  20
TORSDOF 5
ENDMDL
MODEL 6
REMARK VINA RESULT:      -8.1      2.236      5.334
REMARK  5 active torsions:
REMARK  status: ('A' for Active; 'I' for Inactive)
REMARK    1  A    between atoms: C2_2  and  C3_4 
REMARK    2  A    between atoms: C4_5  and  C5_6 
REMARK    3  A    between atoms: C6_7  and  N1_8 
REMARK    4  A    between atoms: N1_8  and  C7_9 
REMARK    5  A    between atoms: C12_16  and  C13_17 
ROOT
HETATM    1  C7  UNL     1      25.575   0.725  52.739  1.00  0.00     0.141 A 
HETATM    2  N2  UNL     1      26.852   0.718  53.133  1.00  0.00    -0.224 NA
HETATM    3  C8  UNL     1      27.226   0.068  54.272  1.00  0.00     0.236 A 
HETATM    4  N3  UNL     1      26.275  -0.562  54.983  1.00  0.00    -0.241 NA
HETATM    5  C9  UNL     1      24.972  -0.594  54.644  1.00  0.00     0.072 A 
HETATM    6  C10 UNL     1      24.034  -1.249  55.399  1.00  0.00     0.033 A 
HETATM    7  C11 UNL     1      22.719  -1.249  55.005  1.00  0.00     0.014 A 
HETATM    8  C12 UNL     1      22.374  -0.578  53.841  1.00  0.00    -0.022 A 
HETATM    9  C17 UNL     1      23.297   0.090  53.061  1.00  0.00     0.030 A 
HETATM   10  C18 UNL     1      24.612   0.077  53.476  1.00  0.00     0.040 A 
ENDROOT
BRANCH   1  11
HETATM   11  N1  UNL     1      25.290   1.430  51.540  1.00  0.00    -0.350 N 
HETATM   12  H9  UNL     1      25.271   1.112  50.552  1.00  0.00     0.166 HD
BRANCH  11  13
HETATM   13  C6  UNL     1      24.966   2.812  51.607  1.00  0.00     0.090 C 
HETATM   14  C5  UNL     1      25.519   3.724  50.828  1.00  0.00     0.017 C 
BRANCH  14  15
HETATM   15  C4  UNL     1      26.511   3.331  49.842  1.00  0.00     0.000 C 
HETATM   16  C3  UNL     1      27.048   4.201  49.001  1.00  0.00     0.009 C 
BRANCH  16  17
HETATM   17  C2  UNL     1      26.664   5.637  49.014  1.00  0.00     0.189 C 
HETATM   18  C1  UNL     1      27.780   6.405  48.307  1.00  0.00     0.049 C 
HETATM   19  F1  UNL     1      25.464   5.827  48.317  1.00  0.00    -0.246 F 
ENDBRANCH  16  17
ENDBRANCH  14  15
ENDBRANCH  11  13
ENDBRANCH   1  11
BRANCH   8  20
HETATM   20  C13 UNL     1      20.963  -0.612  53.474  1.00  0.00     0.010 A 
HETATM   21  C14 UNL     1      20.380   0.262  52.555  1.00  0.00     0.152 A 
HETATM   22  N4  UNL     1      19.074  -0.049  52.456  1.00  0.00    -0.185 NA
HETATM   23  N5  UNL     1      18.779  -1.062  53.248  1.00  0.00    -0.285 N 
HETATM   24  C15 UNL     1      17.483  -1.703  53.435  1.00  0.00     0.179 C 
HETATM   25  C16 UNL     1      19.916  -1.407  53.865  1.00  0.00     0.125 A 
ENDBRANCH   8  20
TORSDOF 5
ENDMDL
MODEL 7
REMARK VINA RESULT:      -8.1      2.810      6.036
REMARK  5 active torsions:
REMARK  status: ('A' for Active; 'I' for Inactive)
REMARK    1  A    between atoms: C2_2  and  C3_4 
REMARK    2  A    between atoms: C4_5  and  C5_6 
REMARK    3  A    between atoms: C6_7  and  N1_8 
REMARK    4  A    between atoms: N1_8  and  C7_9 
REMARK    5  A    between atoms: C12_16  and  C13_17 
ROOT
HETATM    1  C7  UNL     1      23.553  -0.431  53.865  1.00  0.00     0.141 A 
HETATM    2  N2  UNL     1      22.745  -1.139  54.659  1.00  0.00    -0.224 NA
HETATM    3  C8  UNL     1      21.409  -0.868  54.714  1.00  0.00     0.236 A 
HETATM    4  N3  UNL     1      20.933   0.129  53.948  1.00  0.00    -0.241 NA
HETATM    5  C9  UNL     1      21.690   0.881  53.127  1.00  0.00     0.072 A 
HETATM    6  C10 UNL     1      21.163   1.889  52.362  1.00  0.00     0.033 A 
HETATM    7  C11 UNL     1      21.983   2.624  51.542  1.00  0.00     0.014 A 
HETATM    8  C12 UNL     1      23.337   2.322  51.512  1.00  0.00    -0.022 A 
HETATM    9  C17 UNL     1      23.894   1.312  52.270  1.00  0.00     0.030 A 
HETATM   10  C18 UNL     1      23.053   0.586  53.086  1.00  0.00     0.040 A 
ENDROOT
BRANCH   1  11
HETATM   11  N1  UNL     1      24.926  -0.792  53.880  1.00  0.00    -0.350 N 
HETATM   12  H9  UNL     1      25.503  -1.301  53.184  1.00  0.00     0.166 HD
BRANCH  11  13
HETATM   13  C6  UNL     1      25.724  -0.437  55.001  1.00  0.00     0.090 C 
HETATM   14  C5  UNL     1      26.845   0.255  54.900  1.00  0.00     0.017 C 
BRANCH  14  15
HETATM   15  C4  UNL     1      27.315   0.690  53.596  1.00  0.00     0.000 C 
HETATM   16  C3  UNL     1      28.456   0.260  53.082  1.00  0.00     0.009 C 
BRANCH  16  17
HETATM   17  C2  UNL     1      29.329  -0.696  53.813  1.00  0.00     0.189 C 
HETATM   18  C1  UNL     1      29.096  -2.075  53.196  1.00  0.00     0.049 C 
HETATM   19  F1  UNL     1      30.677  -0.346  53.655  1.00  0.00    -0.246 F 
ENDBRANCH  16  17
ENDBRANCH  14  15
ENDBRANCH  11  13
ENDBRANCH   1  11
BRANCH   8  20
HETATM   20  C13 UNL     1      24.156   3.137  50.622  1.00  0.00     0.010 A 
HETATM   21  C14 UNL     1      23.635   4.088  49.743  1.00  0.00     0.152 A 
HETATM   22  N4  UNL     1      24.663   4.650  49.081  1.00  0.00    -0.185 NA
HETATM   23  N5  UNL     1      25.808   4.125  49.475  1.00  0.00    -0.285 N 
HETATM   24  C15 UNL     1      27.150   4.454  49.009  1.00  0.00     0.179 C 
HETATM   25  C16 UNL     1      25.508   3.211  50.405  1.00  0.00     0.125 A 
ENDBRANCH   8  20
TORSDOF 5
ENDMDL
MODEL 8
REMARK VINA RESULT:      -8.1      1.949      2.522
REMARK  5 active torsions:
REMARK  status: ('A' for Active; 'I' for Inactive)
REMARK    1  A    between atoms: C2_2  and  C3_4 
REMARK    2  A    between atoms: C4_5  and  C5_6 
REMARK    3  A    between atoms: C6_7  and  N1_8 
REMARK    4  A    between atoms: N1_8  and  C7_9 
REMARK    5  A    between atoms: C12_16  and  C13_17 
ROOT
HETATM    1  C7  UNL     1      22.927   3.592  52.366  1.00  0.00     0.141 A 
HETATM    2  N2  UNL     1      21.665   4.020  52.280  1.00  0.00    -0.224 NA
HETATM    3  C8  UNL     1      20.623   3.162  52.474  1.00  0.00     0.236 A 
HETATM    4  N3  UNL     1      20.904   1.877  52.754  1.00  0.00    -0.241 NA
HETATM    5  C9  UNL     1      22.151   1.379  52.855  1.00  0.00     0.072 A 
HETATM    6  C10 UNL     1      22.393   0.061  53.141  1.00  0.00     0.033 A 
HETATM    7  C11 UNL     1      23.687  -0.391  53.233  1.00  0.00     0.014 A 
HETATM    8  C12 UNL     1      24.722   0.509  53.029  1.00  0.00    -0.022 A 
HETATM    9  C17 UNL     1      24.508   1.842  52.740  1.00  0.00     0.030 A 
HETATM   10  C18 UNL     1      23.201   2.275  52.653  1.00  0.00     0.040 A 
ENDROOT
BRANCH   1  11
HETATM   11  N1  UNL     1      23.938   4.564  52.148  1.00  0.00    -0.350 N 
HETATM   12  H9  UNL     1      24.838   4.732  52.637  1.00  0.00     0.166 HD
BRANCH  11  13
HETATM   13  C6  UNL     1      23.776   5.510  51.100  1.00  0.00     0.090 C 
HETATM   14  C5  UNL     1      24.134   5.275  49.851  1.00  0.00     0.017 C 
BRANCH  14  15
HETATM   15  C4  UNL     1      24.727   3.998  49.494  1.00  0.00     0.000 C 
HETATM   16  C3  UNL     1      24.005   3.000  49.006  1.00  0.00     0.009 C 
BRANCH  16  17
HETATM   17  C2  UNL     1      22.539   3.129  48.797  1.00  0.00     0.189 C 
HETATM   18  C1  UNL     1      22.276   2.876  47.313  1.00  0.00     0.049 C 
HETATM   19  F1  UNL     1      21.852   2.171  49.554  1.00  0.00    -0.246 F 
ENDBRANCH  16  17
ENDBRANCH  14  15
ENDBRANCH  11  13
ENDBRANCH   1  11
BRANCH   8  20
HETATM   20  C13 UNL     1      26.073  -0.030  53.139  1.00  0.00     0.010 A 
HETATM   21  C14 UNL     1      26.388  -1.375  52.938  1.00  0.00     0.152 A 
HETATM   22  N4  UNL     1      27.714  -1.521  53.116  1.00  0.00    -0.185 NA
HETATM   23  N5  UNL     1      28.271  -0.364  53.417  1.00  0.00    -0.285 N 
HETATM   24  C15 UNL     1      29.678  -0.091  53.685  1.00  0.00     0.179 C 
HETATM   25  C16 UNL     1      27.285   0.541  53.432  1.00  0.00     0.125 A 
ENDBRANCH   8  20
TORSDOF 5
ENDMDL
MODEL 9
REMARK VINA RESULT:      -7.9      3.149      6.096
REMARK  5 active torsions:
REMARK  status: ('A' for Active; 'I' for Inactive)
REMARK    1  A    between atoms: C2_2  and  C3_4 
REMARK    2  A    between atoms: C4_5  and  C5_6 
REMARK    3  A    between atoms: C6_7  and  N1_8 
REMARK    4  A    between atoms: N1_8  and  C7_9 
REMARK    5  A    between atoms: C12_16  and  C13_17 
ROOT
HETATM    1  C7  UNL     1      24.782  -0.520  53.683  1.00  0.00     0.141 A 
HETATM    2  N2  UNL     1      25.330  -1.037  54.786  1.00  0.00    -0.224 NA
HETATM    3  C8  UNL     1      24.546  -1.488  55.807  1.00  0.00     0.236 A 
HETATM    4  N3  UNL     1      23.212  -1.396  55.670  1.00  0.00    -0.241 NA
HETATM    5  C9  UNL     1      22.595  -0.885  54.588  1.00  0.00     0.072 A 
HETATM    6  C10 UNL     1      21.230  -0.809  54.489  1.00  0.00     0.033 A 
HETATM    7  C11 UNL     1      20.656  -0.279  53.360  1.00  0.00     0.014 A 
HETATM    8  C12 UNL     1      21.483   0.170  52.341  1.00  0.00    -0.022 A 
HETATM    9  C17 UNL     1      22.860   0.105  52.412  1.00  0.00     0.030 A 
HETATM   10  C18 UNL     1      23.416  -0.431  53.555  1.00  0.00     0.040 A 
ENDROOT
BRANCH   1  11
HETATM   11  N1  UNL     1      25.685  -0.080  52.679  1.00  0.00    -0.350 N 
HETATM   12  H9  UNL     1      25.868  -0.441  51.723  1.00  0.00     0.166 HD
BRANCH  11  13
HETATM   13  C6  UNL     1      26.520   1.040  52.939  1.00  0.00     0.090 C 
HETATM   14  C5  UNL     1      26.526   2.128  52.190  1.00  0.00     0.017 C 
BRANCH  14  15
HETATM   15  C4  UNL     1      25.649   2.219  51.035  1.00  0.00     0.000 C 
HETATM   16  C3  UNL     1      24.557   2.967  51.039  1.00  0.00     0.009 C 
BRANCH  16  17
HETATM   17  C2  UNL     1      24.161   3.761  52.232  1.00  0.00     0.189 C 
HETATM   18  C1  UNL     1      23.092   4.752  51.775  1.00  0.00     0.049 C 
HETATM   19  F1  UNL     1      23.619   2.925  53.217  1.00  0.00    -0.246 F 
ENDBRANCH  16  17
ENDBRANCH  14  15
ENDBRANCH  11  13
ENDBRANCH   1  11
BRANCH   8  20
HETATM   20  C13 UNL     1      20.815   0.722  51.168  1.00  0.00     0.010 A 
HETATM   21  C14 UNL     1      19.443   0.611  50.934  1.00  0.00     0.152 A 
HETATM   22  N4  UNL     1      19.169   1.229  49.771  1.00  0.00    -0.185 NA
HETATM   23  N5  UNL     1      20.269   1.729  49.242  1.00  0.00    -0.285 N 
HETATM   24  C15 UNL     1      20.405   2.469  47.993  1.00  0.00     0.179 C 
HETATM   25  C16 UNL     1      21.267   1.426  50.081  1.00  0.00     0.125 A 
ENDBRANCH   8  20
TORSDOF 5
ENDMDL
