MODEL 1
REMARK VINA RESULT:      -9.2      0.000      0.000
REMARK  4 active torsions:
REMARK  status: ('A' for Active; 'I' for Inactive)
REMARK    1  A    between atoms: C2_2  and  O1_3 
REMARK    2  A    between atoms: O1_3  and  C3_4 
REMARK    3  A    between atoms: C7_8  and  N1_9 
REMARK    4  A    between atoms: N1_9  and  C8_10 
ROOT
HETATM    1  C8  UNL     1      23.441   3.421  50.292  1.00  0.00     0.095 C 
HETATM    2  C9  UNL     1      23.418   4.328  51.523  1.00  0.00     0.051 C 
HETATM    3  C10 UNL     1      23.671   5.615  51.824  1.00  0.00     0.001 C 
HETATM    4  C11 UNL     1      24.083   6.972  51.347  1.00  0.00    -0.028 C 
HETATM    5  C12 UNL     1      24.301   7.292  50.082  1.00  0.00    -0.011 C 
HETATM    6  C13 UNL     1      24.351   7.027  48.657  1.00  0.00     0.128 A 
HETATM    7  C14 UNL     1      24.558   7.161  47.372  1.00  0.00     0.127 A 
HETATM    8  S1  UNL     1      25.116   8.577  48.345  1.00  0.00     0.040 S 
HETATM    9  O2  UNL     1      25.535   9.715  47.468  1.00  0.00    -0.248 OA
HETATM   10  N2  UNL     1      26.635   7.938  49.206  1.00  0.00    -0.326 N 
HETATM   11  C15 UNL     1      26.963   6.535  48.924  1.00  0.00     0.096 C 
HETATM   12  C16 UNL     1      26.826   5.202  48.865  1.00  0.00     0.014 C 
HETATM   13  C17 UNL     1      25.941   4.081  49.173  1.00  0.00    -0.018 C 
HETATM   14  C18 UNL     1      24.840   3.518  49.637  1.00  0.00     0.041 C 
HETATM   15  H16 UNL     1      27.211   8.508  49.852  1.00  0.00     0.174 HD
ENDROOT
BRANCH   1  16
HETATM   16  N1  UNL     1      23.313   2.107  50.814  1.00  0.00    -0.383 N 
HETATM   17  H8  UNL     1      23.328   1.569  49.923  1.00  0.00     0.160 HD
BRANCH  16  18
HETATM   18  C7  UNL     1      23.182   1.130  51.778  1.00  0.00     0.042 A 
HETATM   19  C6  UNL     1      24.320   0.806  52.492  1.00  0.00     0.019 A 
HETATM   20  C5  UNL     1      25.569   1.337  52.411  1.00  0.00     0.019 A 
HETATM   21  C21 UNL     1      24.208  -0.186  53.433  1.00  0.00     0.071 A 
HETATM   22  C4  UNL     1      26.637   0.956  53.166  1.00  0.00     0.038 A 
HETATM   23  C3  UNL     1      26.496  -0.057  54.120  1.00  0.00     0.070 A 
HETATM   24  C22 UNL     1      25.247  -0.625  54.237  1.00  0.00     0.069 A 
HETATM   25  N3  UNL     1      23.064  -0.819  53.665  1.00  0.00    -0.260 NA
HETATM   26  C20 UNL     1      21.947  -0.550  53.015  1.00  0.00     0.119 A 
HETATM   27  C19 UNL     1      22.037   0.428  52.080  1.00  0.00     0.049 A 
BRANCH  23  28
HETATM   28  O1  UNL     1      27.649  -0.357  54.827  1.00  0.00    -0.351 OA
BRANCH  28  29
HETATM   29  C2  UNL     1      28.898   0.126  54.406  1.00  0.00     0.171 C 
HETATM   30  C1  UNL     1      29.742  -0.908  53.709  1.00  0.00     0.034 C 
ENDBRANCH  28  29
ENDBRANCH  23  28
ENDBRANCH  16  18
ENDBRANCH   1  16
TORSDOF 4
ENDMDL
MODEL 2
REMARK VINA RESULT:      -9.1      1.502      2.537
REMARK  4 active torsions:
REMARK  status: ('A' for Active; 'I' for Inactive)
REMARK    1  A    between atoms: C2_2  and  O1_3 
REMARK    2  A    between atoms: O1_3  and  C3_4 
REMARK    3  A    between atoms: C7_8  and  N1_9 
REMARK    4  A    between atoms: N1_9  and  C8_10 
ROOT
HETATM    1  C8  UNL     1      25.314   4.549  50.185  1.00  0.00     0.095 C 
HETATM    2  C9  UNL     1      26.579   4.130  49.435  1.00  0.00     0.051 C 
HETATM    3  C10 UNL     1      27.565   4.713  48.729  1.00  0.00     0.001 C 
HETATM    4  C11 UNL     1      28.167   5.974  48.194  1.00  0.00    -0.028 C 
HETATM    5  C12 UNL     1      27.716   7.192  48.447  1.00  0.00    -0.011 C 
HETATM    6  C13 UNL     1      26.830   8.152  49.077  1.00  0.00     0.128 A 
HETATM    7  C14 UNL     1      26.235   9.272  49.400  1.00  0.00     0.127 A 
HETATM    8  S1  UNL     1      27.487   9.465  48.114  1.00  0.00     0.040 S 
HETATM    9  O2  UNL     1      27.736  10.908  47.802  1.00  0.00    -0.248 OA
HETATM   10  N2  UNL     1      26.696   8.692  46.620  1.00  0.00    -0.326 N 
HETATM   11  C15 UNL     1      25.359   8.131  46.847  1.00  0.00     0.096 C 
HETATM   12  C16 UNL     1      24.396   7.353  47.363  1.00  0.00     0.014 C 
HETATM   13  C17 UNL     1      24.114   6.277  48.312  1.00  0.00    -0.018 C 
HETATM   14  C18 UNL     1      24.425   5.376  49.225  1.00  0.00     0.041 C 
HETATM   15  H16 UNL     1      27.154   8.636  45.691  1.00  0.00     0.174 HD
ENDROOT
BRANCH   1  16
HETATM   16  N1  UNL     1      24.632   3.332  50.444  1.00  0.00    -0.383 N 
HETATM   17  H8  UNL     1      24.308   3.111  49.481  1.00  0.00     0.160 HD
BRANCH  16  18
HETATM   18  C7  UNL     1      24.147   2.282  51.196  1.00  0.00     0.042 A 
HETATM   19  C6  UNL     1      25.057   1.624  52.001  1.00  0.00     0.019 A 
HETATM   20  C5  UNL     1      26.378   1.879  52.197  1.00  0.00     0.019 A 
HETATM   21  C21 UNL     1      24.593   0.558  52.730  1.00  0.00     0.071 A 
HETATM   22  C4  UNL     1      27.201   1.175  53.023  1.00  0.00     0.038 A 
HETATM   23  C3  UNL     1      26.703   0.093  53.757  1.00  0.00     0.070 A 
HETATM   24  C22 UNL     1      25.368  -0.202  53.590  1.00  0.00     0.069 A 
HETATM   25  N3  UNL     1      23.326   0.161  52.680  1.00  0.00    -0.260 NA
HETATM   26  C20 UNL     1      22.415   0.754  51.930  1.00  0.00     0.119 A 
HETATM   27  C19 UNL     1      22.855   1.809  51.201  1.00  0.00     0.049 A 
BRANCH  23  28
HETATM   28  O1  UNL     1      27.633  -0.543  54.563  1.00  0.00    -0.351 OA
BRANCH  28  29
HETATM   29  C2  UNL     1      28.990  -0.189  54.515  1.00  0.00     0.171 C 
HETATM   30  C1  UNL     1      29.827  -1.112  53.671  1.00  0.00     0.034 C 
ENDBRANCH  28  29
ENDBRANCH  23  28
ENDBRANCH  16  18
ENDBRANCH   1  16
TORSDOF 4
ENDMDL
MODEL 3
REMARK VINA RESULT:      -8.8      1.978      2.636
REMARK  4 active torsions:
REMARK  status: ('A' for Active; 'I' for Inactive)
REMARK    1  A    between atoms: C2_2  and  O1_3 
REMARK    2  A    between atoms: O1_3  and  C3_4 
REMARK    3  A    between atoms: C7_8  and  N1_9 
REMARK    4  A    between atoms: N1_9  and  C8_10 
ROOT
HETATM    1  C8  UNL     1      25.638   4.952  49.004  1.00  0.00     0.095 C 
HETATM    2  C9  UNL     1      25.407   5.954  50.136  1.00  0.00     0.051 C 
HETATM    3  C10 UNL     1      25.691   7.241  50.408  1.00  0.00     0.001 C 
HETATM    4  C11 UNL     1      26.315   8.525  49.958  1.00  0.00    -0.028 C 
HETATM    5  C12 UNL     1      26.844   8.728  48.763  1.00  0.00    -0.011 C 
HETATM    6  C13 UNL     1      27.200   8.347  47.410  1.00  0.00     0.128 A 
HETATM    7  C14 UNL     1      27.708   8.364  46.204  1.00  0.00     0.127 A 
HETATM    8  S1  UNL     1      28.143   9.812  47.191  1.00  0.00     0.040 S 
HETATM    9  O2  UNL     1      28.847  10.846  46.369  1.00  0.00    -0.248 OA
HETATM   10  N2  UNL     1      29.363   9.143  48.424  1.00  0.00    -0.326 N 
HETATM   11  C15 UNL     1      29.628   7.704  48.315  1.00  0.00     0.096 C 
HETATM   12  C16 UNL     1      29.398   6.382  48.309  1.00  0.00     0.014 C 
HETATM   13  C17 UNL     1      28.374   5.351  48.468  1.00  0.00    -0.018 C 
HETATM   14  C18 UNL     1      27.153   4.903  48.693  1.00  0.00     0.041 C 
HETATM   15  H16 UNL     1      29.821   9.723  49.152  1.00  0.00     0.174 HD
ENDROOT
BRANCH   1  16
HETATM   16  N1  UNL     1      25.283   3.696  49.561  1.00  0.00    -0.383 N 
HETATM   17  H8  UNL     1      25.812   3.071  48.919  1.00  0.00     0.160 HD
BRANCH  16  18
HETATM   18  C7  UNL     1      24.666   2.819  50.429  1.00  0.00     0.042 A 
HETATM   19  C6  UNL     1      25.462   2.248  51.402  1.00  0.00     0.019 A 
HETATM   20  C5  UNL     1      26.782   2.446  51.664  1.00  0.00     0.019 A 
HETATM   21  C21 UNL     1      24.866   1.351  52.252  1.00  0.00     0.071 A 
HETATM   22  C4  UNL     1      27.487   1.840  52.658  1.00  0.00     0.038 A 
HETATM   23  C3  UNL     1      26.856   0.929  53.512  1.00  0.00     0.070 A 
HETATM   24  C22 UNL     1      25.518   0.697  53.284  1.00  0.00     0.069 A 
HETATM   25  N3  UNL     1      23.580   1.033  52.162  1.00  0.00    -0.260 NA
HETATM   26  C20 UNL     1      22.773   1.549  51.253  1.00  0.00     0.119 A 
HETATM   27  C19 UNL     1      23.344   2.438  50.402  1.00  0.00     0.049 A 
BRANCH  23  28
HETATM   28  O1  UNL     1      27.674   0.377  54.485  1.00  0.00    -0.351 OA
BRANCH  28  29
HETATM   29  C2  UNL     1      29.048   0.207  54.257  1.00  0.00     0.171 C 
HETATM   30  C1  UNL     1      29.396  -1.105  53.608  1.00  0.00     0.034 C 
ENDBRANCH  28  29
ENDBRANCH  23  28
ENDBRANCH  16  18
ENDBRANCH   1  16
TORSDOF 4
ENDMDL
MODEL 4
REMARK VINA RESULT:      -8.6      2.216      4.426
REMARK  4 active torsions:
REMARK  status: ('A' for Active; 'I' for Inactive)
REMARK    1  A    between atoms: C2_2  and  O1_3 
REMARK    2  A    between atoms: O1_3  and  C3_4 
REMARK    3  A    between atoms: C7_8  and  N1_9 
REMARK    4  A    between atoms: N1_9  and  C8_10 
ROOT
HETATM    1  C8  UNL     1      25.252   3.709  50.802  1.00  0.00     0.095 C 
HETATM    2  C9  UNL     1      26.476   3.569  49.895  1.00  0.00     0.051 C 
HETATM    3  C10 UNL     1      27.206   4.343  49.071  1.00  0.00     0.001 C 
HETATM    4  C11 UNL     1      27.430   5.693  48.465  1.00  0.00    -0.028 C 
HETATM    5  C12 UNL     1      26.746   6.781  48.776  1.00  0.00    -0.011 C 
HETATM    6  C13 UNL     1      25.748   7.531  49.515  1.00  0.00     0.128 A 
HETATM    7  C14 UNL     1      24.955   8.493  49.914  1.00  0.00     0.127 A 
HETATM    8  S1  UNL     1      25.960   8.932  48.479  1.00  0.00     0.040 S 
HETATM    9  O2  UNL     1      25.829  10.384  48.140  1.00  0.00    -0.248 OA
HETATM   10  N2  UNL     1      25.188   7.957  47.096  1.00  0.00    -0.326 N 
HETATM   11  C15 UNL     1      24.055   7.113  47.492  1.00  0.00     0.096 C 
HETATM   12  C16 UNL     1      23.369   6.149  48.124  1.00  0.00     0.014 C 
HETATM   13  C17 UNL     1      23.463   5.065  49.100  1.00  0.00    -0.018 C 
HETATM   14  C18 UNL     1      24.084   4.284  49.964  1.00  0.00     0.041 C 
HETATM   15  H16 UNL     1      25.528   7.982  46.117  1.00  0.00     0.174 HD
ENDROOT
BRANCH   1  16
HETATM   16  N1  UNL     1      24.906   2.376  51.144  1.00  0.00    -0.383 N 
HETATM   17  H8  UNL     1      24.507   2.066  50.234  1.00  0.00     0.160 HD
BRANCH  16  18
HETATM   18  C7  UNL     1      24.783   1.260  51.946  1.00  0.00     0.042 A 
HETATM   19  C6  UNL     1      23.508   0.943  52.375  1.00  0.00     0.019 A 
HETATM   20  C5  UNL     1      22.327   1.554  52.094  1.00  0.00     0.019 A 
HETATM   21  C21 UNL     1      23.377  -0.146  53.198  1.00  0.00     0.071 A 
HETATM   22  C4  UNL     1      21.108   1.163  52.559  1.00  0.00     0.038 A 
HETATM   23  C3  UNL     1      21.001   0.048  53.397  1.00  0.00     0.070 A 
HETATM   24  C22 UNL     1      22.174  -0.603  53.708  1.00  0.00     0.069 A 
HETATM   25  N3  UNL     1      24.417  -0.879  53.577  1.00  0.00    -0.260 NA
HETATM   26  C20 UNL     1      25.656  -0.623  53.197  1.00  0.00     0.119 A 
HETATM   27  C19 UNL     1      25.807   0.451  52.383  1.00  0.00     0.049 A 
BRANCH  23  28
HETATM   28  O1  UNL     1      19.712  -0.254  53.805  1.00  0.00    -0.351 OA
BRANCH  28  29
HETATM   29  C2  UNL     1      18.753  -0.705  52.885  1.00  0.00     0.171 C 
HETATM   30  C1  UNL     1      17.941  -1.872  53.381  1.00  0.00     0.034 C 
ENDBRANCH  28  29
ENDBRANCH  23  28
ENDBRANCH  16  18
ENDBRANCH   1  16
TORSDOF 4
ENDMDL
MODEL 5
REMARK VINA RESULT:      -8.5      4.828      8.151
REMARK  4 active torsions:
REMARK  status: ('A' for Active; 'I' for Inactive)
REMARK    1  A    between atoms: C2_2  and  O1_3 
REMARK    2  A    between atoms: O1_3  and  C3_4 
REMARK    3  A    between atoms: C7_8  and  N1_9 
REMARK    4  A    between atoms: N1_9  and  C8_10 
ROOT
HETATM    1  C8  UNL     1      22.657   1.249  51.724  1.00  0.00     0.095 C 
HETATM    2  C9  UNL     1      23.249   2.526  52.322  1.00  0.00     0.051 C 
HETATM    3  C10 UNL     1      24.385   2.914  52.931  1.00  0.00     0.001 C 
HETATM    4  C11 UNL     1      25.747   2.545  53.430  1.00  0.00    -0.028 C 
HETATM    5  C12 UNL     1      26.318   1.365  53.258  1.00  0.00    -0.011 C 
HETATM    6  C13 UNL     1      26.385   0.006  52.753  1.00  0.00     0.128 A 
HETATM    7  C14 UNL     1      26.784  -1.219  52.525  1.00  0.00     0.127 A 
HETATM    8  S1  UNL     1      27.847  -0.316  53.672  1.00  0.00     0.040 S 
HETATM    9  O2  UNL     1      29.089  -1.087  53.993  1.00  0.00    -0.248 OA
HETATM   10  N2  UNL     1      26.826  -0.220  55.223  1.00  0.00    -0.326 N 
HETATM   11  C15 UNL     1      25.495  -0.832  55.128  1.00  0.00     0.096 C 
HETATM   12  C16 UNL     1      24.243  -1.052  54.700  1.00  0.00     0.014 C 
HETATM   13  C17 UNL     1      23.212  -0.617  53.760  1.00  0.00    -0.018 C 
HETATM   14  C18 UNL     1      22.712   0.134  52.796  1.00  0.00     0.041 C 
HETATM   15  H16 UNL     1      27.147   0.241  56.095  1.00  0.00     0.174 HD
ENDROOT
BRANCH   1  16
HETATM   16  N1  UNL     1      21.288   1.557  51.509  1.00  0.00    -0.383 N 
HETATM   17  H8  UNL     1      21.182   2.339  52.187  1.00  0.00     0.160 HD
BRANCH  16  18
HETATM   18  C7  UNL     1      20.032   1.443  50.951  1.00  0.00     0.042 A 
HETATM   19  C6  UNL     1      19.190   0.499  51.507  1.00  0.00     0.019 A 
HETATM   20  C5  UNL     1      19.401  -0.329  52.564  1.00  0.00     0.019 A 
HETATM   21  C21 UNL     1      17.949   0.355  50.940  1.00  0.00     0.071 A 
HETATM   22  C4  UNL     1      18.502  -1.230  53.050  1.00  0.00     0.038 A 
HETATM   23  C3  UNL     1      17.242  -1.356  52.455  1.00  0.00     0.070 A 
HETATM   24  C22 UNL     1      16.984  -0.536  51.379  1.00  0.00     0.069 A 
HETATM   25  N3  UNL     1      17.553   1.084  49.902  1.00  0.00    -0.260 NA
HETATM   26  C20 UNL     1      18.316   2.000  49.333  1.00  0.00     0.119 A 
HETATM   27  C19 UNL     1      19.547   2.156  49.878  1.00  0.00     0.049 A 
BRANCH  23  28
HETATM   28  O1  UNL     1      16.414  -2.302  53.036  1.00  0.00    -0.351 OA
BRANCH  28  29
HETATM   29  C2  UNL     1      16.941  -3.486  53.574  1.00  0.00     0.171 C 
HETATM   30  C1  UNL     1      16.181  -4.723  53.176  1.00  0.00     0.034 C 
ENDBRANCH  28  29
ENDBRANCH  23  28
ENDBRANCH  16  18
ENDBRANCH   1  16
TORSDOF 4
ENDMDL
MODEL 6
REMARK VINA RESULT:      -8.4      4.793      6.028
REMARK  4 active torsions:
REMARK  status: ('A' for Active; 'I' for Inactive)
REMARK    1  A    between atoms: C2_2  and  O1_3 
REMARK    2  A    between atoms: O1_3  and  C3_4 
REMARK    3  A    between atoms: C7_8  and  N1_9 
REMARK    4  A    between atoms: N1_9  and  C8_10 
ROOT
HETATM    1  C8  UNL     1      21.742   1.312  51.785  1.00  0.00     0.095 C 
HETATM    2  C9  UNL     1      22.159   1.267  50.314  1.00  0.00     0.051 C 
HETATM    3  C10 UNL     1      21.628   1.560  49.113  1.00  0.00     0.001 C 
HETATM    4  C11 UNL     1      20.458   2.075  48.335  1.00  0.00    -0.028 C 
HETATM    5  C12 UNL     1      19.353   2.565  48.871  1.00  0.00    -0.011 C 
HETATM    6  C13 UNL     1      18.506   2.972  49.975  1.00  0.00     0.128 A 
HETATM    7  C14 UNL     1      17.476   3.390  50.667  1.00  0.00     0.127 A 
HETATM    8  S1  UNL     1      17.144   3.236  48.899  1.00  0.00     0.040 S 
HETATM    9  O2  UNL     1      15.805   3.802  48.541  1.00  0.00    -0.248 OA
HETATM   10  N2  UNL     1      17.070   1.398  48.632  1.00  0.00    -0.326 N 
HETATM   11  C15 UNL     1      17.312   0.587  49.831  1.00  0.00     0.096 C 
HETATM   12  C16 UNL     1      17.952   0.083  50.897  1.00  0.00     0.014 C 
HETATM   13  C17 UNL     1      19.193   0.119  51.668  1.00  0.00    -0.018 C 
HETATM   14  C18 UNL     1      20.418   0.526  51.944  1.00  0.00     0.041 C 
HETATM   15  H16 UNL     1      16.889   0.958  47.710  1.00  0.00     0.174 HD
ENDROOT
BRANCH   1  16
HETATM   16  N1  UNL     1      22.749   0.578  52.464  1.00  0.00    -0.383 N 
HETATM   17  H8  UNL     1      23.404   0.415  51.672  1.00  0.00     0.160 HD
BRANCH  16  18
HETATM   18  C7  UNL     1      23.372  -0.042  53.529  1.00  0.00     0.042 A 
HETATM   19  C6  UNL     1      24.721   0.211  53.689  1.00  0.00     0.019 A 
HETATM   20  C5  UNL     1      25.539   1.019  52.965  1.00  0.00     0.019 A 
HETATM   21  C21 UNL     1      25.357  -0.424  54.726  1.00  0.00     0.071 A 
HETATM   22  C4  UNL     1      26.866   1.213  53.205  1.00  0.00     0.038 A 
HETATM   23  C3  UNL     1      27.492   0.555  54.269  1.00  0.00     0.070 A 
HETATM   24  C22 UNL     1      26.700  -0.275  55.031  1.00  0.00     0.069 A 
HETATM   25  N3  UNL     1      24.722  -1.247  55.553  1.00  0.00    -0.260 NA
HETATM   26  C20 UNL     1      23.435  -1.522  55.446  1.00  0.00     0.119 A 
HETATM   27  C19 UNL     1      22.788  -0.906  54.427  1.00  0.00     0.049 A 
BRANCH  23  28
HETATM   28  O1  UNL     1      28.841   0.831  54.414  1.00  0.00    -0.351 OA
BRANCH  28  29
HETATM   29  C2  UNL     1      29.786   0.289  53.530  1.00  0.00     0.171 C 
HETATM   30  C1  UNL     1      29.885  -1.212  53.596  1.00  0.00     0.034 C 
ENDBRANCH  28  29
ENDBRANCH  23  28
ENDBRANCH  16  18
ENDBRANCH   1  16
TORSDOF 4
ENDMDL
MODEL 7
REMARK VINA RESULT:      -8.0      2.519      4.225
REMARK  4 active torsions:
REMARK  status: ('A' for Active; 'I' for Inactive)
REMARK    1  A    between atoms: C2_2  and  O1_3 
REMARK    2  A    between atoms: O1_3  and  C3_4 
REMARK    3  A    between atoms: C7_8  and  N1_9 
REMARK    4  A    between atoms: N1_9  and  C8_10 
ROOT
HETATM    1  C8  UNL     1      25.658   5.846  49.442  1.00  0.00     0.095 C 
HETATM    2  C9  UNL     1      26.734   4.855  48.996  1.00  0.00     0.051 C 
HETATM    3  C10 UNL     1      27.998   4.889  48.535  1.00  0.00     0.001 C 
HETATM    4  C11 UNL     1      29.188   5.713  48.155  1.00  0.00    -0.028 C 
HETATM    5  C12 UNL     1      29.276   7.024  48.306  1.00  0.00    -0.011 C 
HETATM    6  C13 UNL     1      28.793   8.327  48.722  1.00  0.00     0.128 A 
HETATM    7  C14 UNL     1      28.698   9.619  48.907  1.00  0.00     0.127 A 
HETATM    8  S1  UNL     1      30.143   9.133  47.939  1.00  0.00     0.040 S 
HETATM    9  O2  UNL     1      31.058  10.293  47.698  1.00  0.00    -0.248 OA
HETATM   10  N2  UNL     1      29.418   8.634  46.301  1.00  0.00    -0.326 N 
HETATM   11  C15 UNL     1      27.955   8.726  46.217  1.00  0.00     0.096 C 
HETATM   12  C16 UNL     1      26.665   8.488  46.497  1.00  0.00     0.014 C 
HETATM   13  C17 UNL     1      25.752   7.733  47.353  1.00  0.00    -0.018 C 
HETATM   14  C18 UNL     1      25.440   6.877  48.309  1.00  0.00     0.041 C 
HETATM   15  H16 UNL     1      29.985   8.299  45.500  1.00  0.00     0.174 HD
ENDROOT
BRANCH   1  16
HETATM   16  N1  UNL     1      24.474   5.069  49.534  1.00  0.00    -0.383 N 
HETATM   17  H8  UNL     1      23.781   5.832  49.676  1.00  0.00     0.160 HD
BRANCH  16  18
HETATM   18  C7  UNL     1      23.700   3.926  49.549  1.00  0.00     0.042 A 
HETATM   19  C6  UNL     1      23.872   3.076  50.625  1.00  0.00     0.019 A 
HETATM   20  C5  UNL     1      24.678   3.212  51.712  1.00  0.00     0.019 A 
HETATM   21  C21 UNL     1      23.130   1.922  50.636  1.00  0.00     0.071 A 
HETATM   22  C4  UNL     1      24.776   2.319  52.735  1.00  0.00     0.038 A 
HETATM   23  C3  UNL     1      24.008   1.149  52.723  1.00  0.00     0.070 A 
HETATM   24  C22 UNL     1      23.176   0.970  51.640  1.00  0.00     0.069 A 
HETATM   25  N3  UNL     1      22.278   1.617  49.665  1.00  0.00    -0.260 NA
HETATM   26  C20 UNL     1      22.074   2.392  48.615  1.00  0.00     0.119 A 
HETATM   27  C19 UNL     1      22.798   3.538  48.586  1.00  0.00     0.049 A 
BRANCH  23  28
HETATM   28  O1  UNL     1      24.192   0.319  53.816  1.00  0.00    -0.351 OA
BRANCH  28  29
HETATM   29  C2  UNL     1      25.347  -0.469  53.936  1.00  0.00     0.171 C 
HETATM   30  C1  UNL     1      26.269  -0.026  55.041  1.00  0.00     0.034 C 
ENDBRANCH  28  29
ENDBRANCH  23  28
ENDBRANCH  16  18
ENDBRANCH   1  16
TORSDOF 4
ENDMDL
MODEL 8
REMARK VINA RESULT:      -8.0      2.002      3.643
REMARK  4 active torsions:
REMARK  status: ('A' for Active; 'I' for Inactive)
REMARK    1  A    between atoms: C2_2  and  O1_3 
REMARK    2  A    between atoms: O1_3  and  C3_4 
REMARK    3  A    between atoms: C7_8  and  N1_9 
REMARK    4  A    between atoms: N1_9  and  C8_10 
ROOT
HETATM    1  C8  UNL     1      24.580   4.511  49.675  1.00  0.00     0.095 C 
HETATM    2  C9  UNL     1      24.295   5.508  50.798  1.00  0.00     0.051 C 
HETATM    3  C10 UNL     1      24.319   6.841  50.985  1.00  0.00     0.001 C 
HETATM    4  C11 UNL     1      24.568   8.199  50.408  1.00  0.00    -0.028 C 
HETATM    5  C12 UNL     1      24.863   8.436  49.140  1.00  0.00    -0.011 C 
HETATM    6  C13 UNL     1      25.098   8.057  47.760  1.00  0.00     0.128 A 
HETATM    7  C14 UNL     1      25.412   8.108  46.491  1.00  0.00     0.127 A 
HETATM    8  S1  UNL     1      25.648   9.675  47.356  1.00  0.00     0.040 S 
HETATM    9  O2  UNL     1      25.977  10.784  46.407  1.00  0.00    -0.248 OA
HETATM   10  N2  UNL     1      27.150   9.367  48.408  1.00  0.00    -0.326 N 
HETATM   11  C15 UNL     1      27.713   8.015  48.303  1.00  0.00     0.096 C 
HETATM   12  C16 UNL     1      27.786   6.678  48.371  1.00  0.00     0.014 C 
HETATM   13  C17 UNL     1      27.053   5.461  48.715  1.00  0.00    -0.018 C 
HETATM   14  C18 UNL     1      26.008   4.773  49.138  1.00  0.00     0.041 C 
HETATM   15  H16 UNL     1      27.565  10.077  49.040  1.00  0.00     0.174 HD
ENDROOT
BRANCH   1  16
HETATM   16  N1  UNL     1      24.599   3.246  50.316  1.00  0.00    -0.383 N 
HETATM   17  H8  UNL     1      23.738   2.833  49.903  1.00  0.00     0.160 HD
BRANCH  16  18
HETATM   18  C7  UNL     1      25.067   2.249  51.148  1.00  0.00     0.042 A 
HETATM   19  C6  UNL     1      24.136   1.636  51.965  1.00  0.00     0.019 A 
HETATM   20  C5  UNL     1      22.795   1.846  52.054  1.00  0.00     0.019 A 
HETATM   21  C21 UNL     1      24.594   0.664  52.818  1.00  0.00     0.071 A 
HETATM   22  C4  UNL     1      21.949   1.184  52.891  1.00  0.00     0.038 A 
HETATM   23  C3  UNL     1      22.441   0.196  53.751  1.00  0.00     0.070 A 
HETATM   24  C22 UNL     1      23.795  -0.050  53.694  1.00  0.00     0.069 A 
HETATM   25  N3  UNL     1      25.873   0.311  52.870  1.00  0.00    -0.260 NA
HETATM   26  C20 UNL     1      26.804   0.861  52.112  1.00  0.00     0.119 A 
HETATM   27  C19 UNL     1      26.371   1.824  51.262  1.00  0.00     0.049 A 
BRANCH  23  28
HETATM   28  O1  UNL     1      21.487  -0.408  54.553  1.00  0.00    -0.351 OA
BRANCH  28  29
HETATM   29  C2  UNL     1      20.738  -1.499  54.084  1.00  0.00     0.171 C 
HETATM   30  C1  UNL     1      19.380  -1.119  53.558  1.00  0.00     0.034 C 
ENDBRANCH  28  29
ENDBRANCH  23  28
ENDBRANCH  16  18
ENDBRANCH   1  16
TORSDOF 4
ENDMDL
MODEL 9
REMARK VINA RESULT:      -8.0      5.037      8.718
REMARK  4 active torsions:
REMARK  status: ('A' for Active; 'I' for Inactive)
REMARK    1  A    between atoms: C2_2  and  O1_3 
REMARK    2  A    between atoms: O1_3  and  C3_4 
REMARK    3  A    between atoms: C7_8  and  N1_9 
REMARK    4  A    between atoms: N1_9  and  C8_10 
ROOT
HETATM    1  C8  UNL     1      22.070   0.333  52.158  1.00  0.00     0.095 C 
HETATM    2  C9  UNL     1      22.399   1.805  52.408  1.00  0.00     0.051 C 
HETATM    3  C10 UNL     1      23.477   2.555  52.703  1.00  0.00     0.001 C 
HETATM    4  C11 UNL     1      24.949   2.611  52.969  1.00  0.00    -0.028 C 
HETATM    5  C12 UNL     1      25.771   1.579  52.880  1.00  0.00    -0.011 C 
HETATM    6  C13 UNL     1      26.107   0.196  52.599  1.00  0.00     0.128 A 
HETATM    7  C14 UNL     1      26.767  -0.929  52.498  1.00  0.00     0.127 A 
HETATM    8  S1  UNL     1      27.727   0.406  53.244  1.00  0.00     0.040 S 
HETATM    9  O2  UNL     1      29.160   0.017  53.427  1.00  0.00    -0.248 OA
HETATM   10  N2  UNL     1      26.971   0.590  54.932  1.00  0.00    -0.326 N 
HETATM   11  C15 UNL     1      25.845  -0.310  55.209  1.00  0.00     0.096 C 
HETATM   12  C16 UNL     1      24.641  -0.888  55.085  1.00  0.00     0.014 C 
HETATM   13  C17 UNL     1      23.399  -0.899  54.315  1.00  0.00    -0.018 C 
HETATM   14  C18 UNL     1      22.578  -0.495  53.363  1.00  0.00     0.041 C 
HETATM   15  H16 UNL     1      27.295   1.281  55.635  1.00  0.00     0.174 HD
ENDROOT
BRANCH   1  16
HETATM   16  N1  UNL     1      20.653   0.275  52.177  1.00  0.00    -0.383 N 
HETATM   17  H8  UNL     1      20.440   1.246  51.869  1.00  0.00     0.160 HD
BRANCH  16  18
HETATM   18  C7  UNL     1      19.405  -0.286  52.358  1.00  0.00     0.042 A 
HETATM   19  C6  UNL     1      18.417   0.102  51.473  1.00  0.00     0.019 A 
HETATM   20  C5  UNL     1      18.494   0.945  50.410  1.00  0.00     0.019 A 
HETATM   21  C21 UNL     1      17.165  -0.427  51.661  1.00  0.00     0.071 A 
HETATM   22  C4  UNL     1      17.461   1.265  49.582  1.00  0.00     0.038 A 
HETATM   23  C3  UNL     1      16.193   0.712  49.795  1.00  0.00     0.070 A 
HETATM   24  C22 UNL     1      16.069  -0.149  50.863  1.00  0.00     0.069 A 
HETATM   25  N3  UNL     1      16.894  -1.278  52.644  1.00  0.00    -0.260 NA
HETATM   26  C20 UNL     1      17.799  -1.684  53.515  1.00  0.00     0.119 A 
HETATM   27  C19 UNL     1      19.044  -1.173  53.346  1.00  0.00     0.049 A 
BRANCH  23  28
HETATM   28  O1  UNL     1      15.223   1.110  48.891  1.00  0.00    -0.351 OA
BRANCH  28  29
HETATM   29  C2  UNL     1      13.971   1.565  49.332  1.00  0.00     0.171 C 
HETATM   30  C1  UNL     1      14.019   2.907  50.011  1.00  0.00     0.034 C 
ENDBRANCH  28  29
ENDBRANCH  23  28
ENDBRANCH  16  18
ENDBRANCH   1  16
TORSDOF 4
ENDMDL
