MODEL 1
REMARK VINA RESULT:      -8.1      0.000      0.000
REMARK  7 active torsions:
REMARK  status: ('A' for Active; 'I' for Inactive)
REMARK       I    between atoms: C1_2  and  N1_3 
REMARK       I    between atoms: C1_2  and  N3_12 
REMARK    1  A    between atoms: N1_3  and  C2_4 
REMARK    2  A    between atoms: C2_4  and  C3_5 
REMARK    3  A    between atoms: C3_5  and  N2_6 
REMARK    4  A    between atoms: C11_15  and  N4_16 
REMARK    5  A    between atoms: C12_17  and  N5_18 
REMARK    6  A    between atoms: C13_19  and  N6_20 
REMARK    7  A    between atoms: N6_20  and  C14_21 
ROOT
HETATM    1  O1  UNL     1      21.899  -0.617  54.504  1.00  0.00    -0.247 OA
HETATM    2  C1  UNL     1      22.541  -0.366  53.453  1.00  0.00     0.322 C 
HETATM    3  N1  UNL     1      23.970  -0.433  53.424  1.00  0.00    -0.341 N 
HETATM    4  N3  UNL     1      21.802  -0.005  52.265  1.00  0.00    -0.303 N 
HETATM    5  C9  UNL     1      20.338   0.078  52.244  1.00  0.00     0.089 C 
HETATM    6  C10 UNL     1      20.524   1.114  51.409  1.00  0.00     0.081 A 
HETATM    7  C11 UNL     1      21.084   2.149  50.552  1.00  0.00     0.052 A 
HETATM    8  C20 UNL     1      22.154   1.475  50.194  1.00  0.00     0.029 A 
HETATM    9  C21 UNL     1      21.754   0.348  50.963  1.00  0.00     0.139 A 
HETATM   10  H1  UNL     1      24.391  -0.200  52.486  1.00  0.00     0.164 HD
ENDROOT
BRANCH   7  11
HETATM   11  N4  UNL     1      20.468   3.425  50.331  1.00  0.00    -0.245 NA
HETATM   12  C12 UNL     1      21.170   4.498  50.324  1.00  0.00     0.234 C 
BRANCH  12  13
HETATM   13  N5  UNL     1      21.464   5.878  50.227  1.00  0.00    -0.237 NA
HETATM   14  C13 UNL     1      22.458   6.368  50.860  1.00  0.00     0.208 C 
BRANCH  14  15
HETATM   15  N6  UNL     1      23.538   6.128  51.728  1.00  0.00    -0.351 N 
HETATM   16  H19 UNL     1      23.231   6.426  52.661  1.00  0.00     0.166 HD
BRANCH  15  17
HETATM   17  C14 UNL     1      24.551   5.581  50.895  1.00  0.00     0.034 A 
HETATM   18  C15 UNL     1      24.736   4.211  50.849  1.00  0.00     0.032 A 
HETATM   19  C16 UNL     1      25.743   3.741  50.021  1.00  0.00     0.046 A 
HETATM   20  C17 UNL     1      26.491   4.650  49.302  1.00  0.00     0.138 A 
HETATM   21  F1  UNL     1      27.483   4.199  48.486  1.00  0.00    -0.204 F 
HETATM   22  C18 UNL     1      26.300   6.012  49.353  1.00  0.00     0.074 A 
HETATM   23 CL1  UNL     1      27.309   7.099  48.393  1.00  0.00    -0.081 Cl
HETATM   24  C19 UNL     1      25.299   6.499  50.174  1.00  0.00     0.056 A 
ENDBRANCH  15  17
ENDBRANCH  14  15
ENDBRANCH  12  13
ENDBRANCH   7  11
BRANCH   3  25
HETATM   25  C2  UNL     1      24.804  -0.778  54.538  1.00  0.00     0.154 C 
BRANCH  25  26
HETATM   26  C3  UNL     1      26.031   0.067  54.537  1.00  0.00     0.292 C 
BRANCH  26  27
HETATM   27  N2  UNL     1      26.481   0.468  53.231  1.00  0.00     0.090 N 
HETATM   28  C4  UNL     1      27.594  -0.303  52.752  1.00  0.00     0.272 C 
HETATM   29  C5  UNL     1      28.729  -0.362  53.731  1.00  0.00     0.030 C 
HETATM   30  C6  UNL     1      29.107   1.055  54.066  1.00  0.00     0.003 C 
HETATM   31  C7  UNL     1      28.345   2.088  53.275  1.00  0.00     0.030 C 
HETATM   32  C8  UNL     1      26.866   1.876  53.328  1.00  0.00     0.272 C 
ENDBRANCH  26  27
ENDBRANCH  25  26
ENDBRANCH   3  25
TORSDOF 7
ENDMDL
MODEL 2
REMARK VINA RESULT:      -8.0      4.821      8.680
REMARK  7 active torsions:
REMARK  status: ('A' for Active; 'I' for Inactive)
REMARK       I    between atoms: C1_2  and  N1_3 
REMARK       I    between atoms: C1_2  and  N3_12 
REMARK    1  A    between atoms: N1_3  and  C2_4 
REMARK    2  A    between atoms: C2_4  and  C3_5 
REMARK    3  A    between atoms: C3_5  and  N2_6 
REMARK    4  A    between atoms: C11_15  and  N4_16 
REMARK    5  A    between atoms: C12_17  and  N5_18 
REMARK    6  A    between atoms: C13_19  and  N6_20 
REMARK    7  A    between atoms: N6_20  and  C14_21 
ROOT
HETATM    1  O1  UNL     1      28.612   5.103  48.571  1.00  0.00    -0.247 OA
HETATM    2  C1  UNL     1      27.747   5.990  48.783  1.00  0.00     0.322 C 
HETATM    3  N1  UNL     1      28.105   7.375  48.835  1.00  0.00    -0.341 N 
HETATM    4  N3  UNL     1      26.375   5.583  48.974  1.00  0.00    -0.303 N 
HETATM    5  C9  UNL     1      25.958   4.178  48.930  1.00  0.00     0.089 C 
HETATM    6  C10 UNL     1      25.096   4.524  49.900  1.00  0.00     0.081 A 
HETATM    7  C11 UNL     1      24.311   5.235  50.900  1.00  0.00     0.052 A 
HETATM    8  C20 UNL     1      24.325   6.399  50.290  1.00  0.00     0.029 A 
HETATM    9  C21 UNL     1      25.077   5.871  49.205  1.00  0.00     0.139 A 
HETATM   10  H1  UNL     1      27.293   8.021  49.019  1.00  0.00     0.164 HD
ENDROOT
BRANCH   7  11
HETATM   11  N4  UNL     1      23.799   4.629  52.094  1.00  0.00    -0.245 NA
HETATM   12  C12 UNL     1      24.336   3.566  52.572  1.00  0.00     0.234 C 
BRANCH  12  13
HETATM   13  N5  UNL     1      24.544   2.476  53.448  1.00  0.00    -0.237 NA
HETATM   14  C13 UNL     1      25.719   2.202  53.863  1.00  0.00     0.208 C 
BRANCH  14  15
HETATM   15  N6  UNL     1      27.086   2.535  53.841  1.00  0.00    -0.351 N 
HETATM   16  H19 UNL     1      27.135   3.555  53.944  1.00  0.00     0.166 HD
BRANCH  15  17
HETATM   17  C14 UNL     1      27.754   1.291  53.686  1.00  0.00     0.034 A 
HETATM   18  C15 UNL     1      29.066   1.160  54.106  1.00  0.00     0.032 A 
HETATM   19  C16 UNL     1      29.663  -0.077  53.922  1.00  0.00     0.046 A 
HETATM   20  C17 UNL     1      28.929  -1.090  53.343  1.00  0.00     0.138 A 
HETATM   21  F1  UNL     1      29.506  -2.309  53.158  1.00  0.00    -0.204 F 
HETATM   22  C18 UNL     1      27.624  -0.952  52.929  1.00  0.00     0.074 A 
HETATM   23 CL1  UNL     1      26.763  -2.310  52.196  1.00  0.00    -0.081 Cl
HETATM   24  C19 UNL     1      27.011   0.276  53.104  1.00  0.00     0.056 A 
ENDBRANCH  15  17
ENDBRANCH  14  15
ENDBRANCH  12  13
ENDBRANCH   7  11
BRANCH   3  25
HETATM   25  C2  UNL     1      29.431   7.893  48.661  1.00  0.00     0.154 C 
BRANCH  25  26
HETATM   26  C3  UNL     1      29.485   9.313  49.107  1.00  0.00     0.292 C 
BRANCH  26  27
HETATM   27  N2  UNL     1      29.045  10.267  48.124  1.00  0.00     0.090 N 
HETATM   28  C4  UNL     1      30.124  10.847  47.372  1.00  0.00     0.272 C 
HETATM   29  C5  UNL     1      31.205  11.413  48.244  1.00  0.00     0.030 C 
HETATM   30  C6  UNL     1      30.558  12.396  49.180  1.00  0.00     0.003 C 
HETATM   31  C7  UNL     1      29.089  12.606  48.917  1.00  0.00     0.030 C 
HETATM   32  C8  UNL     1      28.330  11.320  48.844  1.00  0.00     0.272 C 
ENDBRANCH  26  27
ENDBRANCH  25  26
ENDBRANCH   3  25
TORSDOF 7
ENDMDL
MODEL 3
REMARK VINA RESULT:      -7.9      5.040      6.962
REMARK  7 active torsions:
REMARK  status: ('A' for Active; 'I' for Inactive)
REMARK       I    between atoms: C1_2  and  N1_3 
REMARK       I    between atoms: C1_2  and  N3_12 
REMARK    1  A    between atoms: N1_3  and  C2_4 
REMARK    2  A    between atoms: C2_4  and  C3_5 
REMARK    3  A    between atoms: C3_5  and  N2_6 
REMARK    4  A    between atoms: C11_15  and  N4_16 
REMARK    5  A    between atoms: C12_17  and  N5_18 
REMARK    6  A    between atoms: C13_19  and  N6_20 
REMARK    7  A    between atoms: N6_20  and  C14_21 
ROOT
HETATM    1  O1  UNL     1      23.717   5.109  51.860  1.00  0.00    -0.247 OA
HETATM    2  C1  UNL     1      24.636   4.480  51.278  1.00  0.00     0.322 C 
HETATM    3  N1  UNL     1      25.204   3.299  51.853  1.00  0.00    -0.341 N 
HETATM    4  N3  UNL     1      25.112   4.975  50.007  1.00  0.00    -0.303 N 
HETATM    5  C9  UNL     1      24.563   6.180  49.377  1.00  0.00     0.089 C 
HETATM    6  C10 UNL     1      25.824   6.401  48.969  1.00  0.00     0.081 A 
HETATM    7  C11 UNL     1      27.253   6.319  48.703  1.00  0.00     0.052 A 
HETATM    8  C20 UNL     1      27.321   5.006  48.696  1.00  0.00     0.029 A 
HETATM    9  C21 UNL     1      25.925   4.889  48.933  1.00  0.00     0.139 A 
HETATM   10  H1  UNL     1      25.966   2.863  51.271  1.00  0.00     0.164 HD
ENDROOT
BRANCH   7  11
HETATM   11  N4  UNL     1      28.104   7.461  48.540  1.00  0.00    -0.245 NA
HETATM   12  C12 UNL     1      29.318   7.323  48.150  1.00  0.00     0.234 C 
BRANCH  12  13
HETATM   13  N5  UNL     1      30.631   7.693  47.775  1.00  0.00    -0.237 NA
HETATM   14  C13 UNL     1      31.634   7.065  48.252  1.00  0.00     0.208 C 
BRANCH  14  15
HETATM   15  N6  UNL     1      32.090   6.035  49.095  1.00  0.00    -0.351 N 
HETATM   16  H19 UNL     1      31.708   6.234  50.026  1.00  0.00     0.166 HD
BRANCH  15  17
HETATM   17  C14 UNL     1      32.870   5.201  48.249  1.00  0.00     0.034 A 
HETATM   18  C15 UNL     1      34.080   5.661  47.759  1.00  0.00     0.032 A 
HETATM   19  C16 UNL     1      34.790   4.801  46.935  1.00  0.00     0.046 A 
HETATM   20  C17 UNL     1      34.261   3.558  46.657  1.00  0.00     0.138 A 
HETATM   21  F1  UNL     1      34.951   2.707  45.850  1.00  0.00    -0.204 F 
HETATM   22  C18 UNL     1      33.058   3.109  47.150  1.00  0.00     0.074 A 
HETATM   23 CL1  UNL     1      32.462   1.497  46.738  1.00  0.00    -0.081 Cl
HETATM   24  C19 UNL     1      32.335   3.953  47.973  1.00  0.00     0.056 A 
ENDBRANCH  15  17
ENDBRANCH  14  15
ENDBRANCH  12  13
ENDBRANCH   7  11
BRANCH   3  25
HETATM   25  C2  UNL     1      24.812   2.719  53.104  1.00  0.00     0.154 C 
BRANCH  25  26
HETATM   26  C3  UNL     1      25.957   1.978  53.703  1.00  0.00     0.292 C 
BRANCH  26  27
HETATM   27  N2  UNL     1      25.677   0.606  54.031  1.00  0.00     0.090 N 
HETATM   28  C4  UNL     1      26.559   0.068  55.030  1.00  0.00     0.272 C 
HETATM   29  C5  UNL     1      28.008   0.271  54.700  1.00  0.00     0.030 C 
HETATM   30  C6  UNL     1      28.245  -0.322  53.338  1.00  0.00     0.003 C 
HETATM   31  C7  UNL     1      27.039  -1.018  52.762  1.00  0.00     0.030 C 
HETATM   32  C8  UNL     1      25.813  -0.163  52.794  1.00  0.00     0.272 C 
ENDBRANCH  26  27
ENDBRANCH  25  26
ENDBRANCH   3  25
TORSDOF 7
ENDMDL
MODEL 4
REMARK VINA RESULT:      -7.9      3.388      5.596
REMARK  7 active torsions:
REMARK  status: ('A' for Active; 'I' for Inactive)
REMARK       I    between atoms: C1_2  and  N1_3 
REMARK       I    between atoms: C1_2  and  N3_12 
REMARK    1  A    between atoms: N1_3  and  C2_4 
REMARK    2  A    between atoms: C2_4  and  C3_5 
REMARK    3  A    between atoms: C3_5  and  N2_6 
REMARK    4  A    between atoms: C11_15  and  N4_16 
REMARK    5  A    between atoms: C12_17  and  N5_18 
REMARK    6  A    between atoms: C13_19  and  N6_20 
REMARK    7  A    between atoms: N6_20  and  C14_21 
ROOT
HETATM    1  O1  UNL     1      26.562   3.335  49.324  1.00  0.00    -0.247 OA
HETATM    2  C1  UNL     1      25.993   3.807  50.341  1.00  0.00     0.322 C 
HETATM    3  N1  UNL     1      26.254   3.281  51.646  1.00  0.00    -0.341 N 
HETATM    4  N3  UNL     1      25.063   4.897  50.165  1.00  0.00    -0.303 N 
HETATM    5  C9  UNL     1      24.762   5.470  48.849  1.00  0.00     0.089 C 
HETATM    6  C10 UNL     1      23.512   5.606  49.323  1.00  0.00     0.081 A 
HETATM    7  C11 UNL     1      22.309   5.609  50.144  1.00  0.00     0.052 A 
HETATM    8  C20 UNL     1      22.924   5.761  51.296  1.00  0.00     0.029 A 
HETATM    9  C21 UNL     1      24.195   5.804  50.662  1.00  0.00     0.139 A 
HETATM   10  H1  UNL     1      25.716   3.759  52.416  1.00  0.00     0.164 HD
ENDROOT
BRANCH   7  11
HETATM   11  N4  UNL     1      20.982   5.473  49.619  1.00  0.00    -0.245 NA
HETATM   12  C12 UNL     1      20.461   4.313  49.449  1.00  0.00     0.234 C 
BRANCH  12  13
HETATM   13  N5  UNL     1      19.495   3.343  49.096  1.00  0.00    -0.237 NA
HETATM   14  C13 UNL     1      19.847   2.135  48.883  1.00  0.00     0.208 C 
BRANCH  14  15
HETATM   15  N6  UNL     1      20.901   1.205  48.833  1.00  0.00    -0.351 N 
HETATM   16  H19 UNL     1      21.024   0.962  47.844  1.00  0.00     0.166 HD
BRANCH  15  17
HETATM   17  C14 UNL     1      21.298   1.042  50.188  1.00  0.00     0.034 A 
HETATM   18  C15 UNL     1      22.524   1.529  50.606  1.00  0.00     0.032 A 
HETATM   19  C16 UNL     1      22.854   1.334  51.938  1.00  0.00     0.046 A 
HETATM   20  C17 UNL     1      21.959   0.678  52.757  1.00  0.00     0.138 A 
HETATM   21  F1  UNL     1      22.275   0.481  54.066  1.00  0.00    -0.204 F 
HETATM   22  C18 UNL     1      20.741   0.198  52.332  1.00  0.00     0.074 A 
HETATM   23 CL1  UNL     1      19.659  -0.631  53.457  1.00  0.00    -0.081 Cl
HETATM   24  C19 UNL     1      20.394   0.383  51.007  1.00  0.00     0.056 A 
ENDBRANCH  15  17
ENDBRANCH  14  15
ENDBRANCH  12  13
ENDBRANCH   7  11
BRANCH   3  25
HETATM   25  C2  UNL     1      27.154   2.203  51.939  1.00  0.00     0.154 C 
BRANCH  25  26
HETATM   26  C3  UNL     1      26.433   0.902  51.862  1.00  0.00     0.292 C 
BRANCH  26  27
HETATM   27  N2  UNL     1      27.173  -0.223  52.366  1.00  0.00     0.090 N 
HETATM   28  C4  UNL     1      26.350  -1.195  53.031  1.00  0.00     0.272 C 
HETATM   29  C5  UNL     1      25.476  -0.592  54.091  1.00  0.00     0.030 C 
HETATM   30  C6  UNL     1      26.372   0.155  55.040  1.00  0.00     0.003 C 
HETATM   31  C7  UNL     1      27.840   0.003  54.734  1.00  0.00     0.030 C 
HETATM   32  C8  UNL     1      28.163   0.305  53.305  1.00  0.00     0.272 C 
ENDBRANCH  26  27
ENDBRANCH  25  26
ENDBRANCH   3  25
TORSDOF 7
ENDMDL
MODEL 5
REMARK VINA RESULT:      -7.8      3.248      5.656
REMARK  7 active torsions:
REMARK  status: ('A' for Active; 'I' for Inactive)
REMARK       I    between atoms: C1_2  and  N1_3 
REMARK       I    between atoms: C1_2  and  N3_12 
REMARK    1  A    between atoms: N1_3  and  C2_4 
REMARK    2  A    between atoms: C2_4  and  C3_5 
REMARK    3  A    between atoms: C3_5  and  N2_6 
REMARK    4  A    between atoms: C11_15  and  N4_16 
REMARK    5  A    between atoms: C12_17  and  N5_18 
REMARK    6  A    between atoms: C13_19  and  N6_20 
REMARK    7  A    between atoms: N6_20  and  C14_21 
ROOT
HETATM    1  O1  UNL     1      26.012   3.363  49.305  1.00  0.00    -0.247 OA
HETATM    2  C1  UNL     1      25.485   3.659  50.407  1.00  0.00     0.322 C 
HETATM    3  N1  UNL     1      25.781   2.914  51.593  1.00  0.00    -0.341 N 
HETATM    4  N3  UNL     1      24.568   4.774  50.455  1.00  0.00    -0.303 N 
HETATM    5  C9  UNL     1      24.232   5.567  49.268  1.00  0.00     0.089 C 
HETATM    6  C10 UNL     1      23.002   5.633  49.803  1.00  0.00     0.081 A 
HETATM    7  C11 UNL     1      21.827   5.508  50.655  1.00  0.00     0.052 A 
HETATM    8  C20 UNL     1      22.483   5.453  51.794  1.00  0.00     0.029 A 
HETATM    9  C21 UNL     1      23.733   5.590  51.131  1.00  0.00     0.139 A 
HETATM   10  H1  UNL     1      25.277   3.258  52.452  1.00  0.00     0.164 HD
ENDROOT
BRANCH   7  11
HETATM   11  N4  UNL     1      20.481   5.479  50.163  1.00  0.00    -0.245 NA
HETATM   12  C12 UNL     1      19.877   4.363  49.975  1.00  0.00     0.234 C 
BRANCH  12  13
HETATM   13  N5  UNL     1      18.838   3.472  49.620  1.00  0.00    -0.237 NA
HETATM   14  C13 UNL     1      19.101   2.249  49.364  1.00  0.00     0.208 C 
BRANCH  14  15
HETATM   15  N6  UNL     1      20.087   1.251  49.260  1.00  0.00    -0.351 N 
HETATM   16  H19 UNL     1      20.366   1.224  48.273  1.00  0.00     0.166 HD
BRANCH  15  17
HETATM   17  C14 UNL     1      20.229   0.751  50.582  1.00  0.00     0.034 A 
HETATM   18  C15 UNL     1      19.115   0.300  51.269  1.00  0.00     0.032 A 
HETATM   19  C16 UNL     1      19.321  -0.171  52.556  1.00  0.00     0.046 A 
HETATM   20  C17 UNL     1      20.600  -0.165  53.071  1.00  0.00     0.138 A 
HETATM   21  F1  UNL     1      20.812  -0.625  54.334  1.00  0.00    -0.204 F 
HETATM   22  C18 UNL     1      21.702   0.285  52.380  1.00  0.00     0.074 A 
HETATM   23 CL1  UNL     1      23.305   0.253  53.125  1.00  0.00    -0.081 Cl
HETATM   24  C19 UNL     1      21.517   0.759  51.095  1.00  0.00     0.056 A 
ENDBRANCH  15  17
ENDBRANCH  14  15
ENDBRANCH  12  13
ENDBRANCH   7  11
BRANCH   3  25
HETATM   25  C2  UNL     1      26.671   1.793  51.664  1.00  0.00     0.154 C 
BRANCH  25  26
HETATM   26  C3  UNL     1      27.222   1.666  53.042  1.00  0.00     0.292 C 
BRANCH  26  27
HETATM   27  N2  UNL     1      26.804   0.484  53.747  1.00  0.00     0.090 N 
HETATM   28  C4  UNL     1      27.658   0.150  54.853  1.00  0.00     0.272 C 
HETATM   29  C5  UNL     1      29.107   0.079  54.471  1.00  0.00     0.030 C 
HETATM   30  C6  UNL     1      29.224  -0.897  53.333  1.00  0.00     0.003 C 
HETATM   31  C7  UNL     1      27.926  -1.580  52.985  1.00  0.00     0.030 C 
HETATM   32  C8  UNL     1      26.806  -0.613  52.779  1.00  0.00     0.272 C 
ENDBRANCH  26  27
ENDBRANCH  25  26
ENDBRANCH   3  25
TORSDOF 7
ENDMDL
MODEL 6
REMARK VINA RESULT:      -7.6      5.564      8.048
REMARK  7 active torsions:
REMARK  status: ('A' for Active; 'I' for Inactive)
REMARK       I    between atoms: C1_2  and  N1_3 
REMARK       I    between atoms: C1_2  and  N3_12 
REMARK    1  A    between atoms: N1_3  and  C2_4 
REMARK    2  A    between atoms: C2_4  and  C3_5 
REMARK    3  A    between atoms: C3_5  and  N2_6 
REMARK    4  A    between atoms: C11_15  and  N4_16 
REMARK    5  A    between atoms: C12_17  and  N5_18 
REMARK    6  A    between atoms: C13_19  and  N6_20 
REMARK    7  A    between atoms: N6_20  and  C14_21 
ROOT
HETATM    1  O1  UNL     1      24.328   6.951  51.116  1.00  0.00    -0.247 OA
HETATM    2  C1  UNL     1      25.037   6.206  50.394  1.00  0.00     0.322 C 
HETATM    3  N1  UNL     1      25.079   4.791  50.609  1.00  0.00    -0.341 N 
HETATM    4  N3  UNL     1      25.814   6.808  49.336  1.00  0.00    -0.303 N 
HETATM    5  C9  UNL     1      25.804   8.251  49.077  1.00  0.00     0.089 C 
HETATM    6  C10 UNL     1      27.104   8.089  48.779  1.00  0.00     0.081 A 
HETATM    7  C11 UNL     1      28.437   7.557  48.531  1.00  0.00     0.052 A 
HETATM    8  C20 UNL     1      28.044   6.365  48.140  1.00  0.00     0.029 A 
HETATM    9  C21 UNL     1      26.676   6.715  48.302  1.00  0.00     0.139 A 
HETATM   10  H1  UNL     1      25.710   4.275  49.941  1.00  0.00     0.164 HD
ENDROOT
BRANCH   7  11
HETATM   11  N4  UNL     1      29.645   8.302  48.729  1.00  0.00    -0.245 NA
HETATM   12  C12 UNL     1      30.774   7.702  48.839  1.00  0.00     0.234 C 
BRANCH  12  13
HETATM   13  N5  UNL     1      32.169   7.542  49.010  1.00  0.00    -0.237 NA
HETATM   14  C13 UNL     1      32.682   6.374  49.031  1.00  0.00     0.208 C 
BRANCH  14  15
HETATM   15  N6  UNL     1      32.462   4.987  48.954  1.00  0.00    -0.351 N 
HETATM   16  H19 UNL     1      31.815   4.754  49.716  1.00  0.00     0.166 HD
BRANCH  15  17
HETATM   17  C14 UNL     1      33.246   4.562  47.848  1.00  0.00     0.034 A 
HETATM   18  C15 UNL     1      34.383   3.804  48.064  1.00  0.00     0.032 A 
HETATM   19  C16 UNL     1      35.106   3.426  46.943  1.00  0.00     0.046 A 
HETATM   20  C17 UNL     1      34.660   3.819  45.699  1.00  0.00     0.138 A 
HETATM   21  F1  UNL     1      35.364   3.453  44.593  1.00  0.00    -0.204 F 
HETATM   22  C18 UNL     1      33.527   4.573  45.493  1.00  0.00     0.074 A 
HETATM   23 CL1  UNL     1      33.034   5.028  43.859  1.00  0.00    -0.081 Cl
HETATM   24  C19 UNL     1      32.792   4.959  46.599  1.00  0.00     0.056 A 
ENDBRANCH  15  17
ENDBRANCH  14  15
ENDBRANCH  12  13
ENDBRANCH   7  11
BRANCH   3  25
HETATM   25  C2  UNL     1      24.354   4.087  51.625  1.00  0.00     0.154 C 
BRANCH  25  26
HETATM   26  C3  UNL     1      24.834   2.680  51.713  1.00  0.00     0.292 C 
BRANCH  26  27
HETATM   27  N2  UNL     1      24.912   2.156  53.050  1.00  0.00     0.090 N 
HETATM   28  C4  UNL     1      26.260   1.978  53.514  1.00  0.00     0.272 C 
HETATM   29  C5  UNL     1      27.106   1.185  52.561  1.00  0.00     0.030 C 
HETATM   30  C6  UNL     1      26.401  -0.121  52.315  1.00  0.00     0.003 C 
HETATM   31  C7  UNL     1      25.154  -0.301  53.143  1.00  0.00     0.030 C 
HETATM   32  C8  UNL     1      24.224   0.865  53.041  1.00  0.00     0.272 C 
ENDBRANCH  26  27
ENDBRANCH  25  26
ENDBRANCH   3  25
TORSDOF 7
ENDMDL
MODEL 7
REMARK VINA RESULT:      -7.6      5.500      8.238
REMARK  7 active torsions:
REMARK  status: ('A' for Active; 'I' for Inactive)
REMARK       I    between atoms: C1_2  and  N1_3 
REMARK       I    between atoms: C1_2  and  N3_12 
REMARK    1  A    between atoms: N1_3  and  C2_4 
REMARK    2  A    between atoms: C2_4  and  C3_5 
REMARK    3  A    between atoms: C3_5  and  N2_6 
REMARK    4  A    between atoms: C11_15  and  N4_16 
REMARK    5  A    between atoms: C12_17  and  N5_18 
REMARK    6  A    between atoms: C13_19  and  N6_20 
REMARK    7  A    between atoms: N6_20  and  C14_21 
ROOT
HETATM    1  O1  UNL     1      30.151   5.108  48.568  1.00  0.00    -0.247 OA
HETATM    2  C1  UNL     1      29.584   6.188  48.267  1.00  0.00     0.322 C 
HETATM    3  N1  UNL     1      30.343   7.358  47.948  1.00  0.00    -0.341 N 
HETATM    4  N3  UNL     1      28.140   6.226  48.249  1.00  0.00    -0.303 N 
HETATM    5  C9  UNL     1      27.319   5.055  48.569  1.00  0.00     0.089 C 
HETATM    6  C10 UNL     1      26.485   5.940  49.140  1.00  0.00     0.081 A 
HETATM    7  C11 UNL     1      25.833   7.144  49.637  1.00  0.00     0.052 A 
HETATM    8  C20 UNL     1      26.288   7.948  48.702  1.00  0.00     0.029 A 
HETATM    9  C21 UNL     1      26.977   6.883  48.060  1.00  0.00     0.139 A 
HETATM   10  H1  UNL     1      29.755   8.201  47.713  1.00  0.00     0.164 HD
ENDROOT
BRANCH   7  11
HETATM   11  N4  UNL     1      25.004   7.180  50.806  1.00  0.00    -0.245 NA
HETATM   12  C12 UNL     1      24.248   6.187  51.103  1.00  0.00     0.234 C 
BRANCH  12  13
HETATM   13  N5  UNL     1      23.305   5.421  51.827  1.00  0.00    -0.237 NA
HETATM   14  C13 UNL     1      23.023   4.233  51.455  1.00  0.00     0.208 C 
BRANCH  14  15
HETATM   15  N6  UNL     1      23.254   3.201  50.528  1.00  0.00    -0.351 N 
HETATM   16  H19 UNL     1      22.591   3.351  49.759  1.00  0.00     0.166 HD
BRANCH  15  17
HETATM   17  C14 UNL     1      24.305   2.435  51.101  1.00  0.00     0.034 A 
HETATM   18  C15 UNL     1      25.616   2.695  50.746  1.00  0.00     0.032 A 
HETATM   19  C16 UNL     1      26.593   1.909  51.336  1.00  0.00     0.046 A 
HETATM   20  C17 UNL     1      26.210   0.929  52.228  1.00  0.00     0.138 A 
HETATM   21  F1  UNL     1      27.162   0.152  52.812  1.00  0.00    -0.204 F 
HETATM   22  C18 UNL     1      24.903   0.677  52.576  1.00  0.00     0.074 A 
HETATM   23 CL1  UNL     1      24.509  -0.602  53.730  1.00  0.00    -0.081 Cl
HETATM   24  C19 UNL     1      23.914   1.452  51.997  1.00  0.00     0.056 A 
ENDBRANCH  15  17
ENDBRANCH  14  15
ENDBRANCH  12  13
ENDBRANCH   7  11
BRANCH   3  25
HETATM   25  C2  UNL     1      31.775   7.437  47.934  1.00  0.00     0.154 C 
BRANCH  25  26
HETATM   26  C3  UNL     1      32.302   6.909  46.645  1.00  0.00     0.292 C 
BRANCH  26  27
HETATM   27  N2  UNL     1      33.592   6.279  46.739  1.00  0.00     0.090 N 
HETATM   28  C4  UNL     1      33.938   5.516  45.571  1.00  0.00     0.272 C 
HETATM   29  C5  UNL     1      32.873   4.535  45.178  1.00  0.00     0.030 C 
HETATM   30  C6  UNL     1      32.596   3.669  46.376  1.00  0.00     0.003 C 
HETATM   31  C7  UNL     1      33.503   3.946  47.547  1.00  0.00     0.030 C 
HETATM   32  C8  UNL     1      33.550   5.397  47.905  1.00  0.00     0.272 C 
ENDBRANCH  26  27
ENDBRANCH  25  26
ENDBRANCH   3  25
TORSDOF 7
ENDMDL
MODEL 8
REMARK VINA RESULT:      -7.5      3.484      5.291
REMARK  7 active torsions:
REMARK  status: ('A' for Active; 'I' for Inactive)
REMARK       I    between atoms: C1_2  and  N1_3 
REMARK       I    between atoms: C1_2  and  N3_12 
REMARK    1  A    between atoms: N1_3  and  C2_4 
REMARK    2  A    between atoms: C2_4  and  C3_5 
REMARK    3  A    between atoms: C3_5  and  N2_6 
REMARK    4  A    between atoms: C11_15  and  N4_16 
REMARK    5  A    between atoms: C12_17  and  N5_18 
REMARK    6  A    between atoms: C13_19  and  N6_20 
REMARK    7  A    between atoms: N6_20  and  C14_21 
ROOT
HETATM    1  O1  UNL     1      23.560   3.554  52.466  1.00  0.00    -0.247 OA
HETATM    2  C1  UNL     1      24.518   3.609  51.653  1.00  0.00     0.322 C 
HETATM    3  N1  UNL     1      25.743   2.913  51.905  1.00  0.00    -0.341 N 
HETATM    4  N3  UNL     1      24.357   4.394  50.452  1.00  0.00    -0.303 N 
HETATM    5  C9  UNL     1      23.123   5.125  50.149  1.00  0.00     0.089 C 
HETATM    6  C10 UNL     1      23.939   6.055  49.626  1.00  0.00     0.081 A 
HETATM    7  C11 UNL     1      25.087   6.820  49.159  1.00  0.00     0.052 A 
HETATM    8  C20 UNL     1      25.848   5.783  48.886  1.00  0.00     0.029 A 
HETATM    9  C21 UNL     1      24.827   4.876  49.282  1.00  0.00     0.139 A 
HETATM   10  H1  UNL     1      26.469   3.037  51.152  1.00  0.00     0.164 HD
ENDROOT
BRANCH   7  11
HETATM   11  N4  UNL     1      25.127   8.252  49.109  1.00  0.00    -0.245 NA
HETATM   12  C12 UNL     1      26.121   8.897  49.601  1.00  0.00     0.234 C 
BRANCH  12  13
HETATM   13  N5  UNL     1      26.920  10.004  49.967  1.00  0.00    -0.237 NA
HETATM   14  C13 UNL     1      27.903  10.357  49.233  1.00  0.00     0.208 C 
BRANCH  14  15
HETATM   15  N6  UNL     1      28.654  10.111  48.070  1.00  0.00    -0.351 N 
HETATM   16  H19 UNL     1      28.278  10.734  47.347  1.00  0.00     0.166 HD
BRANCH  15  17
HETATM   17  C14 UNL     1      29.586   9.109  48.452  1.00  0.00     0.034 A 
HETATM   18  C15 UNL     1      30.706   9.457  49.187  1.00  0.00     0.032 A 
HETATM   19  C16 UNL     1      31.578   8.434  49.523  1.00  0.00     0.046 A 
HETATM   20  C17 UNL     1      31.287   7.150  49.115  1.00  0.00     0.138 A 
HETATM   21  F1  UNL     1      32.138   6.139  49.440  1.00  0.00    -0.204 F 
HETATM   22  C18 UNL     1      30.171   6.812  48.384  1.00  0.00     0.074 A 
HETATM   23 CL1  UNL     1      29.882   5.136  47.906  1.00  0.00    -0.081 Cl
HETATM   24  C19 UNL     1      29.288   7.819  48.039  1.00  0.00     0.056 A 
ENDBRANCH  15  17
ENDBRANCH  14  15
ENDBRANCH  12  13
ENDBRANCH   7  11
BRANCH   3  25
HETATM   25  C2  UNL     1      26.014   2.107  53.060  1.00  0.00     0.154 C 
BRANCH  25  26
HETATM   26  C3  UNL     1      27.038   1.077  52.733  1.00  0.00     0.292 C 
BRANCH  26  27
HETATM   27  N2  UNL     1      27.098  -0.022  53.659  1.00  0.00     0.090 N 
HETATM   28  C4  UNL     1      27.908   0.251  54.814  1.00  0.00     0.272 C 
HETATM   29  C5  UNL     1      29.279   0.750  54.462  1.00  0.00     0.030 C 
HETATM   30  C6  UNL     1      29.903  -0.264  53.543  1.00  0.00     0.003 C 
HETATM   31  C7  UNL     1      29.056  -1.493  53.332  1.00  0.00     0.030 C 
HETATM   32  C8  UNL     1      27.654  -1.163  52.931  1.00  0.00     0.272 C 
ENDBRANCH  26  27
ENDBRANCH  25  26
ENDBRANCH   3  25
TORSDOF 7
ENDMDL
MODEL 9
REMARK VINA RESULT:      -7.5      4.496      6.190
REMARK  7 active torsions:
REMARK  status: ('A' for Active; 'I' for Inactive)
REMARK       I    between atoms: C1_2  and  N1_3 
REMARK       I    between atoms: C1_2  and  N3_12 
REMARK    1  A    between atoms: N1_3  and  C2_4 
REMARK    2  A    between atoms: C2_4  and  C3_5 
REMARK    3  A    between atoms: C3_5  and  N2_6 
REMARK    4  A    between atoms: C11_15  and  N4_16 
REMARK    5  A    between atoms: C12_17  and  N5_18 
REMARK    6  A    between atoms: C13_19  and  N6_20 
REMARK    7  A    between atoms: N6_20  and  C14_21 
ROOT
HETATM    1  O1  UNL     1      23.729   4.126  53.100  1.00  0.00    -0.247 OA
HETATM    2  C1  UNL     1      23.889   3.964  51.864  1.00  0.00     0.322 C 
HETATM    3  N1  UNL     1      24.008   2.655  51.298  1.00  0.00    -0.341 N 
HETATM    4  N3  UNL     1      23.950   5.133  51.019  1.00  0.00    -0.303 N 
HETATM    5  C9  UNL     1      23.834   6.495  51.550  1.00  0.00     0.089 C 
HETATM    6  C10 UNL     1      24.736   6.816  50.608  1.00  0.00     0.081 A 
HETATM    7  C11 UNL     1      25.683   6.803  49.502  1.00  0.00     0.052 A 
HETATM    8  C20 UNL     1      25.107   5.828  48.832  1.00  0.00     0.029 A 
HETATM    9  C21 UNL     1      24.078   5.711  49.806  1.00  0.00     0.139 A 
HETATM   10  H1  UNL     1      24.139   2.649  50.253  1.00  0.00     0.164 HD
ENDROOT
BRANCH   7  11
HETATM   11  N4  UNL     1      26.813   7.680  49.405  1.00  0.00    -0.245 NA
HETATM   12  C12 UNL     1      27.774   7.423  48.595  1.00  0.00     0.234 C 
BRANCH  12  13
HETATM   13  N5  UNL     1      29.004   7.588  47.918  1.00  0.00    -0.237 NA
HETATM   14  C13 UNL     1      30.046   6.970  48.320  1.00  0.00     0.208 C 
BRANCH  14  15
HETATM   15  N6  UNL     1      30.602   6.081  49.257  1.00  0.00    -0.351 N 
HETATM   16  H19 UNL     1      29.995   6.116  50.084  1.00  0.00     0.166 HD
BRANCH  15  17
HETATM   17  C14 UNL     1      31.750   5.551  48.609  1.00  0.00     0.034 A 
HETATM   18  C15 UNL     1      31.597   4.641  47.578  1.00  0.00     0.032 A 
HETATM   19  C16 UNL     1      32.756   4.158  46.991  1.00  0.00     0.046 A 
HETATM   20  C17 UNL     1      33.974   4.603  47.459  1.00  0.00     0.138 A 
HETATM   21  F1  UNL     1      35.118   4.135  46.890  1.00  0.00    -0.204 F 
HETATM   22  C18 UNL     1      34.117   5.509  48.485  1.00  0.00     0.074 A 
HETATM   23 CL1  UNL     1      35.723   6.022  49.016  1.00  0.00    -0.081 Cl
HETATM   24  C19 UNL     1      32.972   6.003  49.083  1.00  0.00     0.056 A 
ENDBRANCH  15  17
ENDBRANCH  14  15
ENDBRANCH  12  13
ENDBRANCH   7  11
BRANCH   3  25
HETATM   25  C2  UNL     1      23.962   1.427  52.038  1.00  0.00     0.154 C 
BRANCH  25  26
HETATM   26  C3  UNL     1      25.306   1.121  52.602  1.00  0.00     0.292 C 
BRANCH  26  27
HETATM   27  N2  UNL     1      25.559  -0.277  52.822  1.00  0.00     0.090 N 
HETATM   28  C4  UNL     1      25.606  -0.635  54.213  1.00  0.00     0.272 C 
HETATM   29  C5  UNL     1      26.545   0.226  55.006  1.00  0.00     0.030 C 
HETATM   30  C6  UNL     1      27.893   0.151  54.342  1.00  0.00     0.003 C 
HETATM   31  C7  UNL     1      27.944  -0.812  53.183  1.00  0.00     0.030 C 
HETATM   32  C8  UNL     1      26.846  -0.580  52.195  1.00  0.00     0.272 C 
ENDBRANCH  26  27
ENDBRANCH  25  26
ENDBRANCH   3  25
TORSDOF 7
ENDMDL
