MODEL 1
REMARK VINA RESULT:      -8.6      0.000      0.000
REMARK  8 active torsions:
REMARK  status: ('A' for Active; 'I' for Inactive)
REMARK    1  A    between atoms: O1_2  and  C2_3 
REMARK    2  A    between atoms: C6_9  and  N3_10 
REMARK    3  A    between atoms: N3_10  and  C7_11 
REMARK    4  A    between atoms: C15_21  and  O2_22 
REMARK    5  A    between atoms: O2_22  and  C16_23 
REMARK    6  A    between atoms: C16_23  and  C17_24 
REMARK    7  A    between atoms: C17_24  and  C18_25 
REMARK    8  A    between atoms: C18_25  and  N4_26 
ROOT
HETATM    1  C2  UNL     1      20.105  -0.052  52.546  1.00  0.00     0.103 A 
HETATM    2  C3  UNL     1      20.437  -0.662  53.737  1.00  0.00     0.072 A 
HETATM    3  C4  UNL     1      21.761  -0.765  54.099  1.00  0.00     0.075 A 
HETATM    4  N1  UNL     1      22.093  -1.374  55.278  1.00  0.00    -0.241 NA
HETATM    5  C5  UNL     1      23.351  -1.502  55.671  1.00  0.00     0.236 A 
HETATM    6  N2  UNL     1      24.304  -1.017  54.886  1.00  0.00    -0.224 NA
HETATM    7  C6  UNL     1      24.138  -0.399  53.711  1.00  0.00     0.142 A 
HETATM    8  C13 UNL     1      22.818  -0.295  53.351  1.00  0.00     0.042 A 
HETATM    9  C14 UNL     1      22.418   0.303  52.173  1.00  0.00     0.057 A 
HETATM   10  C15 UNL     1      21.119   0.444  51.739  1.00  0.00     0.103 A 
ENDROOT
BRANCH   7  11
HETATM   11  N3  UNL     1      25.163   0.113  52.898  1.00  0.00    -0.340 N 
HETATM   12  H6  UNL     1      24.990   0.673  52.059  1.00  0.00     0.167 HD
BRANCH  11  13
HETATM   13  C7  UNL     1      26.544  -0.059  53.107  1.00  0.00     0.035 A 
HETATM   14  C8  UNL     1      27.210  -1.231  52.847  1.00  0.00     0.032 A 
HETATM   15  C9  UNL     1      28.558  -1.431  53.061  1.00  0.00     0.046 A 
HETATM   16  C10 UNL     1      29.328  -0.408  53.570  1.00  0.00     0.138 A 
HETATM   17  F1  UNL     1      30.655  -0.535  53.803  1.00  0.00    -0.204 F 
HETATM   18  C11 UNL     1      28.723   0.811  53.858  1.00  0.00     0.074 A 
HETATM   19 CL1  UNL     1      29.650   2.153  54.509  1.00  0.00    -0.081 Cl
HETATM   20  C12 UNL     1      27.375   0.919  53.613  1.00  0.00     0.056 A 
ENDBRANCH  11  13
ENDBRANCH   7  11
BRANCH  10  21
HETATM   21  O2  UNL     1      20.735   1.044  50.555  1.00  0.00    -0.348 OA
BRANCH  21  22
HETATM   22  C16 UNL     1      21.256   2.286  50.137  1.00  0.00     0.177 C 
BRANCH  22  23
HETATM   23  C17 UNL     1      22.366   2.130  49.138  1.00  0.00     0.057 C 
BRANCH  23  24
HETATM   24  C18 UNL     1      23.447   3.155  49.261  1.00  0.00     0.274 C 
BRANCH  24  25
HETATM   25  N4  UNL     1      23.904   3.413  50.589  1.00  0.00     0.092 N 
HETATM   26  C19 UNL     1      24.083   4.809  50.910  1.00  0.00     0.298 C 
HETATM   27  C20 UNL     1      24.998   5.427  49.873  1.00  0.00     0.198 C 
HETATM   28  O3  UNL     1      26.199   4.787  49.726  1.00  0.00    -0.388 OA
HETATM   29  C21 UNL     1      26.166   3.417  49.702  1.00  0.00     0.198 C 
HETATM   30  C22 UNL     1      25.231   2.809  50.716  1.00  0.00     0.298 C 
ENDBRANCH  24  25
ENDBRANCH  23  24
ENDBRANCH  22  23
ENDBRANCH  21  22
ENDBRANCH  10  21
BRANCH   1  31
HETATM   31  O1  UNL     1      18.783   0.069  52.149  1.00  0.00    -0.353 OA
HETATM   32  C1  UNL     1      17.782  -0.823  52.600  1.00  0.00     0.210 C 
ENDBRANCH   1  31
TORSDOF 8
ENDMDL
MODEL 2
REMARK VINA RESULT:      -7.9      1.334      1.837
REMARK  8 active torsions:
REMARK  status: ('A' for Active; 'I' for Inactive)
REMARK    1  A    between atoms: O1_2  and  C2_3 
REMARK    2  A    between atoms: C6_9  and  N3_10 
REMARK    3  A    between atoms: N3_10  and  C7_11 
REMARK    4  A    between atoms: C15_21  and  O2_22 
REMARK    5  A    between atoms: O2_22  and  C16_23 
REMARK    6  A    between atoms: C16_23  and  C17_24 
REMARK    7  A    between atoms: C17_24  and  C18_25 
REMARK    8  A    between atoms: C18_25  and  N4_26 
ROOT
HETATM    1  C2  UNL     1      19.593   0.019  51.957  1.00  0.00     0.103 A 
HETATM    2  C3  UNL     1      19.870  -0.503  53.203  1.00  0.00     0.072 A 
HETATM    3  C4  UNL     1      21.177  -0.594  53.623  1.00  0.00     0.075 A 
HETATM    4  N1  UNL     1      21.455  -1.117  54.857  1.00  0.00    -0.241 NA
HETATM    5  C5  UNL     1      22.696  -1.229  55.307  1.00  0.00     0.236 A 
HETATM    6  N2  UNL     1      23.685  -0.817  54.526  1.00  0.00    -0.224 NA
HETATM    7  C6  UNL     1      23.573  -0.288  53.301  1.00  0.00     0.142 A 
HETATM    8  C13 UNL     1      22.269  -0.196  52.883  1.00  0.00     0.042 A 
HETATM    9  C14 UNL     1      21.923   0.316  51.649  1.00  0.00     0.057 A 
HETATM   10  C15 UNL     1      20.644   0.440  51.156  1.00  0.00     0.103 A 
ENDROOT
BRANCH   7  11
HETATM   11  N3  UNL     1      24.635   0.149  52.493  1.00  0.00    -0.340 N 
HETATM   12  H6  UNL     1      24.548   0.309  51.486  1.00  0.00     0.167 HD
BRANCH  11  13
HETATM   13  C7  UNL     1      25.945   0.426  52.930  1.00  0.00     0.035 A 
HETATM   14  C8  UNL     1      26.362   1.669  53.335  1.00  0.00     0.032 A 
HETATM   15  C9  UNL     1      27.643   1.970  53.748  1.00  0.00     0.046 A 
HETATM   16  C10 UNL     1      28.603   0.982  53.772  1.00  0.00     0.138 A 
HETATM   17  F1  UNL     1      29.878   1.206  54.167  1.00  0.00    -0.204 F 
HETATM   18  C11 UNL     1      28.254  -0.306  53.376  1.00  0.00     0.074 A 
HETATM   19 CL1  UNL     1      29.433  -1.608  53.383  1.00  0.00    -0.081 Cl
HETATM   20  C12 UNL     1      26.955  -0.513  52.980  1.00  0.00     0.056 A 
ENDBRANCH  11  13
ENDBRANCH   7  11
BRANCH  10  21
HETATM   21  O2  UNL     1      20.314   0.953  49.916  1.00  0.00    -0.348 OA
BRANCH  21  22
HETATM   22  C16 UNL     1      20.616   2.280  49.546  1.00  0.00     0.177 C 
BRANCH  22  23
HETATM   23  C17 UNL     1      21.909   2.380  48.789  1.00  0.00     0.057 C 
BRANCH  23  24
HETATM   24  C18 UNL     1      22.598   3.699  48.931  1.00  0.00     0.274 C 
BRANCH  24  25
HETATM   25  N4  UNL     1      24.015   3.640  49.099  1.00  0.00     0.092 N 
HETATM   26  C19 UNL     1      24.457   2.997  50.313  1.00  0.00     0.298 C 
HETATM   27  C20 UNL     1      23.783   3.674  51.489  1.00  0.00     0.198 C 
HETATM   28  O3  UNL     1      23.966   5.028  51.542  1.00  0.00    -0.388 OA
HETATM   29  C21 UNL     1      23.852   5.711  50.359  1.00  0.00     0.198 C 
HETATM   30  C22 UNL     1      24.500   5.017  49.187  1.00  0.00     0.298 C 
ENDBRANCH  24  25
ENDBRANCH  23  24
ENDBRANCH  22  23
ENDBRANCH  21  22
ENDBRANCH  10  21
BRANCH   1  31
HETATM   31  O1  UNL     1      18.289   0.125  51.502  1.00  0.00    -0.353 OA
HETATM   32  C1  UNL     1      17.543   1.319  51.639  1.00  0.00     0.210 C 
ENDBRANCH   1  31
TORSDOF 8
ENDMDL
MODEL 3
REMARK VINA RESULT:      -7.9      3.633      5.740
REMARK  8 active torsions:
REMARK  status: ('A' for Active; 'I' for Inactive)
REMARK    1  A    between atoms: O1_2  and  C2_3 
REMARK    2  A    between atoms: C6_9  and  N3_10 
REMARK    3  A    between atoms: N3_10  and  C7_11 
REMARK    4  A    between atoms: C15_21  and  O2_22 
REMARK    5  A    between atoms: O2_22  and  C16_23 
REMARK    6  A    between atoms: C16_23  and  C17_24 
REMARK    7  A    between atoms: C17_24  and  C18_25 
REMARK    8  A    between atoms: C18_25  and  N4_26 
ROOT
HETATM    1  C2  UNL     1      23.801   4.467  49.095  1.00  0.00     0.103 A 
HETATM    2  C3  UNL     1      22.862   3.729  49.783  1.00  0.00     0.072 A 
HETATM    3  C4  UNL     1      23.224   3.091  50.947  1.00  0.00     0.075 A 
HETATM    4  N1  UNL     1      22.295   2.353  51.630  1.00  0.00    -0.241 NA
HETATM    5  C5  UNL     1      22.593   1.717  52.753  1.00  0.00     0.236 A 
HETATM    6  N2  UNL     1      23.832   1.811  53.215  1.00  0.00    -0.224 NA
HETATM    7  C6  UNL     1      24.846   2.489  52.664  1.00  0.00     0.142 A 
HETATM    8  C13 UNL     1      24.484   3.127  51.504  1.00  0.00     0.042 A 
HETATM    9  C14 UNL     1      25.374   3.881  50.767  1.00  0.00     0.057 A 
HETATM   10  C15 UNL     1      25.092   4.547  49.595  1.00  0.00     0.103 A 
ENDROOT
BRANCH   7  11
HETATM   11  N3  UNL     1      26.150   2.581  53.175  1.00  0.00    -0.340 N 
HETATM   12  H6  UNL     1      26.554   3.449  53.537  1.00  0.00     0.167 HD
BRANCH  11  13
HETATM   13  C7  UNL     1      27.076   1.524  53.266  1.00  0.00     0.035 A 
HETATM   14  C8  UNL     1      28.371   1.684  53.692  1.00  0.00     0.032 A 
HETATM   15  C9  UNL     1      29.302   0.670  53.772  1.00  0.00     0.046 A 
HETATM   16  C10 UNL     1      28.949  -0.611  53.407  1.00  0.00     0.138 A 
HETATM   17  F1  UNL     1      29.811  -1.654  53.461  1.00  0.00    -0.204 F 
HETATM   18  C11 UNL     1      27.652  -0.853  52.964  1.00  0.00     0.074 A 
HETATM   19 CL1  UNL     1      27.141  -2.463  52.485  1.00  0.00    -0.081 Cl
HETATM   20  C12 UNL     1      26.793   0.219  52.918  1.00  0.00     0.056 A 
ENDBRANCH  11  13
ENDBRANCH   7  11
BRANCH  10  21
HETATM   21  O2  UNL     1      25.996   5.298  48.867  1.00  0.00    -0.348 OA
BRANCH  21  22
HETATM   22  C16 UNL     1      27.343   4.912  48.713  1.00  0.00     0.177 C 
BRANCH  22  23
HETATM   23  C17 UNL     1      28.210   6.045  48.247  1.00  0.00     0.057 C 
BRANCH  23  24
HETATM   24  C18 UNL     1      29.659   5.696  48.129  1.00  0.00     0.274 C 
BRANCH  24  25
HETATM   25  N4  UNL     1      30.533   6.783  47.820  1.00  0.00     0.092 N 
HETATM   26  C19 UNL     1      31.620   6.455  46.929  1.00  0.00     0.298 C 
HETATM   27  C20 UNL     1      32.376   5.276  47.507  1.00  0.00     0.198 C 
HETATM   28  O3  UNL     1      32.816   5.460  48.789  1.00  0.00    -0.388 OA
HETATM   29  C21 UNL     1      31.936   6.046  49.662  1.00  0.00     0.198 C 
HETATM   30  C22 UNL     1      31.165   7.200  49.072  1.00  0.00     0.298 C 
ENDBRANCH  24  25
ENDBRANCH  23  24
ENDBRANCH  22  23
ENDBRANCH  21  22
ENDBRANCH  10  21
BRANCH   1  31
HETATM   31  O1  UNL     1      23.472   5.123  47.919  1.00  0.00    -0.353 OA
HETATM   32  C1  UNL     1      22.748   6.338  47.916  1.00  0.00     0.210 C 
ENDBRANCH   1  31
TORSDOF 8
ENDMDL
MODEL 4
REMARK VINA RESULT:      -7.9      1.906      2.229
REMARK  8 active torsions:
REMARK  status: ('A' for Active; 'I' for Inactive)
REMARK    1  A    between atoms: O1_2  and  C2_3 
REMARK    2  A    between atoms: C6_9  and  N3_10 
REMARK    3  A    between atoms: N3_10  and  C7_11 
REMARK    4  A    between atoms: C15_21  and  O2_22 
REMARK    5  A    between atoms: O2_22  and  C16_23 
REMARK    6  A    between atoms: C16_23  and  C17_24 
REMARK    7  A    between atoms: C17_24  and  C18_25 
REMARK    8  A    between atoms: C18_25  and  N4_26 
ROOT
HETATM    1  C2  UNL     1      19.941   0.459  52.407  1.00  0.00     0.103 A 
HETATM    2  C3  UNL     1      20.213  -0.253  53.556  1.00  0.00     0.072 A 
HETATM    3  C4  UNL     1      21.521  -0.480  53.918  1.00  0.00     0.075 A 
HETATM    4  N1  UNL     1      21.793  -1.192  55.055  1.00  0.00    -0.241 NA
HETATM    5  C5  UNL     1      23.033  -1.441  55.446  1.00  0.00     0.236 A 
HETATM    6  N2  UNL     1      24.029  -0.978  54.702  1.00  0.00    -0.224 NA
HETATM    7  C6  UNL     1      23.924  -0.271  53.570  1.00  0.00     0.142 A 
HETATM    8  C13 UNL     1      22.619  -0.043  53.210  1.00  0.00     0.042 A 
HETATM    9  C14 UNL     1      22.279   0.662  52.074  1.00  0.00     0.057 A 
HETATM   10  C15 UNL     1      20.999   0.930  51.642  1.00  0.00     0.103 A 
ENDROOT
BRANCH   7  11
HETATM   11  N3  UNL     1      24.992   0.215  52.801  1.00  0.00    -0.340 N 
HETATM   12  H6  UNL     1      24.869   0.807  51.975  1.00  0.00     0.167 HD
BRANCH  11  13
HETATM   13  C7  UNL     1      26.359  -0.028  53.041  1.00  0.00     0.035 A 
HETATM   14  C8  UNL     1      26.972  -1.229  52.785  1.00  0.00     0.032 A 
HETATM   15  C9  UNL     1      28.302  -1.498  53.029  1.00  0.00     0.046 A 
HETATM   16  C10 UNL     1      29.109  -0.520  53.567  1.00  0.00     0.138 A 
HETATM   17  F1  UNL     1      30.422  -0.714  53.831  1.00  0.00    -0.204 F 
HETATM   18  C11 UNL     1      28.559   0.726  53.853  1.00  0.00     0.074 A 
HETATM   19 CL1  UNL     1      29.535   2.014  54.540  1.00  0.00    -0.081 Cl
HETATM   20  C12 UNL     1      27.225   0.903  53.577  1.00  0.00     0.056 A 
ENDBRANCH  11  13
ENDBRANCH   7  11
BRANCH  10  21
HETATM   21  O2  UNL     1      20.675   1.637  50.500  1.00  0.00    -0.348 OA
BRANCH  21  22
HETATM   22  C16 UNL     1      20.849   1.100  49.208  1.00  0.00     0.177 C 
BRANCH  22  23
HETATM   23  C17 UNL     1      22.023   1.706  48.494  1.00  0.00     0.057 C 
BRANCH  23  24
HETATM   24  C18 UNL     1      21.716   2.994  47.799  1.00  0.00     0.274 C 
BRANCH  24  25
HETATM   25  N4  UNL     1      22.445   4.132  48.259  1.00  0.00     0.092 N 
HETATM   26  C19 UNL     1      21.880   4.790  49.412  1.00  0.00     0.298 C 
HETATM   27  C20 UNL     1      20.436   5.135  49.110  1.00  0.00     0.198 C 
HETATM   28  O3  UNL     1      20.258   5.874  47.972  1.00  0.00    -0.388 OA
HETATM   29  C21 UNL     1      20.988   5.499  46.875  1.00  0.00     0.198 C 
HETATM   30  C22 UNL     1      22.416   5.128  47.187  1.00  0.00     0.298 C 
ENDBRANCH  24  25
ENDBRANCH  23  24
ENDBRANCH  22  23
ENDBRANCH  21  22
ENDBRANCH  10  21
BRANCH   1  31
HETATM   31  O1  UNL     1      18.637   0.707  52.012  1.00  0.00    -0.353 OA
HETATM   32  C1  UNL     1      17.823  -0.300  51.442  1.00  0.00     0.210 C 
ENDBRANCH   1  31
TORSDOF 8
ENDMDL
MODEL 5
REMARK VINA RESULT:      -7.8      4.064      6.714
REMARK  8 active torsions:
REMARK  status: ('A' for Active; 'I' for Inactive)
REMARK    1  A    between atoms: O1_2  and  C2_3 
REMARK    2  A    between atoms: C6_9  and  N3_10 
REMARK    3  A    between atoms: N3_10  and  C7_11 
REMARK    4  A    between atoms: C15_21  and  O2_22 
REMARK    5  A    between atoms: O2_22  and  C16_23 
REMARK    6  A    between atoms: C16_23  and  C17_24 
REMARK    7  A    between atoms: C17_24  and  C18_25 
REMARK    8  A    between atoms: C18_25  and  N4_26 
ROOT
HETATM    1  C2  UNL     1      26.548   0.180  52.959  1.00  0.00     0.103 A 
HETATM    2  C3  UNL     1      25.956  -0.582  53.943  1.00  0.00     0.072 A 
HETATM    3  C4  UNL     1      24.592  -0.524  54.116  1.00  0.00     0.075 A 
HETATM    4  N1  UNL     1      24.002  -1.275  55.096  1.00  0.00    -0.241 NA
HETATM    5  C5  UNL     1      22.694  -1.253  55.305  1.00  0.00     0.236 A 
HETATM    6  N2  UNL     1      21.950  -0.476  54.531  1.00  0.00    -0.224 NA
HETATM    7  C6  UNL     1      22.377   0.313  53.537  1.00  0.00     0.142 A 
HETATM    8  C13 UNL     1      23.738   0.253  53.365  1.00  0.00     0.042 A 
HETATM    9  C14 UNL     1      24.392   0.990  52.398  1.00  0.00     0.057 A 
HETATM   10  C15 UNL     1      25.749   0.989  52.164  1.00  0.00     0.103 A 
ENDROOT
BRANCH   7  11
HETATM   11  N3  UNL     1      21.569   1.124  52.724  1.00  0.00    -0.340 N 
HETATM   12  H6  UNL     1      21.778   2.105  52.523  1.00  0.00     0.167 HD
BRANCH  11  13
HETATM   13  C7  UNL     1      20.383   0.724  52.080  1.00  0.00     0.035 A 
HETATM   14  C8  UNL     1      20.035   1.126  50.815  1.00  0.00     0.032 A 
HETATM   15  C9  UNL     1      18.870   0.765  50.169  1.00  0.00     0.046 A 
HETATM   16  C10 UNL     1      17.964  -0.056  50.805  1.00  0.00     0.138 A 
HETATM   17  F1  UNL     1      16.803  -0.451  50.232  1.00  0.00    -0.204 F 
HETATM   18  C11 UNL     1      18.248  -0.506  52.091  1.00  0.00     0.074 A 
HETATM   19 CL1  UNL     1      17.134  -1.554  52.953  1.00  0.00    -0.081 Cl
HETATM   20  C12 UNL     1      19.432  -0.095  52.654  1.00  0.00     0.056 A 
ENDBRANCH  11  13
ENDBRANCH   7  11
BRANCH  10  21
HETATM   21  O2  UNL     1      26.390   1.734  51.192  1.00  0.00    -0.348 OA
BRANCH  21  22
HETATM   22  C16 UNL     1      26.086   3.091  50.961  1.00  0.00     0.177 C 
BRANCH  22  23
HETATM   23  C17 UNL     1      25.080   3.269  49.861  1.00  0.00     0.057 C 
BRANCH  23  24
HETATM   24  C18 UNL     1      24.042   4.307  50.146  1.00  0.00     0.274 C 
BRANCH  24  25
HETATM   25  N4  UNL     1      24.059   4.852  51.466  1.00  0.00     0.092 N 
HETATM   26  C19 UNL     1      22.965   4.435  52.310  1.00  0.00     0.298 C 
HETATM   27  C20 UNL     1      21.664   4.741  51.597  1.00  0.00     0.198 C 
HETATM   28  O3  UNL     1      21.528   6.044  51.203  1.00  0.00    -0.388 OA
HETATM   29  C21 UNL     1      22.629   6.635  50.641  1.00  0.00     0.198 C 
HETATM   30  C22 UNL     1      23.925   6.304  51.339  1.00  0.00     0.298 C 
ENDBRANCH  24  25
ENDBRANCH  23  24
ENDBRANCH  22  23
ENDBRANCH  21  22
ENDBRANCH  10  21
BRANCH   1  31
HETATM   31  O1  UNL     1      27.918   0.147  52.757  1.00  0.00    -0.353 OA
HETATM   32  C1  UNL     1      28.799  -0.444  53.693  1.00  0.00     0.210 C 
ENDBRANCH   1  31
TORSDOF 8
ENDMDL
MODEL 6
REMARK VINA RESULT:      -7.8      7.262     11.499
REMARK  8 active torsions:
REMARK  status: ('A' for Active; 'I' for Inactive)
REMARK    1  A    between atoms: O1_2  and  C2_3 
REMARK    2  A    between atoms: C6_9  and  N3_10 
REMARK    3  A    between atoms: N3_10  and  C7_11 
REMARK    4  A    between atoms: C15_21  and  O2_22 
REMARK    5  A    between atoms: O2_22  and  C16_23 
REMARK    6  A    between atoms: C16_23  and  C17_24 
REMARK    7  A    between atoms: C17_24  and  C18_25 
REMARK    8  A    between atoms: C18_25  and  N4_26 
ROOT
HETATM    1  C2  UNL     1      32.946   6.088  48.855  1.00  0.00     0.103 A 
HETATM    2  C3  UNL     1      32.634   7.399  49.144  1.00  0.00     0.072 A 
HETATM    3  C4  UNL     1      31.343   7.842  48.968  1.00  0.00     0.075 A 
HETATM    4  N1  UNL     1      31.031   9.145  49.250  1.00  0.00    -0.241 NA
HETATM    5  C5  UNL     1      29.805   9.621  49.095  1.00  0.00     0.236 A 
HETATM    6  N2  UNL     1      28.864   8.797  48.654  1.00  0.00    -0.224 NA
HETATM    7  C6  UNL     1      29.013   7.505  48.337  1.00  0.00     0.142 A 
HETATM    8  C13 UNL     1      30.301   7.064  48.514  1.00  0.00     0.042 A 
HETATM    9  C14 UNL     1      30.680   5.765  48.243  1.00  0.00     0.057 A 
HETATM   10  C15 UNL     1      31.947   5.245  48.391  1.00  0.00     0.103 A 
ENDROOT
BRANCH   7  11
HETATM   11  N3  UNL     1      28.000   6.648  47.878  1.00  0.00    -0.340 N 
HETATM   12  H6  UNL     1      27.804   6.488  46.886  1.00  0.00     0.167 HD
BRANCH  11  13
HETATM   13  C7  UNL     1      27.124   5.899  48.687  1.00  0.00     0.035 A 
HETATM   14  C8  UNL     1      27.218   4.540  48.849  1.00  0.00     0.032 A 
HETATM   15  C9  UNL     1      26.361   3.781  49.619  1.00  0.00     0.046 A 
HETATM   16  C10 UNL     1      25.324   4.391  50.290  1.00  0.00     0.138 A 
HETATM   17  F1  UNL     1      24.448   3.709  51.063  1.00  0.00    -0.204 F 
HETATM   18  C11 UNL     1      25.165   5.769  50.174  1.00  0.00     0.074 A 
HETATM   19 CL1  UNL     1      23.863   6.605  51.004  1.00  0.00    -0.081 Cl
HETATM   20  C12 UNL     1      26.066   6.443  49.386  1.00  0.00     0.056 A 
ENDBRANCH  11  13
ENDBRANCH   7  11
BRANCH  10  21
HETATM   21  O2  UNL     1      32.310   3.941  48.114  1.00  0.00    -0.348 OA
BRANCH  21  22
HETATM   22  C16 UNL     1      32.262   3.407  46.810  1.00  0.00     0.177 C 
BRANCH  22  23
HETATM   23  C17 UNL     1      33.455   3.799  45.989  1.00  0.00     0.057 C 
BRANCH  23  24
HETATM   24  C18 UNL     1      33.138   4.709  44.846  1.00  0.00     0.274 C 
BRANCH  24  25
HETATM   25  N4  UNL     1      33.972   5.861  44.723  1.00  0.00     0.092 N 
HETATM   26  C19 UNL     1      33.534   7.013  45.475  1.00  0.00     0.298 C 
HETATM   27  C20 UNL     1      32.100   7.318  45.093  1.00  0.00     0.198 C 
HETATM   28  O3  UNL     1      31.896   7.487  43.751  1.00  0.00    -0.388 OA
HETATM   29  C21 UNL     1      32.522   6.597  42.918  1.00  0.00     0.198 C 
HETATM   30  C22 UNL     1      33.939   6.274  43.320  1.00  0.00     0.298 C 
ENDBRANCH  24  25
ENDBRANCH  23  24
ENDBRANCH  22  23
ENDBRANCH  21  22
ENDBRANCH  10  21
BRANCH   1  31
HETATM   31  O1  UNL     1      34.235   5.608  49.020  1.00  0.00    -0.353 OA
HETATM   32  C1  UNL     1      35.371   6.374  48.666  1.00  0.00     0.210 C 
ENDBRANCH   1  31
TORSDOF 8
ENDMDL
MODEL 7
REMARK VINA RESULT:      -7.7      3.706      6.171
REMARK  8 active torsions:
REMARK  status: ('A' for Active; 'I' for Inactive)
REMARK    1  A    between atoms: O1_2  and  C2_3 
REMARK    2  A    between atoms: C6_9  and  N3_10 
REMARK    3  A    between atoms: N3_10  and  C7_11 
REMARK    4  A    between atoms: C15_21  and  O2_22 
REMARK    5  A    between atoms: O2_22  and  C16_23 
REMARK    6  A    between atoms: C16_23  and  C17_24 
REMARK    7  A    between atoms: C17_24  and  C18_25 
REMARK    8  A    between atoms: C18_25  and  N4_26 
ROOT
HETATM    1  C2  UNL     1      27.086   0.556  53.434  1.00  0.00     0.103 A 
HETATM    2  C3  UNL     1      26.589  -0.100  54.540  1.00  0.00     0.072 A 
HETATM    3  C4  UNL     1      25.276  -0.512  54.550  1.00  0.00     0.075 A 
HETATM    4  N1  UNL     1      24.779  -1.158  55.649  1.00  0.00    -0.241 NA
HETATM    5  C5  UNL     1      23.523  -1.573  55.710  1.00  0.00     0.236 A 
HETATM    6  N2  UNL     1      22.738  -1.347  54.665  1.00  0.00    -0.224 NA
HETATM    7  C6  UNL     1      23.076  -0.731  53.526  1.00  0.00     0.142 A 
HETATM    8  C13 UNL     1      24.386  -0.321  53.516  1.00  0.00     0.042 A 
HETATM    9  C14 UNL     1      24.945   0.339  52.441  1.00  0.00     0.057 A 
HETATM   10  C15 UNL     1      26.245   0.785  52.354  1.00  0.00     0.103 A 
ENDROOT
BRANCH   7  11
HETATM   11  N3  UNL     1      22.229  -0.508  52.428  1.00  0.00    -0.340 N 
HETATM   12  H6  UNL     1      22.194  -1.122  51.610  1.00  0.00     0.167 HD
BRANCH  11  13
HETATM   13  C7  UNL     1      21.325   0.561  52.288  1.00  0.00     0.035 A 
HETATM   14  C8  UNL     1      19.979   0.394  52.078  1.00  0.00     0.032 A 
HETATM   15  C9  UNL     1      19.075   1.424  51.917  1.00  0.00     0.046 A 
HETATM   16  C10 UNL     1      19.513   2.729  51.964  1.00  0.00     0.138 A 
HETATM   17  F1  UNL     1      18.683   3.788  51.816  1.00  0.00    -0.204 F 
HETATM   18  C11 UNL     1      20.866   2.979  52.174  1.00  0.00     0.074 A 
HETATM   19 CL1  UNL     1      21.486   4.621  52.244  1.00  0.00    -0.081 Cl
HETATM   20  C12 UNL     1      21.692   1.891  52.324  1.00  0.00     0.056 A 
ENDBRANCH  11  13
ENDBRANCH   7  11
BRANCH  10  21
HETATM   21  O2  UNL     1      26.790   1.447  51.271  1.00  0.00    -0.348 OA
BRANCH  21  22
HETATM   22  C16 UNL     1      26.683   2.844  51.110  1.00  0.00     0.177 C 
BRANCH  22  23
HETATM   23  C17 UNL     1      26.320   3.229  49.706  1.00  0.00     0.057 C 
BRANCH  23  24
HETATM   24  C18 UNL     1      26.356   4.701  49.448  1.00  0.00     0.274 C 
BRANCH  24  25
HETATM   25  N4  UNL     1      25.186   5.251  48.842  1.00  0.00     0.092 N 
HETATM   26  C19 UNL     1      25.326   6.608  48.371  1.00  0.00     0.298 C 
HETATM   27  C20 UNL     1      25.818   7.467  49.517  1.00  0.00     0.198 C 
HETATM   28  O3  UNL     1      25.044   7.404  50.644  1.00  0.00    -0.388 OA
HETATM   29  C21 UNL     1      24.607   6.161  51.020  1.00  0.00     0.198 C 
HETATM   30  C22 UNL     1      24.146   5.300  49.871  1.00  0.00     0.298 C 
ENDBRANCH  24  25
ENDBRANCH  23  24
ENDBRANCH  22  23
ENDBRANCH  21  22
ENDBRANCH  10  21
BRANCH   1  31
HETATM   31  O1  UNL     1      28.402   0.985  53.389  1.00  0.00    -0.353 OA
HETATM   32  C1  UNL     1      29.488   0.090  53.532  1.00  0.00     0.210 C 
ENDBRANCH   1  31
TORSDOF 8
ENDMDL
MODEL 8
REMARK VINA RESULT:      -7.7      2.071      3.186
REMARK  8 active torsions:
REMARK  status: ('A' for Active; 'I' for Inactive)
REMARK    1  A    between atoms: O1_2  and  C2_3 
REMARK    2  A    between atoms: C6_9  and  N3_10 
REMARK    3  A    between atoms: N3_10  and  C7_11 
REMARK    4  A    between atoms: C15_21  and  O2_22 
REMARK    5  A    between atoms: O2_22  and  C16_23 
REMARK    6  A    between atoms: C16_23  and  C17_24 
REMARK    7  A    between atoms: C17_24  and  C18_25 
REMARK    8  A    between atoms: C18_25  and  N4_26 
ROOT
HETATM    1  C2  UNL     1      21.366   1.569  49.369  1.00  0.00     0.103 A 
HETATM    2  C3  UNL     1      20.700   0.814  50.310  1.00  0.00     0.072 A 
HETATM    3  C4  UNL     1      21.294   0.571  51.528  1.00  0.00     0.075 A 
HETATM    4  N1  UNL     1      20.637  -0.183  52.462  1.00  0.00    -0.241 NA
HETATM    5  C5  UNL     1      21.166  -0.448  53.647  1.00  0.00     0.236 A 
HETATM    6  N2  UNL     1      22.369   0.040  53.919  1.00  0.00    -0.224 NA
HETATM    7  C6  UNL     1      23.132   0.789  53.113  1.00  0.00     0.142 A 
HETATM    8  C13 UNL     1      22.538   1.033  51.900  1.00  0.00     0.042 A 
HETATM    9  C14 UNL     1      23.150   1.780  50.915  1.00  0.00     0.057 A 
HETATM   10  C15 UNL     1      22.625   2.067  49.674  1.00  0.00     0.103 A 
ENDROOT
BRANCH   7  11
HETATM   11  N3  UNL     1      24.401   1.302  53.425  1.00  0.00    -0.340 N 
HETATM   12  H6  UNL     1      24.557   2.260  53.751  1.00  0.00     0.167 HD
BRANCH  11  13
HETATM   13  C7  UNL     1      25.619   0.600  53.339  1.00  0.00     0.035 A 
HETATM   14  C8  UNL     1      25.738  -0.645  52.774  1.00  0.00     0.032 A 
HETATM   15  C9  UNL     1      26.914  -1.362  52.696  1.00  0.00     0.046 A 
HETATM   16  C10 UNL     1      28.075  -0.827  53.210  1.00  0.00     0.138 A 
HETATM   17  F1  UNL     1      29.263  -1.473  53.167  1.00  0.00    -0.204 F 
HETATM   18  C11 UNL     1      28.033   0.433  53.800  1.00  0.00     0.074 A 
HETATM   19 CL1  UNL     1      29.478   1.168  54.474  1.00  0.00    -0.081 Cl
HETATM   20  C12 UNL     1      26.817   1.073  53.832  1.00  0.00     0.056 A 
ENDBRANCH  11  13
ENDBRANCH   7  11
BRANCH  10  21
HETATM   21  O2  UNL     1      23.252   2.816  48.697  1.00  0.00    -0.348 OA
BRANCH  21  22
HETATM   22  C16 UNL     1      23.466   4.203  48.833  1.00  0.00     0.177 C 
BRANCH  22  23
HETATM   23  C17 UNL     1      24.869   4.523  49.260  1.00  0.00     0.057 C 
BRANCH  23  24
HETATM   24  C18 UNL     1      25.235   5.966  49.119  1.00  0.00     0.274 C 
BRANCH  24  25
HETATM   25  N4  UNL     1      25.488   6.661  50.340  1.00  0.00     0.092 N 
HETATM   26  C19 UNL     1      24.313   6.954  51.127  1.00  0.00     0.298 C 
HETATM   27  C20 UNL     1      23.323   7.698  50.254  1.00  0.00     0.198 C 
HETATM   28  O3  UNL     1      23.826   8.825  49.663  1.00  0.00    -0.388 OA
HETATM   29  C21 UNL     1      25.084   8.730  49.130  1.00  0.00     0.198 C 
HETATM   30  C22 UNL     1      26.058   7.963  49.989  1.00  0.00     0.298 C 
ENDBRANCH  24  25
ENDBRANCH  23  24
ENDBRANCH  22  23
ENDBRANCH  21  22
ENDBRANCH  10  21
BRANCH   1  31
HETATM   31  O1  UNL     1      20.799   1.834  48.133  1.00  0.00    -0.353 OA
HETATM   32  C1  UNL     1      19.824   2.844  47.957  1.00  0.00     0.210 C 
ENDBRANCH   1  31
TORSDOF 8
ENDMDL
MODEL 9
REMARK VINA RESULT:      -7.5      3.488      5.536
REMARK  8 active torsions:
REMARK  status: ('A' for Active; 'I' for Inactive)
REMARK    1  A    between atoms: O1_2  and  C2_3 
REMARK    2  A    between atoms: C6_9  and  N3_10 
REMARK    3  A    between atoms: N3_10  and  C7_11 
REMARK    4  A    between atoms: C15_21  and  O2_22 
REMARK    5  A    between atoms: O2_22  and  C16_23 
REMARK    6  A    between atoms: C16_23  and  C17_24 
REMARK    7  A    between atoms: C17_24  and  C18_25 
REMARK    8  A    between atoms: C18_25  and  N4_26 
ROOT
HETATM    1  C2  UNL     1      23.308   0.156  53.103  1.00  0.00     0.103 A 
HETATM    2  C3  UNL     1      24.542   0.337  53.690  1.00  0.00     0.072 A 
HETATM    3  C4  UNL     1      25.497   1.086  53.042  1.00  0.00     0.075 A 
HETATM    4  N1  UNL     1      26.725   1.262  53.620  1.00  0.00    -0.241 NA
HETATM    5  C5  UNL     1      27.679   1.972  53.036  1.00  0.00     0.236 A 
HETATM    6  N2  UNL     1      27.419   2.520  51.857  1.00  0.00    -0.224 NA
HETATM    7  C6  UNL     1      26.274   2.438  51.168  1.00  0.00     0.142 A 
HETATM    8  C13 UNL     1      25.321   1.692  51.817  1.00  0.00     0.042 A 
HETATM    9  C14 UNL     1      24.067   1.472  51.285  1.00  0.00     0.057 A 
HETATM   10  C15 UNL     1      23.059   0.736  51.868  1.00  0.00     0.103 A 
ENDROOT
BRANCH   7  11
HETATM   11  N3  UNL     1      26.017   3.033  49.923  1.00  0.00    -0.340 N 
HETATM   12  H6  UNL     1      25.653   2.518  49.117  1.00  0.00     0.167 HD
BRANCH  11  13
HETATM   13  C7  UNL     1      26.214   4.390  49.602  1.00  0.00     0.035 A 
HETATM   14  C8  UNL     1      27.230   4.838  48.795  1.00  0.00     0.032 A 
HETATM   15  C9  UNL     1      27.457   6.162  48.481  1.00  0.00     0.046 A 
HETATM   16  C10 UNL     1      26.627   7.136  48.992  1.00  0.00     0.138 A 
HETATM   17  F1  UNL     1      26.790   8.453  48.725  1.00  0.00    -0.204 F 
HETATM   18  C11 UNL     1      25.573   6.758  49.819  1.00  0.00     0.074 A 
HETATM   19 CL1  UNL     1      24.482   7.953  50.501  1.00  0.00    -0.081 Cl
HETATM   20  C12 UNL     1      25.425   5.417  50.076  1.00  0.00     0.056 A 
ENDBRANCH  11  13
ENDBRANCH   7  11
BRANCH  10  21
HETATM   21  O2  UNL     1      21.808   0.524  51.321  1.00  0.00    -0.348 OA
BRANCH  21  22
HETATM   22  C16 UNL     1      21.117   1.527  50.610  1.00  0.00     0.177 C 
BRANCH  22  23
HETATM   23  C17 UNL     1      20.930   1.173  49.164  1.00  0.00     0.057 C 
BRANCH  23  24
HETATM   24  C18 UNL     1      21.408   2.221  48.211  1.00  0.00     0.274 C 
BRANCH  24  25
HETATM   25  N4  UNL     1      20.516   3.316  48.000  1.00  0.00     0.092 N 
HETATM   26  C19 UNL     1      20.218   3.599  46.617  1.00  0.00     0.298 C 
HETATM   27  C20 UNL     1      21.523   3.791  45.873  1.00  0.00     0.198 C 
HETATM   28  O3  UNL     1      22.348   4.739  46.414  1.00  0.00    -0.388 OA
HETATM   29  C21 UNL     1      22.474   4.738  47.778  1.00  0.00     0.198 C 
HETATM   30  C22 UNL     1      21.175   4.518  48.512  1.00  0.00     0.298 C 
ENDBRANCH  24  25
ENDBRANCH  23  24
ENDBRANCH  22  23
ENDBRANCH  21  22
ENDBRANCH  10  21
BRANCH   1  31
HETATM   31  O1  UNL     1      22.323  -0.592  53.727  1.00  0.00    -0.353 OA
HETATM   32  C1  UNL     1      21.371  -0.004  54.593  1.00  0.00     0.210 C 
ENDBRANCH   1  31
TORSDOF 8
ENDMDL
