MODEL 1
REMARK VINA RESULT:      -6.3      0.000      0.000
REMARK  4 active torsions:
REMARK  status: ('A' for Active; 'I' for Inactive)
REMARK    1  A    between atoms: C3_3  and  S1_4 
REMARK    2  A    between atoms: S1_4  and  C4_5 
REMARK    3  A    between atoms: C4_5  and  C5_7 
REMARK    4  A    between atoms: C10_14  and  N3_15 
ROOT
HETATM    1  C1  UNL     1      25.704   5.844  48.953  1.00  0.00     0.113 C 
HETATM    2  C2  UNL     1      25.653   4.615  49.766  1.00  0.00    -0.099 C 
HETATM    3  C3  UNL     1      25.614   3.615  50.452  1.00  0.00    -0.026 C 
ENDROOT
BRANCH   3   4
HETATM    4  S1  UNL     1      25.559   2.179  51.473  1.00  0.00     0.005 SA
BRANCH   4   5
HETATM    5  C4  UNL     1      24.354   2.484  52.758  1.00  0.00     0.235 C 
HETATM    6  O1  UNL     1      24.403   3.514  53.476  1.00  0.00    -0.279 OA
BRANCH   5   7
HETATM    7  C5  UNL     1      23.341   1.435  52.872  1.00  0.00     0.068 C 
HETATM    8  C6  UNL     1      23.718   0.222  53.245  1.00  0.00     0.021 C 
HETATM    9  C7  UNL     1      23.061  -1.058  53.475  1.00  0.00     0.020 C 
HETATM   10  C8  UNL     1      21.801  -1.366  53.805  1.00  0.00     0.118 C 
HETATM   11  N1  UNL     1      20.636  -0.571  54.055  1.00  0.00    -0.254 NA
HETATM   12  C9  UNL     1      20.215   0.614  53.702  1.00  0.00     0.234 C 
HETATM   13  N2  UNL     1      20.814   1.620  52.872  1.00  0.00    -0.223 NA
HETATM   14  C10 UNL     1      22.027   1.970  52.525  1.00  0.00     0.150 C 
BRANCH  14  15
HETATM   15  N3  UNL     1      22.014   3.084  51.640  1.00  0.00    -0.309 N 
HETATM   16  C11 UNL     1      21.951   4.431  52.121  1.00  0.00     0.095 A 
HETATM   17  C12 UNL     1      21.932   5.469  51.325  1.00  0.00    -0.004 A 
HETATM   18  C13 UNL     1      21.977   5.300  49.850  1.00  0.00     0.077 A 
HETATM   19  C14 UNL     1      22.042   3.874  49.437  1.00  0.00     0.015 A 
HETATM   20 BR1  UNL     1      22.098   3.691  47.532  1.00  0.00    -0.053 Br
HETATM   21  C15 UNL     1      22.061   2.810  50.222  1.00  0.00     0.027 A 
HETATM   22  C16 UNL     1      22.127   1.439  49.651  1.00  0.00     0.070 C 
ENDBRANCH  14  15
ENDBRANCH   5   7
ENDBRANCH   4   5
ENDBRANCH   3   4
TORSDOF 4
ENDMDL
MODEL 2
REMARK VINA RESULT:      -5.8      2.906      4.959
REMARK  4 active torsions:
REMARK  status: ('A' for Active; 'I' for Inactive)
REMARK    1  A    between atoms: C3_3  and  S1_4 
REMARK    2  A    between atoms: S1_4  and  C4_5 
REMARK    3  A    between atoms: C4_5  and  C5_7 
REMARK    4  A    between atoms: C10_14  and  N3_15 
ROOT
HETATM    1  C1  UNL     1      17.430  -1.633  52.745  1.00  0.00     0.113 C 
HETATM    2  C2  UNL     1      18.283  -0.507  52.322  1.00  0.00    -0.099 C 
HETATM    3  C3  UNL     1      19.000   0.412  51.986  1.00  0.00    -0.026 C 
ENDROOT
BRANCH   3   4
HETATM    4  S1  UNL     1      20.064   1.735  51.512  1.00  0.00     0.005 SA
BRANCH   4   5
HETATM    5  C4  UNL     1      21.515   1.009  50.762  1.00  0.00     0.235 C 
HETATM    6  O1  UNL     1      21.511   0.608  49.571  1.00  0.00    -0.279 OA
BRANCH   5   7
HETATM    7  C5  UNL     1      22.666   0.938  51.662  1.00  0.00     0.068 C 
HETATM    8  C6  UNL     1      22.598   0.153  52.726  1.00  0.00     0.021 C 
HETATM    9  C7  UNL     1      23.478  -0.196  53.833  1.00  0.00     0.020 C 
HETATM   10  C8  UNL     1      24.812  -0.188  53.947  1.00  0.00     0.118 C 
HETATM   11  N1  UNL     1      25.865   0.163  53.042  1.00  0.00    -0.254 NA
HETATM   12  C9  UNL     1      25.987   0.936  51.996  1.00  0.00     0.234 C 
HETATM   13  N2  UNL     1      25.034   1.776  51.328  1.00  0.00    -0.223 NA
HETATM   14  C10 UNL     1      23.734   1.809  51.176  1.00  0.00     0.150 C 
BRANCH  14  15
HETATM   15  N3  UNL     1      23.330   2.920  50.384  1.00  0.00    -0.309 N 
HETATM   16  C11 UNL     1      23.360   2.878  48.953  1.00  0.00     0.095 A 
HETATM   17  C12 UNL     1      22.998   3.889  48.207  1.00  0.00    -0.004 A 
HETATM   18  C13 UNL     1      22.528   5.159  48.817  1.00  0.00     0.077 A 
HETATM   19  C14 UNL     1      22.528   5.116  50.302  1.00  0.00     0.015 A 
HETATM   20 BR1  UNL     1      21.917   6.766  51.057  1.00  0.00    -0.053 Br
HETATM   21  C15 UNL     1      22.889   4.107  51.078  1.00  0.00     0.027 A 
HETATM   22  C16 UNL     1      22.832   4.222  52.559  1.00  0.00     0.070 C 
ENDBRANCH  14  15
ENDBRANCH   5   7
ENDBRANCH   4   5
ENDBRANCH   3   4
TORSDOF 4
ENDMDL
MODEL 3
REMARK VINA RESULT:      -5.7      3.206      6.680
REMARK  4 active torsions:
REMARK  status: ('A' for Active; 'I' for Inactive)
REMARK    1  A    between atoms: C3_3  and  S1_4 
REMARK    2  A    between atoms: S1_4  and  C4_5 
REMARK    3  A    between atoms: C4_5  and  C5_7 
REMARK    4  A    between atoms: C10_14  and  N3_15 
ROOT
HETATM    1  C1  UNL     1      21.830   0.385  51.553  1.00  0.00     0.113 C 
HETATM    2  C2  UNL     1      22.087   1.389  50.506  1.00  0.00    -0.099 C 
HETATM    3  C3  UNL     1      22.313   2.225  49.656  1.00  0.00    -0.026 C 
ENDROOT
BRANCH   3   4
HETATM    4  S1  UNL     1      22.663   3.451  48.438  1.00  0.00     0.005 SA
BRANCH   4   5
HETATM    5  C4  UNL     1      22.532   5.046  49.233  1.00  0.00     0.235 C 
HETATM    6  O1  UNL     1      21.546   5.345  49.952  1.00  0.00    -0.279 OA
BRANCH   5   7
HETATM    7  C5  UNL     1      23.663   5.932  48.958  1.00  0.00     0.068 C 
HETATM    8  C6  UNL     1      23.782   6.460  47.750  1.00  0.00     0.021 C 
HETATM    9  C7  UNL     1      24.718   7.356  47.082  1.00  0.00     0.020 C 
HETATM   10  C8  UNL     1      25.543   8.297  47.556  1.00  0.00     0.118 C 
HETATM   11  N1  UNL     1      25.818   8.776  48.878  1.00  0.00    -0.254 NA
HETATM   12  C9  UNL     1      25.732   8.294  50.089  1.00  0.00     0.234 C 
HETATM   13  N2  UNL     1      25.299   7.011  50.565  1.00  0.00    -0.223 NA
HETATM   14  C10 UNL     1      24.495   6.064  50.152  1.00  0.00     0.150 C 
BRANCH  14  15
HETATM   15  N3  UNL     1      24.458   4.976  51.069  1.00  0.00    -0.309 N 
HETATM   16  C11 UNL     1      23.555   4.956  52.181  1.00  0.00     0.095 A 
HETATM   17  C12 UNL     1      23.509   3.970  53.038  1.00  0.00    -0.004 A 
HETATM   18  C13 UNL     1      24.408   2.795  52.900  1.00  0.00     0.077 A 
HETATM   19  C14 UNL     1      25.308   2.897  51.723  1.00  0.00     0.015 A 
HETATM   20 BR1  UNL     1      26.453   1.370  51.574  1.00  0.00    -0.053 Br
HETATM   21  C15 UNL     1      25.374   3.883  50.844  1.00  0.00     0.027 A 
HETATM   22  C16 UNL     1      26.338   3.837  49.713  1.00  0.00     0.070 C 
ENDBRANCH  14  15
ENDBRANCH   5   7
ENDBRANCH   4   5
ENDBRANCH   3   4
TORSDOF 4
ENDMDL
MODEL 4
REMARK VINA RESULT:      -5.7      2.749      3.802
REMARK  4 active torsions:
REMARK  status: ('A' for Active; 'I' for Inactive)
REMARK    1  A    between atoms: C3_3  and  S1_4 
REMARK    2  A    between atoms: S1_4  and  C4_5 
REMARK    3  A    between atoms: C4_5  and  C5_7 
REMARK    4  A    between atoms: C10_14  and  N3_15 
ROOT
HETATM    1  C1  UNL     1      22.862   7.288  46.769  1.00  0.00     0.113 C 
HETATM    2  C2  UNL     1      22.424   6.224  47.690  1.00  0.00    -0.099 C 
HETATM    3  C3  UNL     1      22.060   5.335  48.431  1.00  0.00    -0.026 C 
ENDROOT
BRANCH   3   4
HETATM    4  S1  UNL     1      21.534   4.024  49.486  1.00  0.00     0.005 SA
BRANCH   4   5
HETATM    5  C4  UNL     1      22.822   2.785  49.481  1.00  0.00     0.235 C 
HETATM    6  O1  UNL     1      23.457   2.500  48.435  1.00  0.00    -0.279 OA
BRANCH   5   7
HETATM    7  C5  UNL     1      23.044   2.165  50.786  1.00  0.00     0.068 C 
HETATM    8  C6  UNL     1      22.226   1.203  51.184  1.00  0.00     0.021 C 
HETATM    9  C7  UNL     1      22.094   0.354  52.361  1.00  0.00     0.020 C 
HETATM   10  C8  UNL     1      22.989  -0.057  53.267  1.00  0.00     0.118 C 
HETATM   11  N1  UNL     1      24.393   0.176  53.425  1.00  0.00    -0.254 NA
HETATM   12  C9  UNL     1      25.237   1.107  53.068  1.00  0.00     0.234 C 
HETATM   13  N2  UNL     1      25.044   2.325  52.335  1.00  0.00    -0.223 NA
HETATM   14  C10 UNL     1      24.201   2.773  51.439  1.00  0.00     0.150 C 
BRANCH  14  15
HETATM   15  N3  UNL     1      24.506   4.110  51.059  1.00  0.00    -0.309 N 
HETATM   16  C11 UNL     1      23.771   5.227  51.572  1.00  0.00     0.095 A 
HETATM   17  C12 UNL     1      24.031   6.463  51.232  1.00  0.00    -0.004 A 
HETATM   18  C13 UNL     1      25.125   6.779  50.278  1.00  0.00     0.077 A 
HETATM   19  C14 UNL     1      25.834   5.566  49.797  1.00  0.00     0.015 A 
HETATM   20 BR1  UNL     1      27.236   6.006  48.569  1.00  0.00    -0.053 Br
HETATM   21  C15 UNL     1      25.590   4.307  50.125  1.00  0.00     0.027 A 
HETATM   22  C16 UNL     1      26.394   3.197  49.552  1.00  0.00     0.070 C 
ENDBRANCH  14  15
ENDBRANCH   5   7
ENDBRANCH   4   5
ENDBRANCH   3   4
TORSDOF 4
ENDMDL
MODEL 5
REMARK VINA RESULT:      -5.6      2.663      3.836
REMARK  4 active torsions:
REMARK  status: ('A' for Active; 'I' for Inactive)
REMARK    1  A    between atoms: C3_3  and  S1_4 
REMARK    2  A    between atoms: S1_4  and  C4_5 
REMARK    3  A    between atoms: C4_5  and  C5_7 
REMARK    4  A    between atoms: C10_14  and  N3_15 
ROOT
HETATM    1  C1  UNL     1      19.692   4.931  49.005  1.00  0.00     0.113 C 
HETATM    2  C2  UNL     1      19.998   3.913  50.026  1.00  0.00    -0.099 C 
HETATM    3  C3  UNL     1      20.271   3.077  50.862  1.00  0.00    -0.026 C 
ENDROOT
BRANCH   3   4
HETATM    4  S1  UNL     1      20.696   1.871  52.075  1.00  0.00     0.005 SA
BRANCH   4   5
HETATM    5  C4  UNL     1      22.301   1.217  51.638  1.00  0.00     0.235 C 
HETATM    6  O1  UNL     1      22.680   1.146  50.443  1.00  0.00    -0.279 OA
BRANCH   5   7
HETATM    7  C5  UNL     1      23.092   0.788  52.791  1.00  0.00     0.068 C 
HETATM    8  C6  UNL     1      22.643  -0.208  53.539  1.00  0.00     0.021 C 
HETATM    9  C7  UNL     1      23.099  -0.917  54.728  1.00  0.00     0.020 C 
HETATM   10  C8  UNL     1      24.322  -1.110  55.236  1.00  0.00     0.118 C 
HETATM   11  N1  UNL     1      25.628  -0.699  54.816  1.00  0.00    -0.254 NA
HETATM   12  C9  UNL     1      26.120   0.274  54.097  1.00  0.00     0.234 C 
HETATM   13  N2  UNL     1      25.479   1.364  53.418  1.00  0.00    -0.223 NA
HETATM   14  C10 UNL     1      24.302   1.601  52.896  1.00  0.00     0.150 C 
BRANCH  14  15
HETATM   15  N3  UNL     1      24.232   2.909  52.340  1.00  0.00    -0.309 N 
HETATM   16  C11 UNL     1      23.336   3.901  52.855  1.00  0.00     0.095 A 
HETATM   17  C12 UNL     1      23.252   5.107  52.355  1.00  0.00    -0.004 A 
HETATM   18  C13 UNL     1      24.098   5.518  51.205  1.00  0.00     0.077 A 
HETATM   19  C14 UNL     1      24.995   4.431  50.735  1.00  0.00     0.015 A 
HETATM   20 BR1  UNL     1      26.070   4.992  49.254  1.00  0.00    -0.053 Br
HETATM   21  C15 UNL     1      25.098   3.205  51.223  1.00  0.00     0.027 A 
HETATM   22  C16 UNL     1      26.050   2.226  50.638  1.00  0.00     0.070 C 
ENDBRANCH  14  15
ENDBRANCH   5   7
ENDBRANCH   4   5
ENDBRANCH   3   4
TORSDOF 4
ENDMDL
MODEL 6
REMARK VINA RESULT:      -5.5      2.752      4.535
REMARK  4 active torsions:
REMARK  status: ('A' for Active; 'I' for Inactive)
REMARK    1  A    between atoms: C3_3  and  S1_4 
REMARK    2  A    between atoms: S1_4  and  C4_5 
REMARK    3  A    between atoms: C4_5  and  C5_7 
REMARK    4  A    between atoms: C10_14  and  N3_15 
ROOT
HETATM    1  C1  UNL     1      17.417   0.373  50.346  1.00  0.00     0.113 C 
HETATM    2  C2  UNL     1      18.605   0.638  51.178  1.00  0.00    -0.099 C 
HETATM    3  C3  UNL     1      19.595   0.850  51.846  1.00  0.00    -0.026 C 
ENDROOT
BRANCH   3   4
HETATM    4  S1  UNL     1      21.050   1.156  52.793  1.00  0.00     0.005 SA
BRANCH   4   5
HETATM    5  C4  UNL     1      22.441   1.083  51.672  1.00  0.00     0.235 C 
HETATM    6  O1  UNL     1      22.285   1.107  50.426  1.00  0.00    -0.279 OA
BRANCH   5   7
HETATM    7  C5  UNL     1      23.734   0.993  52.349  1.00  0.00     0.068 C 
HETATM    8  C6  UNL     1      23.991  -0.066  53.100  1.00  0.00     0.021 C 
HETATM    9  C7  UNL     1      25.105  -0.533  53.914  1.00  0.00     0.020 C 
HETATM   10  C8  UNL     1      26.418  -0.277  53.858  1.00  0.00     0.118 C 
HETATM   11  N1  UNL     1      27.216   0.538  52.992  1.00  0.00    -0.254 NA
HETATM   12  C9  UNL     1      27.016   1.593  52.247  1.00  0.00     0.234 C 
HETATM   13  N2  UNL     1      25.834   2.373  52.013  1.00  0.00    -0.223 NA
HETATM   14  C10 UNL     1      24.540   2.173  52.043  1.00  0.00     0.150 C 
BRANCH  14  15
HETATM   15  N3  UNL     1      23.823   3.357  51.713  1.00  0.00    -0.309 N 
HETATM   16  C11 UNL     1      22.983   4.021  52.663  1.00  0.00     0.095 A 
HETATM   17  C12 UNL     1      22.311   5.107  52.378  1.00  0.00    -0.004 A 
HETATM   18  C13 UNL     1      22.386   5.719  51.026  1.00  0.00     0.077 A 
HETATM   19  C14 UNL     1      23.277   4.968  50.105  1.00  0.00     0.015 A 
HETATM   20 BR1  UNL     1      23.352   5.780  48.374  1.00  0.00    -0.053 Br
HETATM   21  C15 UNL     1      23.966   3.869  50.370  1.00  0.00     0.027 A 
HETATM   22  C16 UNL     1      24.818   3.232  49.332  1.00  0.00     0.070 C 
ENDBRANCH  14  15
ENDBRANCH   5   7
ENDBRANCH   4   5
ENDBRANCH   3   4
TORSDOF 4
ENDMDL
MODEL 7
REMARK VINA RESULT:      -5.5      2.872      4.580
REMARK  4 active torsions:
REMARK  status: ('A' for Active; 'I' for Inactive)
REMARK    1  A    between atoms: C3_3  and  S1_4 
REMARK    2  A    between atoms: S1_4  and  C4_5 
REMARK    3  A    between atoms: C4_5  and  C5_7 
REMARK    4  A    between atoms: C10_14  and  N3_15 
ROOT
HETATM    1  C1  UNL     1      20.158   6.214  48.435  1.00  0.00     0.113 C 
HETATM    2  C2  UNL     1      21.266   6.050  49.392  1.00  0.00    -0.099 C 
HETATM    3  C3  UNL     1      22.189   5.932  50.171  1.00  0.00    -0.026 C 
ENDROOT
BRANCH   3   4
HETATM    4  S1  UNL     1      23.539   5.788  51.296  1.00  0.00     0.005 SA
BRANCH   4   5
HETATM    5  C4  UNL     1      23.208   4.381  52.348  1.00  0.00     0.235 C 
HETATM    6  O1  UNL     1      23.818   4.213  53.434  1.00  0.00    -0.279 OA
BRANCH   5   7
HETATM    7  C5  UNL     1      22.184   3.482  51.819  1.00  0.00     0.068 C 
HETATM    8  C6  UNL     1      20.925   3.659  52.188  1.00  0.00     0.021 C 
HETATM    9  C7  UNL     1      19.647   3.017  51.909  1.00  0.00     0.020 C 
HETATM   10  C8  UNL     1      19.220   2.299  50.863  1.00  0.00     0.118 C 
HETATM   11  N1  UNL     1      19.845   1.893  49.640  1.00  0.00    -0.254 NA
HETATM   12  C9  UNL     1      21.069   1.691  49.232  1.00  0.00     0.234 C 
HETATM   13  N2  UNL     1      22.324   1.811  49.918  1.00  0.00    -0.223 NA
HETATM   14  C10 UNL     1      22.795   2.497  50.929  1.00  0.00     0.150 C 
BRANCH  14  15
HETATM   15  N3  UNL     1      24.164   2.193  51.173  1.00  0.00    -0.309 N 
HETATM   16  C11 UNL     1      25.222   2.880  50.497  1.00  0.00     0.095 A 
HETATM   17  C12 UNL     1      26.486   2.612  50.702  1.00  0.00    -0.004 A 
HETATM   18  C13 UNL     1      26.897   1.559  51.666  1.00  0.00     0.077 A 
HETATM   19  C14 UNL     1      25.739   0.898  52.321  1.00  0.00     0.015 A 
HETATM   20 BR1  UNL     1      26.301  -0.453  53.555  1.00  0.00    -0.053 Br
HETATM   21  C15 UNL     1      24.454   1.151  52.130  1.00  0.00     0.027 A 
HETATM   22  C16 UNL     1      23.407   0.395  52.867  1.00  0.00     0.070 C 
ENDBRANCH  14  15
ENDBRANCH   5   7
ENDBRANCH   4   5
ENDBRANCH   3   4
TORSDOF 4
ENDMDL
MODEL 8
REMARK VINA RESULT:      -5.5      2.870      4.109
REMARK  4 active torsions:
REMARK  status: ('A' for Active; 'I' for Inactive)
REMARK    1  A    between atoms: C3_3  and  S1_4 
REMARK    2  A    between atoms: S1_4  and  C4_5 
REMARK    3  A    between atoms: C4_5  and  C5_7 
REMARK    4  A    between atoms: C10_14  and  N3_15 
ROOT
HETATM    1  C1  UNL     1      19.201   5.266  49.022  1.00  0.00     0.113 C 
HETATM    2  C2  UNL     1      19.545   4.239  50.021  1.00  0.00    -0.099 C 
HETATM    3  C3  UNL     1      19.847   3.390  50.834  1.00  0.00    -0.026 C 
ENDROOT
BRANCH   3   4
HETATM    4  S1  UNL     1      20.313   2.159  52.007  1.00  0.00     0.005 SA
BRANCH   4   5
HETATM    5  C4  UNL     1      21.522   1.104  51.220  1.00  0.00     0.235 C 
HETATM    6  O1  UNL     1      21.324   0.608  50.083  1.00  0.00    -0.279 OA
BRANCH   5   7
HETATM    7  C5  UNL     1      22.725   0.892  52.024  1.00  0.00     0.068 C 
HETATM    8  C6  UNL     1      22.639   0.157  53.122  1.00  0.00     0.021 C 
HETATM    9  C7  UNL     1      23.554  -0.284  54.166  1.00  0.00     0.020 C 
HETATM   10  C8  UNL     1      24.880  -0.468  54.170  1.00  0.00     0.118 C 
HETATM   11  N1  UNL     1      25.889  -0.302  53.167  1.00  0.00    -0.254 NA
HETATM   12  C9  UNL     1      26.028   0.413  52.083  1.00  0.00     0.234 C 
HETATM   13  N2  UNL     1      25.151   1.364  51.461  1.00  0.00    -0.223 NA
HETATM   14  C10 UNL     1      23.861   1.582  51.416  1.00  0.00     0.150 C 
BRANCH  14  15
HETATM   15  N3  UNL     1      23.551   2.716  50.614  1.00  0.00    -0.309 N 
HETATM   16  C11 UNL     1      23.347   2.608  49.200  1.00  0.00     0.095 A 
HETATM   17  C12 UNL     1      23.068   3.639  48.444  1.00  0.00    -0.004 A 
HETATM   18  C13 UNL     1      22.946   5.001  49.024  1.00  0.00     0.077 A 
HETATM   19  C14 UNL     1      23.173   5.022  50.492  1.00  0.00     0.015 A 
HETATM   20 BR1  UNL     1      23.009   6.790  51.208  1.00  0.00    -0.053 Br
HETATM   21  C15 UNL     1      23.456   3.995  51.277  1.00  0.00     0.027 A 
HETATM   22  C16 UNL     1      23.656   4.181  52.738  1.00  0.00     0.070 C 
ENDBRANCH  14  15
ENDBRANCH   5   7
ENDBRANCH   4   5
ENDBRANCH   3   4
TORSDOF 4
ENDMDL
MODEL 9
REMARK VINA RESULT:      -5.4      3.045      5.217
REMARK  4 active torsions:
REMARK  status: ('A' for Active; 'I' for Inactive)
REMARK    1  A    between atoms: C3_3  and  S1_4 
REMARK    2  A    between atoms: S1_4  and  C4_5 
REMARK    3  A    between atoms: C4_5  and  C5_7 
REMARK    4  A    between atoms: C10_14  and  N3_15 
ROOT
HETATM    1  C1  UNL     1      22.012   9.436  48.772  1.00  0.00     0.113 C 
HETATM    2  C2  UNL     1      22.823   8.389  49.418  1.00  0.00    -0.099 C 
HETATM    3  C3  UNL     1      23.505   7.542  49.958  1.00  0.00    -0.026 C 
ENDROOT
BRANCH   3   4
HETATM    4  S1  UNL     1      24.508   6.333  50.757  1.00  0.00     0.005 SA
BRANCH   4   5
HETATM    5  C4  UNL     1      23.411   5.117  51.473  1.00  0.00     0.235 C 
HETATM    6  O1  UNL     1      23.451   4.832  52.696  1.00  0.00    -0.279 OA
BRANCH   5   7
HETATM    7  C5  UNL     1      22.496   4.513  50.505  1.00  0.00     0.068 C 
HETATM    8  C6  UNL     1      21.267   4.995  50.401  1.00  0.00     0.021 C 
HETATM    9  C7  UNL     1      20.087   4.699  49.599  1.00  0.00     0.020 C 
HETATM   10  C8  UNL     1      19.946   4.130  48.396  1.00  0.00     0.118 C 
HETATM   11  N1  UNL     1      20.885   3.601  47.453  1.00  0.00    -0.254 NA
HETATM   12  C9  UNL     1      22.092   3.104  47.507  1.00  0.00     0.234 C 
HETATM   13  N2  UNL     1      22.978   2.893  48.616  1.00  0.00    -0.223 NA
HETATM   14  C10 UNL     1      23.164   3.422  49.799  1.00  0.00     0.150 C 
BRANCH  14  15
HETATM   15  N3  UNL     1      24.226   2.779  50.496  1.00  0.00    -0.309 N 
HETATM   16  C11 UNL     1      25.596   3.122  50.265  1.00  0.00     0.095 A 
HETATM   17  C12 UNL     1      26.588   2.540  50.890  1.00  0.00    -0.004 A 
HETATM   18  C13 UNL     1      26.337   1.471  51.891  1.00  0.00     0.077 A 
HETATM   19  C14 UNL     1      24.891   1.178  52.067  1.00  0.00     0.015 A 
HETATM   20 BR1  UNL     1      24.602  -0.202  53.362  1.00  0.00    -0.053 Br
HETATM   21  C15 UNL     1      23.873   1.752  51.448  1.00  0.00     0.027 A 
HETATM   22  C16 UNL     1      22.473   1.344  51.737  1.00  0.00     0.070 C 
ENDBRANCH  14  15
ENDBRANCH   5   7
ENDBRANCH   4   5
ENDBRANCH   3   4
TORSDOF 4
ENDMDL
