MODEL 1
REMARK VINA RESULT:      -7.5      0.000      0.000
REMARK  10 active torsions:
REMARK  status: ('A' for Active; 'I' for Inactive)
REMARK    1  A    between atoms: N1_1  and  C1_2 
REMARK    2  A    between atoms: C1_2  and  C2_3 
REMARK    3  A    between atoms: C1_2  and  C17_21 
REMARK    4  A    between atoms: C2_3  and  C3_4 
REMARK    5  A    between atoms: C3_4  and  O1_5 
REMARK    6  A    between atoms: O1_5  and  C4_6 
REMARK    7  A    between atoms: C7_10  and  C8_11 
REMARK    8  A    between atoms: C8_11  and  C9_12 
REMARK    9  A    between atoms: C13_16  and  C14_17 
REMARK   10  A    between atoms: C17_21  and  C18_22 
ROOT
HETATM    1  C4  UNL     1      24.170   3.117  50.638  1.00  0.00     0.086 A 
HETATM    2  C5  UNL     1      23.791   4.088  51.520  1.00  0.00     0.152 A 
HETATM    3  N2  UNL     1      23.814   3.973  52.870  1.00  0.00    -0.270 NA
HETATM    4  C6  UNL     1      24.243   2.815  53.405  1.00  0.00     0.123 A 
HETATM    5  C7  UNL     1      24.641   1.797  52.552  1.00  0.00    -0.034 A 
HETATM    6  C16 UNL     1      24.613   1.925  51.162  1.00  0.00     0.047 A 
ENDROOT
BRANCH   1   7
HETATM    7  O1  UNL     1      24.133   3.268  49.275  1.00  0.00    -0.350 OA
BRANCH   7   8
HETATM    8  C3  UNL     1      23.045   3.791  48.563  1.00  0.00     0.178 C 
BRANCH   8   9
HETATM    9  C2  UNL     1      22.363   2.654  47.827  1.00  0.00     0.062 C 
BRANCH   9  10
HETATM   10  C1  UNL     1      21.139   2.303  48.625  1.00  0.00     0.224 C 
BRANCH  10  11
HETATM   11  N1  UNL     1      19.933   2.348  47.824  1.00  0.00     0.083 N 
HETATM   12  H1  UNL     1      19.906   1.577  47.112  1.00  0.00     0.313 HD
HETATM   13  H2  UNL     1      19.810   3.269  47.347  1.00  0.00     0.313 HD
ENDBRANCH  10  11
BRANCH  10  14
HETATM   14  C17 UNL     1      21.255   0.903  49.204  1.00  0.00     0.073 C 
BRANCH  14  15
HETATM   15  C18 UNL     1      21.119   1.002  50.660  1.00  0.00    -0.056 A 
HETATM   16  C19 UNL     1      21.509  -0.077  51.452  1.00  0.00     0.007 A 
HETATM   17  C20 UNL     1      21.448  -0.147  52.828  1.00  0.00     0.001 A 
HETATM   18  C21 UNL     1      20.955   0.956  53.486  1.00  0.00     0.000 A 
HETATM   19  C22 UNL     1      20.552   2.057  52.767  1.00  0.00     0.001 A 
HETATM   20  C23 UNL     1      20.629   2.084  51.396  1.00  0.00     0.007 A 
ENDBRANCH  14  15
ENDBRANCH  10  14
ENDBRANCH   9  10
ENDBRANCH   8   9
ENDBRANCH   7   8
ENDBRANCH   1   7
BRANCH   5  21
HETATM   21  C8  UNL     1      25.131   0.479  53.071  1.00  0.00     0.078 C 
BRANCH  21  22
HETATM   22  C9  UNL     1      26.608   0.553  53.308  1.00  0.00    -0.053 A 
HETATM   23  C10 UNL     1      27.328   1.671  53.666  1.00  0.00     0.007 A 
HETATM   24  C11 UNL     1      28.690   1.586  53.849  1.00  0.00     0.002 A 
HETATM   25  C12 UNL     1      29.372   0.378  53.680  1.00  0.00     0.014 A 
HETATM   26  C13 UNL     1      28.646  -0.750  53.319  1.00  0.00     0.002 A 
HETATM   27  C15 UNL     1      27.283  -0.657  53.137  1.00  0.00     0.022 A 
BRANCH  26  28
HETATM   28  C14 UNL     1      29.351  -2.017  53.140  1.00  0.00     0.269 C 
HETATM   29  O2  UNL     1      28.755  -3.044  53.549  1.00  0.00    -0.301 OA
ENDBRANCH  26  28
ENDBRANCH  21  22
ENDBRANCH   5  21
TORSDOF 10
ENDMDL
MODEL 2
REMARK VINA RESULT:      -7.5      2.556      5.771
REMARK  10 active torsions:
REMARK  status: ('A' for Active; 'I' for Inactive)
REMARK    1  A    between atoms: N1_1  and  C1_2 
REMARK    2  A    between atoms: C1_2  and  C2_3 
REMARK    3  A    between atoms: C1_2  and  C17_21 
REMARK    4  A    between atoms: C2_3  and  C3_4 
REMARK    5  A    between atoms: C3_4  and  O1_5 
REMARK    6  A    between atoms: O1_5  and  C4_6 
REMARK    7  A    between atoms: C7_10  and  C8_11 
REMARK    8  A    between atoms: C8_11  and  C9_12 
REMARK    9  A    between atoms: C13_16  and  C14_17 
REMARK   10  A    between atoms: C17_21  and  C18_22 
ROOT
HETATM    1  C4  UNL     1      25.008  -0.396  54.577  1.00  0.00     0.086 A 
HETATM    2  C5  UNL     1      26.193  -0.063  55.167  1.00  0.00     0.152 A 
HETATM    3  N2  UNL     1      27.112   0.790  54.653  1.00  0.00    -0.270 NA
HETATM    4  C6  UNL     1      26.853   1.367  53.466  1.00  0.00     0.123 A 
HETATM    5  C7  UNL     1      25.662   1.064  52.826  1.00  0.00    -0.034 A 
HETATM    6  C16 UNL     1      24.721   0.182  53.364  1.00  0.00     0.047 A 
ENDROOT
BRANCH   1   7
HETATM    7  O1  UNL     1      24.100  -1.265  55.127  1.00  0.00    -0.350 OA
BRANCH   7   8
HETATM    8  C3  UNL     1      22.737  -0.988  55.300  1.00  0.00     0.178 C 
BRANCH   8   9
HETATM    9  C2  UNL     1      21.940  -1.930  54.417  1.00  0.00     0.062 C 
BRANCH   9  10
HETATM   10  C1  UNL     1      20.920  -1.087  53.706  1.00  0.00     0.224 C 
BRANCH  10  11
HETATM   11  N1  UNL     1      19.568  -1.406  54.115  1.00  0.00     0.083 N 
HETATM   12  H1  UNL     1      18.876  -1.256  53.339  1.00  0.00     0.313 HD
HETATM   13  H2  UNL     1      19.271  -0.862  54.957  1.00  0.00     0.313 HD
ENDBRANCH  10  11
BRANCH  10  14
HETATM   14  C17 UNL     1      21.149   0.389  53.985  1.00  0.00     0.073 C 
BRANCH  14  15
HETATM   15  C18 UNL     1      21.092   1.105  52.709  1.00  0.00    -0.056 A 
HETATM   16  C19 UNL     1      21.635   0.509  51.571  1.00  0.00     0.007 A 
HETATM   17  C20 UNL     1      21.663   1.044  50.301  1.00  0.00     0.001 A 
HETATM   18  C21 UNL     1      21.100   2.288  50.136  1.00  0.00     0.000 A 
HETATM   19  C22 UNL     1      20.546   2.936  51.216  1.00  0.00     0.001 A 
HETATM   20  C23 UNL     1      20.540   2.366  52.466  1.00  0.00     0.007 A 
ENDBRANCH  14  15
ENDBRANCH  10  14
ENDBRANCH   9  10
ENDBRANCH   8   9
ENDBRANCH   7   8
ENDBRANCH   1   7
BRANCH   5  21
HETATM   21  C8  UNL     1      25.302   1.667  51.502  1.00  0.00     0.078 C 
BRANCH  21  22
HETATM   22  C9  UNL     1      24.567   2.953  51.721  1.00  0.00    -0.053 A 
HETATM   23  C10 UNL     1      24.084   3.429  52.920  1.00  0.00     0.007 A 
HETATM   24  C11 UNL     1      23.423   4.637  52.967  1.00  0.00     0.002 A 
HETATM   25  C12 UNL     1      23.228   5.404  51.816  1.00  0.00     0.014 A 
HETATM   26  C13 UNL     1      23.715   4.924  50.607  1.00  0.00     0.002 A 
HETATM   27  C15 UNL     1      24.375   3.714  50.567  1.00  0.00     0.022 A 
BRANCH  26  28
HETATM   28  C14 UNL     1      23.514   5.719  49.398  1.00  0.00     0.269 C 
HETATM   29  O2  UNL     1      23.842   5.173  48.316  1.00  0.00    -0.301 OA
ENDBRANCH  26  28
ENDBRANCH  21  22
ENDBRANCH   5  21
TORSDOF 10
ENDMDL
MODEL 3
REMARK VINA RESULT:      -7.4      2.701      7.232
REMARK  10 active torsions:
REMARK  status: ('A' for Active; 'I' for Inactive)
REMARK    1  A    between atoms: N1_1  and  C1_2 
REMARK    2  A    between atoms: C1_2  and  C2_3 
REMARK    3  A    between atoms: C1_2  and  C17_21 
REMARK    4  A    between atoms: C2_3  and  C3_4 
REMARK    5  A    between atoms: C3_4  and  O1_5 
REMARK    6  A    between atoms: O1_5  and  C4_6 
REMARK    7  A    between atoms: C7_10  and  C8_11 
REMARK    8  A    between atoms: C8_11  and  C9_12 
REMARK    9  A    between atoms: C13_16  and  C14_17 
REMARK   10  A    between atoms: C17_21  and  C18_22 
ROOT
HETATM    1  C4  UNL     1      22.791  -0.736  54.244  1.00  0.00     0.086 A 
HETATM    2  C5  UNL     1      21.858  -1.707  54.469  1.00  0.00     0.152 A 
HETATM    3  N2  UNL     1      20.539  -1.608  54.178  1.00  0.00    -0.270 NA
HETATM    4  C6  UNL     1      20.092  -0.468  53.621  1.00  0.00     0.123 A 
HETATM    5  C7  UNL     1      20.999   0.549  53.371  1.00  0.00    -0.034 A 
HETATM    6  C16 UNL     1      22.358   0.438  53.676  1.00  0.00     0.047 A 
ENDROOT
BRANCH   1   7
HETATM    7  O1  UNL     1      24.122  -0.871  54.553  1.00  0.00    -0.350 OA
BRANCH   7   8
HETATM    8  C3  UNL     1      25.176  -0.517  53.699  1.00  0.00     0.178 C 
BRANCH   8   9
HETATM    9  C2  UNL     1      26.095   0.434  54.442  1.00  0.00     0.062 C 
BRANCH   9  10
HETATM   10  C1  UNL     1      25.961   1.770  53.766  1.00  0.00     0.224 C 
BRANCH  10  11
HETATM   11  N1  UNL     1      27.168   2.562  53.880  1.00  0.00     0.083 N 
HETATM   12  H1  UNL     1      26.970   3.592  53.822  1.00  0.00     0.313 HD
HETATM   13  H2  UNL     1      27.881   2.303  53.161  1.00  0.00     0.313 HD
ENDBRANCH  10  11
BRANCH  10  14
HETATM   14  C17 UNL     1      25.661   1.600  52.287  1.00  0.00     0.073 C 
BRANCH  14  15
HETATM   15  C18 UNL     1      24.743   2.668  51.885  1.00  0.00    -0.056 A 
HETATM   16  C19 UNL     1      24.537   2.910  50.527  1.00  0.00     0.007 A 
HETATM   17  C20 UNL     1      23.711   3.871  49.983  1.00  0.00     0.001 A 
HETATM   18  C21 UNL     1      23.021   4.671  50.864  1.00  0.00     0.000 A 
HETATM   19  C22 UNL     1      23.176   4.487  52.219  1.00  0.00     0.001 A 
HETATM   20  C23 UNL     1      24.010   3.517  52.718  1.00  0.00     0.007 A 
ENDBRANCH  14  15
ENDBRANCH  10  14
ENDBRANCH   9  10
ENDBRANCH   8   9
ENDBRANCH   7   8
ENDBRANCH   1   7
BRANCH   5  21
HETATM   21  C8  UNL     1      20.578   1.849  52.754  1.00  0.00     0.078 C 
BRANCH  21  22
HETATM   22  C9  UNL     1      20.737   1.770  51.267  1.00  0.00    -0.053 A 
HETATM   23  C10 UNL     1      21.491   0.854  50.569  1.00  0.00     0.007 A 
HETATM   24  C11 UNL     1      21.543   0.906  49.193  1.00  0.00     0.002 A 
HETATM   25  C12 UNL     1      20.839   1.877  48.477  1.00  0.00     0.014 A 
HETATM   26  C13 UNL     1      20.078   2.801  49.181  1.00  0.00     0.002 A 
HETATM   27  C15 UNL     1      20.032   2.743  50.557  1.00  0.00     0.022 A 
BRANCH  26  28
HETATM   28  C14 UNL     1      19.340   3.821  48.439  1.00  0.00     0.269 C 
HETATM   29  O2  UNL     1      18.887   4.777  49.115  1.00  0.00    -0.301 OA
ENDBRANCH  26  28
ENDBRANCH  21  22
ENDBRANCH   5  21
TORSDOF 10
ENDMDL
MODEL 4
REMARK VINA RESULT:      -7.3      1.867      2.826
REMARK  10 active torsions:
REMARK  status: ('A' for Active; 'I' for Inactive)
REMARK    1  A    between atoms: N1_1  and  C1_2 
REMARK    2  A    between atoms: C1_2  and  C2_3 
REMARK    3  A    between atoms: C1_2  and  C17_21 
REMARK    4  A    between atoms: C2_3  and  C3_4 
REMARK    5  A    between atoms: C3_4  and  O1_5 
REMARK    6  A    between atoms: O1_5  and  C4_6 
REMARK    7  A    between atoms: C7_10  and  C8_11 
REMARK    8  A    between atoms: C8_11  and  C9_12 
REMARK    9  A    between atoms: C13_16  and  C14_17 
REMARK   10  A    between atoms: C17_21  and  C18_22 
ROOT
HETATM    1  C4  UNL     1      23.188   4.079  48.773  1.00  0.00     0.086 A 
HETATM    2  C5  UNL     1      23.410   5.427  48.776  1.00  0.00     0.152 A 
HETATM    3  N2  UNL     1      24.549   6.032  49.190  1.00  0.00    -0.270 NA
HETATM    4  C6  UNL     1      25.556   5.260  49.638  1.00  0.00     0.123 A 
HETATM    5  C7  UNL     1      25.382   3.886  49.655  1.00  0.00    -0.034 A 
HETATM    6  C16 UNL     1      24.203   3.271  49.227  1.00  0.00     0.047 A 
ENDROOT
BRANCH   1   7
HETATM    7  O1  UNL     1      22.020   3.500  48.347  1.00  0.00    -0.350 OA
BRANCH   7   8
HETATM    8  C3  UNL     1      20.770   3.691  48.952  1.00  0.00     0.178 C 
BRANCH   8   9
HETATM    9  C2  UNL     1      20.872   3.269  50.406  1.00  0.00     0.062 C 
BRANCH   9  10
HETATM   10  C1  UNL     1      20.619   1.788  50.438  1.00  0.00     0.224 C 
BRANCH  10  11
HETATM   11  N1  UNL     1      20.200   1.278  49.149  1.00  0.00     0.083 N 
HETATM   12  H1  UNL     1      20.955   1.371  48.425  1.00  0.00     0.313 HD
HETATM   13  H2  UNL     1      19.328   1.741  48.805  1.00  0.00     0.313 HD
ENDBRANCH  10  11
BRANCH  10  14
HETATM   14  C17 UNL     1      21.873   1.034  50.846  1.00  0.00     0.073 C 
BRANCH  14  15
HETATM   15  C18 UNL     1      21.659   0.492  52.190  1.00  0.00    -0.056 A 
HETATM   16  C19 UNL     1      22.263  -0.716  52.537  1.00  0.00     0.007 A 
HETATM   17  C20 UNL     1      22.164  -1.360  53.753  1.00  0.00     0.001 A 
HETATM   18  C21 UNL     1      21.397  -0.753  54.719  1.00  0.00     0.000 A 
HETATM   19  C22 UNL     1      20.772   0.442  54.445  1.00  0.00     0.001 A 
HETATM   20  C23 UNL     1      20.897   1.049  53.220  1.00  0.00     0.007 A 
ENDBRANCH  14  15
ENDBRANCH  10  14
ENDBRANCH   9  10
ENDBRANCH   8   9
ENDBRANCH   7   8
ENDBRANCH   1   7
BRANCH   5  21
HETATM   21  C8  UNL     1      26.456   2.960  50.140  1.00  0.00     0.078 C 
BRANCH  21  22
HETATM   22  C9  UNL     1      25.987   2.252  51.373  1.00  0.00    -0.053 A 
HETATM   23  C10 UNL     1      25.137   2.753  52.334  1.00  0.00     0.007 A 
HETATM   24  C11 UNL     1      24.792   1.980  53.421  1.00  0.00     0.002 A 
HETATM   25  C12 UNL     1      25.287   0.683  53.576  1.00  0.00     0.014 A 
HETATM   26  C13 UNL     1      26.143   0.178  52.607  1.00  0.00     0.002 A 
HETATM   27  C15 UNL     1      26.485   0.957  51.522  1.00  0.00     0.022 A 
BRANCH  26  28
HETATM   28  C14 UNL     1      26.666  -1.178  52.762  1.00  0.00     0.269 C 
HETATM   29  O2  UNL     1      27.724  -1.289  53.428  1.00  0.00    -0.301 OA
ENDBRANCH  26  28
ENDBRANCH  21  22
ENDBRANCH   5  21
TORSDOF 10
ENDMDL
MODEL 5
REMARK VINA RESULT:      -7.3      1.552      2.122
REMARK  10 active torsions:
REMARK  status: ('A' for Active; 'I' for Inactive)
REMARK    1  A    between atoms: N1_1  and  C1_2 
REMARK    2  A    between atoms: C1_2  and  C2_3 
REMARK    3  A    between atoms: C1_2  and  C17_21 
REMARK    4  A    between atoms: C2_3  and  C3_4 
REMARK    5  A    between atoms: C3_4  and  O1_5 
REMARK    6  A    between atoms: O1_5  and  C4_6 
REMARK    7  A    between atoms: C7_10  and  C8_11 
REMARK    8  A    between atoms: C8_11  and  C9_12 
REMARK    9  A    between atoms: C13_16  and  C14_17 
REMARK   10  A    between atoms: C17_21  and  C18_22 
ROOT
HETATM    1  C4  UNL     1      24.069   3.369  50.340  1.00  0.00     0.086 A 
HETATM    2  C5  UNL     1      25.149   3.456  49.509  1.00  0.00     0.152 A 
HETATM    3  N2  UNL     1      26.419   3.119  49.838  1.00  0.00    -0.270 NA
HETATM    4  C6  UNL     1      26.656   2.658  51.080  1.00  0.00     0.123 A 
HETATM    5  C7  UNL     1      25.593   2.548  51.962  1.00  0.00    -0.034 A 
HETATM    6  C16 UNL     1      24.286   2.900  51.613  1.00  0.00     0.047 A 
ENDROOT
BRANCH   1   7
HETATM    7  O1  UNL     1      22.794   3.720  49.972  1.00  0.00    -0.350 OA
BRANCH   7   8
HETATM    8  C3  UNL     1      21.787   2.810  49.624  1.00  0.00     0.178 C 
BRANCH   8   9
HETATM    9  C2  UNL     1      20.684   2.895  50.662  1.00  0.00     0.062 C 
BRANCH   9  10
HETATM   10  C1  UNL     1      20.274   1.481  50.966  1.00  0.00     0.224 C 
BRANCH  10  11
HETATM   11  N1  UNL     1      19.340   0.962  49.988  1.00  0.00     0.083 N 
HETATM   12  H1  UNL     1      19.531   1.336  49.025  1.00  0.00     0.313 HD
HETATM   13  H2  UNL     1      18.347   1.156  50.248  1.00  0.00     0.313 HD
ENDBRANCH  10  11
BRANCH  10  14
HETATM   14  C17 UNL     1      21.482   0.560  50.982  1.00  0.00     0.073 C 
BRANCH  14  15
HETATM   15  C18 UNL     1      21.661   0.072  52.352  1.00  0.00    -0.056 A 
HETATM   16  C19 UNL     1      22.941  -0.270  52.788  1.00  0.00     0.007 A 
HETATM   17  C20 UNL     1      23.280  -0.741  54.039  1.00  0.00     0.001 A 
HETATM   18  C21 UNL     1      22.258  -0.890  54.947  1.00  0.00     0.000 A 
HETATM   19  C22 UNL     1      20.970  -0.572  54.584  1.00  0.00     0.001 A 
HETATM   20  C23 UNL     1      20.676  -0.105  53.326  1.00  0.00     0.007 A 
ENDBRANCH  14  15
ENDBRANCH  10  14
ENDBRANCH   9  10
ENDBRANCH   8   9
ENDBRANCH   7   8
ENDBRANCH   1   7
BRANCH   5  21
HETATM   21  C8  UNL     1      25.776   2.044  53.361  1.00  0.00     0.078 C 
BRANCH  21  22
HETATM   22  C9  UNL     1      27.028   1.226  53.437  1.00  0.00    -0.053 A 
HETATM   23  C10 UNL     1      28.287   1.679  53.762  1.00  0.00     0.007 A 
HETATM   24  C11 UNL     1      29.350   0.804  53.791  1.00  0.00     0.002 A 
HETATM   25  C12 UNL     1      29.183  -0.552  53.496  1.00  0.00     0.014 A 
HETATM   26  C13 UNL     1      27.914  -1.009  53.168  1.00  0.00     0.002 A 
HETATM   27  C15 UNL     1      26.855  -0.127  53.141  1.00  0.00     0.022 A 
BRANCH  26  28
HETATM   28  C14 UNL     1      27.731  -2.425  52.858  1.00  0.00     0.269 C 
HETATM   29  O2  UNL     1      28.576  -3.213  53.351  1.00  0.00    -0.301 OA
ENDBRANCH  26  28
ENDBRANCH  21  22
ENDBRANCH   5  21
TORSDOF 10
ENDMDL
MODEL 6
REMARK VINA RESULT:      -7.2      3.182      5.451
REMARK  10 active torsions:
REMARK  status: ('A' for Active; 'I' for Inactive)
REMARK    1  A    between atoms: N1_1  and  C1_2 
REMARK    2  A    between atoms: C1_2  and  C2_3 
REMARK    3  A    between atoms: C1_2  and  C17_21 
REMARK    4  A    between atoms: C2_3  and  C3_4 
REMARK    5  A    between atoms: C3_4  and  O1_5 
REMARK    6  A    between atoms: O1_5  and  C4_6 
REMARK    7  A    between atoms: C7_10  and  C8_11 
REMARK    8  A    between atoms: C8_11  and  C9_12 
REMARK    9  A    between atoms: C13_16  and  C14_17 
REMARK   10  A    between atoms: C17_21  and  C18_22 
ROOT
HETATM    1  C4  UNL     1      23.141   1.931  51.864  1.00  0.00     0.086 A 
HETATM    2  C5  UNL     1      22.072   1.200  51.433  1.00  0.00     0.152 A 
HETATM    3  N2  UNL     1      21.713  -0.017  51.908  1.00  0.00    -0.270 NA
HETATM    4  C6  UNL     1      22.458  -0.566  52.885  1.00  0.00     0.123 A 
HETATM    5  C7  UNL     1      23.554   0.137  53.359  1.00  0.00    -0.034 A 
HETATM    6  C16 UNL     1      23.917   1.391  52.862  1.00  0.00     0.047 A 
ENDROOT
BRANCH   1   7
HETATM    7  O1  UNL     1      23.476   3.162  51.358  1.00  0.00    -0.350 OA
BRANCH   7   8
HETATM    8  C3  UNL     1      23.316   3.542  50.019  1.00  0.00     0.178 C 
BRANCH   8   9
HETATM    9  C2  UNL     1      23.100   5.043  49.969  1.00  0.00     0.062 C 
BRANCH   9  10
HETATM   10  C1  UNL     1      24.465   5.668  49.903  1.00  0.00     0.224 C 
BRANCH  10  11
HETATM   11  N1  UNL     1      24.952   6.053  51.211  1.00  0.00     0.083 N 
HETATM   12  H1  UNL     1      25.215   5.220  51.794  1.00  0.00     0.313 HD
HETATM   13  H2  UNL     1      24.263   6.640  51.733  1.00  0.00     0.313 HD
ENDBRANCH  10  11
BRANCH  10  14
HETATM   14  C17 UNL     1      25.473   4.702  49.302  1.00  0.00     0.073 C 
BRANCH  14  15
HETATM   15  C18 UNL     1      26.573   5.489  48.738  1.00  0.00    -0.056 A 
HETATM   16  C19 UNL     1      27.849   4.930  48.687  1.00  0.00     0.007 A 
HETATM   17  C20 UNL     1      28.987   5.531  48.190  1.00  0.00     0.001 A 
HETATM   18  C21 UNL     1      28.851   6.807  47.695  1.00  0.00     0.000 A 
HETATM   19  C22 UNL     1      27.620   7.420  47.713  1.00  0.00     0.001 A 
HETATM   20  C23 UNL     1      26.512   6.784  48.218  1.00  0.00     0.007 A 
ENDBRANCH  14  15
ENDBRANCH  10  14
ENDBRANCH   9  10
ENDBRANCH   8   9
ENDBRANCH   7   8
ENDBRANCH   1   7
BRANCH   5  21
HETATM   21  C8  UNL     1      24.432  -0.408  54.445  1.00  0.00     0.078 C 
BRANCH  21  22
HETATM   22  C9  UNL     1      25.833  -0.540  53.935  1.00  0.00    -0.053 A 
HETATM   23  C10 UNL     1      26.275  -1.411  52.964  1.00  0.00     0.007 A 
HETATM   24  C11 UNL     1      27.602  -1.420  52.596  1.00  0.00     0.002 A 
HETATM   25  C12 UNL     1      28.526  -0.555  53.189  1.00  0.00     0.014 A 
HETATM   26  C13 UNL     1      28.080   0.323  54.168  1.00  0.00     0.002 A 
HETATM   27  C15 UNL     1      26.751   0.326  54.532  1.00  0.00     0.022 A 
BRANCH  26  28
HETATM   28  C14 UNL     1      29.040   1.230  54.794  1.00  0.00     0.269 C 
HETATM   29  O2  UNL     1      28.967   2.435  54.449  1.00  0.00    -0.301 OA
ENDBRANCH  26  28
ENDBRANCH  21  22
ENDBRANCH   5  21
TORSDOF 10
ENDMDL
MODEL 7
REMARK VINA RESULT:      -7.2      1.915      2.816
REMARK  10 active torsions:
REMARK  status: ('A' for Active; 'I' for Inactive)
REMARK    1  A    between atoms: N1_1  and  C1_2 
REMARK    2  A    between atoms: C1_2  and  C2_3 
REMARK    3  A    between atoms: C1_2  and  C17_21 
REMARK    4  A    between atoms: C2_3  and  C3_4 
REMARK    5  A    between atoms: C3_4  and  O1_5 
REMARK    6  A    between atoms: O1_5  and  C4_6 
REMARK    7  A    between atoms: C7_10  and  C8_11 
REMARK    8  A    between atoms: C8_11  and  C9_12 
REMARK    9  A    between atoms: C13_16  and  C14_17 
REMARK   10  A    between atoms: C17_21  and  C18_22 
ROOT
HETATM    1  C4  UNL     1      22.684   3.657  50.355  1.00  0.00     0.086 A 
HETATM    2  C5  UNL     1      23.685   3.878  49.453  1.00  0.00     0.152 A 
HETATM    3  N2  UNL     1      25.005   3.672  49.681  1.00  0.00    -0.270 NA
HETATM    4  C6  UNL     1      25.380   3.212  50.889  1.00  0.00     0.123 A 
HETATM    5  C7  UNL     1      24.402   2.971  51.840  1.00  0.00    -0.034 A 
HETATM    6  C16 UNL     1      23.043   3.187  51.595  1.00  0.00     0.047 A 
ENDROOT
BRANCH   1   7
HETATM    7  O1  UNL     1      21.356   3.877  50.089  1.00  0.00    -0.350 OA
BRANCH   7   8
HETATM    8  C3  UNL     1      20.439   2.878  49.738  1.00  0.00     0.178 C 
BRANCH   8   9
HETATM    9  C2  UNL     1      19.439   2.726  50.869  1.00  0.00     0.062 C 
BRANCH   9  10
HETATM   10  C1  UNL     1      19.298   1.250  51.117  1.00  0.00     0.224 C 
BRANCH  10  11
HETATM   11  N1  UNL     1      18.338   0.636  50.224  1.00  0.00     0.083 N 
HETATM   12  H1  UNL     1      18.747  -0.185  49.713  1.00  0.00     0.313 HD
HETATM   13  H2  UNL     1      17.948   1.317  49.534  1.00  0.00     0.313 HD
ENDBRANCH  10  11
BRANCH  10  14
HETATM   14  C17 UNL     1      20.627   0.540  50.924  1.00  0.00     0.073 C 
BRANCH  14  15
HETATM   15  C18 UNL     1      21.121   0.137  52.243  1.00  0.00    -0.056 A 
HETATM   16  C19 UNL     1      20.391   0.489  53.378  1.00  0.00     0.007 A 
HETATM   17  C20 UNL     1      20.714   0.189  54.684  1.00  0.00     0.001 A 
HETATM   18  C21 UNL     1      21.869  -0.528  54.892  1.00  0.00     0.000 A 
HETATM   19  C22 UNL     1      22.639  -0.909  53.817  1.00  0.00     0.001 A 
HETATM   20  C23 UNL     1      22.281  -0.588  52.531  1.00  0.00     0.007 A 
ENDBRANCH  14  15
ENDBRANCH  10  14
ENDBRANCH   9  10
ENDBRANCH   8   9
ENDBRANCH   7   8
ENDBRANCH   1   7
BRANCH   5  21
HETATM   21  C8  UNL     1      24.740   2.458  53.207  1.00  0.00     0.078 C 
BRANCH  21  22
HETATM   22  C9  UNL     1      25.798   1.405  53.099  1.00  0.00    -0.053 A 
HETATM   23  C10 UNL     1      25.709   0.219  52.404  1.00  0.00     0.007 A 
HETATM   24  C11 UNL     1      26.771  -0.658  52.395  1.00  0.00     0.002 A 
HETATM   25  C12 UNL     1      27.955  -0.372  53.080  1.00  0.00     0.014 A 
HETATM   26  C13 UNL     1      28.045   0.824  53.780  1.00  0.00     0.002 A 
HETATM   27  C15 UNL     1      26.978   1.696  53.785  1.00  0.00     0.022 A 
BRANCH  26  28
HETATM   28  C14 UNL     1      29.280   1.130  54.499  1.00  0.00     0.269 C 
HETATM   29  O2  UNL     1      29.448   2.332  54.822  1.00  0.00    -0.301 OA
ENDBRANCH  26  28
ENDBRANCH  21  22
ENDBRANCH   5  21
TORSDOF 10
ENDMDL
MODEL 8
REMARK VINA RESULT:      -7.1      1.999      4.315
REMARK  10 active torsions:
REMARK  status: ('A' for Active; 'I' for Inactive)
REMARK    1  A    between atoms: N1_1  and  C1_2 
REMARK    2  A    between atoms: C1_2  and  C2_3 
REMARK    3  A    between atoms: C1_2  and  C17_21 
REMARK    4  A    between atoms: C2_3  and  C3_4 
REMARK    5  A    between atoms: C3_4  and  O1_5 
REMARK    6  A    between atoms: O1_5  and  C4_6 
REMARK    7  A    between atoms: C7_10  and  C8_11 
REMARK    8  A    between atoms: C8_11  and  C9_12 
REMARK    9  A    between atoms: C13_16  and  C14_17 
REMARK   10  A    between atoms: C17_21  and  C18_22 
ROOT
HETATM    1  C4  UNL     1      20.825   0.976  50.381  1.00  0.00     0.086 A 
HETATM    2  C5  UNL     1      19.858   1.630  51.089  1.00  0.00     0.152 A 
HETATM    3  N2  UNL     1      19.768   1.670  52.441  1.00  0.00    -0.270 NA
HETATM    4  C6  UNL     1      20.699   1.018  53.161  1.00  0.00     0.123 A 
HETATM    5  C7  UNL     1      21.703   0.339  52.490  1.00  0.00    -0.034 A 
HETATM    6  C16 UNL     1      21.786   0.303  51.096  1.00  0.00     0.047 A 
ENDROOT
BRANCH   1   7
HETATM    7  O1  UNL     1      20.884   0.956  49.010  1.00  0.00    -0.350 OA
BRANCH   7   8
HETATM    8  C3  UNL     1      20.892   2.099  48.198  1.00  0.00     0.178 C 
BRANCH   8   9
HETATM    9  C2  UNL     1      22.310   2.635  48.140  1.00  0.00     0.062 C 
BRANCH   9  10
HETATM   10  C1  UNL     1      22.274   4.004  48.759  1.00  0.00     0.224 C 
BRANCH  10  11
HETATM   11  N1  UNL     1      20.925   4.422  49.078  1.00  0.00     0.083 N 
HETATM   12  H1  UNL     1      20.299   3.606  49.286  1.00  0.00     0.313 HD
HETATM   13  H2  UNL     1      20.502   5.003  48.320  1.00  0.00     0.313 HD
ENDBRANCH  10  11
BRANCH  10  14
HETATM   14  C17 UNL     1      23.083   4.037  50.045  1.00  0.00     0.073 C 
BRANCH  14  15
HETATM   15  C18 UNL     1      24.497   4.170  49.687  1.00  0.00    -0.056 A 
HETATM   16  C19 UNL     1      24.951   5.375  49.154  1.00  0.00     0.007 A 
HETATM   17  C20 UNL     1      26.243   5.664  48.767  1.00  0.00     0.001 A 
HETATM   18  C21 UNL     1      27.178   4.667  48.923  1.00  0.00     0.000 A 
HETATM   19  C22 UNL     1      26.799   3.451  49.444  1.00  0.00     0.001 A 
HETATM   20  C23 UNL     1      25.500   3.205  49.816  1.00  0.00     0.007 A 
ENDBRANCH  14  15
ENDBRANCH  10  14
ENDBRANCH   9  10
ENDBRANCH   8   9
ENDBRANCH   7   8
ENDBRANCH   1   7
BRANCH   5  21
HETATM   21  C8  UNL     1      22.775  -0.411  53.222  1.00  0.00     0.078 C 
BRANCH  21  22
HETATM   22  C9  UNL     1      24.049   0.375  53.185  1.00  0.00    -0.053 A 
HETATM   23  C10 UNL     1      24.171   1.746  53.246  1.00  0.00     0.007 A 
HETATM   24  C11 UNL     1      25.417   2.331  53.200  1.00  0.00     0.002 A 
HETATM   25  C12 UNL     1      26.578   1.561  53.093  1.00  0.00     0.014 A 
HETATM   26  C13 UNL     1      26.455   0.179  53.031  1.00  0.00     0.002 A 
HETATM   27  C15 UNL     1      25.205  -0.399  53.077  1.00  0.00     0.022 A 
BRANCH  26  28
HETATM   28  C14 UNL     1      27.664  -0.633  52.918  1.00  0.00     0.269 C 
HETATM   29  O2  UNL     1      27.578  -1.813  53.339  1.00  0.00    -0.301 OA
ENDBRANCH  26  28
ENDBRANCH  21  22
ENDBRANCH   5  21
TORSDOF 10
ENDMDL
MODEL 9
REMARK VINA RESULT:      -7.0      1.892      6.141
REMARK  10 active torsions:
REMARK  status: ('A' for Active; 'I' for Inactive)
REMARK    1  A    between atoms: N1_1  and  C1_2 
REMARK    2  A    between atoms: C1_2  and  C2_3 
REMARK    3  A    between atoms: C1_2  and  C17_21 
REMARK    4  A    between atoms: C2_3  and  C3_4 
REMARK    5  A    between atoms: C3_4  and  O1_5 
REMARK    6  A    between atoms: O1_5  and  C4_6 
REMARK    7  A    between atoms: C7_10  and  C8_11 
REMARK    8  A    between atoms: C8_11  and  C9_12 
REMARK    9  A    between atoms: C13_16  and  C14_17 
REMARK   10  A    between atoms: C17_21  and  C18_22 
ROOT
HETATM    1  C4  UNL     1      23.243   3.808  49.474  1.00  0.00     0.086 A 
HETATM    2  C5  UNL     1      22.332   4.755  49.846  1.00  0.00     0.152 A 
HETATM    3  N2  UNL     1      21.043   4.512  50.185  1.00  0.00    -0.270 NA
HETATM    4  C6  UNL     1      20.605   3.240  50.158  1.00  0.00     0.123 A 
HETATM    5  C7  UNL     1      21.491   2.240  49.788  1.00  0.00    -0.034 A 
HETATM    6  C16 UNL     1      22.818   2.501  49.440  1.00  0.00     0.047 A 
ENDROOT
BRANCH   1   7
HETATM    7  O1  UNL     1      24.542   4.091  49.136  1.00  0.00    -0.350 OA
BRANCH   7   8
HETATM    8  C3  UNL     1      25.562   4.365  50.058  1.00  0.00     0.178 C 
BRANCH   8   9
HETATM    9  C2  UNL     1      26.446   3.137  50.175  1.00  0.00     0.062 C 
BRANCH   9  10
HETATM   10  C1  UNL     1      26.300   2.640  51.585  1.00  0.00     0.224 C 
BRANCH  10  11
HETATM   11  N1  UNL     1      25.226   3.308  52.291  1.00  0.00     0.083 N 
HETATM   12  H1  UNL     1      25.537   4.220  52.709  1.00  0.00     0.313 HD
HETATM   13  H2  UNL     1      24.809   2.706  53.037  1.00  0.00     0.313 HD
ENDBRANCH  10  11
BRANCH  10  14
HETATM   14  C17 UNL     1      26.007   1.150  51.605  1.00  0.00     0.073 C 
BRANCH  14  15
HETATM   15  C18 UNL     1      27.076   0.487  52.357  1.00  0.00    -0.056 A 
HETATM   16  C19 UNL     1      28.070   1.265  52.949  1.00  0.00     0.007 A 
HETATM   17  C20 UNL     1      29.140   0.803  53.686  1.00  0.00     0.001 A 
HETATM   18  C21 UNL     1      29.237  -0.558  53.857  1.00  0.00     0.000 A 
HETATM   19  C22 UNL     1      28.290  -1.386  53.301  1.00  0.00     0.001 A 
HETATM   20  C23 UNL     1      27.240  -0.883  52.573  1.00  0.00     0.007 A 
ENDBRANCH  14  15
ENDBRANCH  10  14
ENDBRANCH   9  10
ENDBRANCH   8   9
ENDBRANCH   7   8
ENDBRANCH   1   7
BRANCH   5  21
HETATM   21  C8  UNL     1      21.078   0.800  49.734  1.00  0.00     0.078 C 
BRANCH  21  22
HETATM   22  C9  UNL     1      20.771   0.317  51.117  1.00  0.00    -0.053 A 
HETATM   23  C10 UNL     1      19.522   0.186  51.684  1.00  0.00     0.007 A 
HETATM   24  C11 UNL     1      19.395  -0.275  52.976  1.00  0.00     0.002 A 
HETATM   25  C12 UNL     1      20.514  -0.620  53.738  1.00  0.00     0.014 A 
HETATM   26  C13 UNL     1      21.772  -0.489  53.166  1.00  0.00     0.002 A 
HETATM   27  C15 UNL     1      21.893  -0.027  51.873  1.00  0.00     0.022 A 
BRANCH  26  28
HETATM   28  C14 UNL     1      22.948  -0.848  53.957  1.00  0.00     0.269 C 
HETATM   29  O2  UNL     1      23.879  -0.004  53.977  1.00  0.00    -0.301 OA
ENDBRANCH  26  28
ENDBRANCH  21  22
ENDBRANCH   5  21
TORSDOF 10
ENDMDL
