MODEL 1
REMARK VINA RESULT:      -8.1      0.000      0.000
REMARK  5 active torsions:
REMARK  status: ('A' for Active; 'I' for Inactive)
REMARK    1  A    between atoms: N1_4  and  C4_5 
REMARK    2  A    between atoms: C10_12  and  C11_13 
REMARK    3  A    between atoms: C11_13  and  C12_14 
REMARK    4  A    between atoms: C13_15  and  C14_16 
REMARK    5  A    between atoms: C14_16  and  C16_18 
ROOT
HETATM    1  C4  UNL     1      26.016   2.477  51.290  1.00  0.00     0.036 A 
HETATM    2  C5  UNL     1      26.760   3.058  50.369  1.00  0.00     0.008 A 
HETATM    3  C6  UNL     1      26.438   4.040  49.303  1.00  0.00     0.072 A 
HETATM    4  C7  UNL     1      24.987   4.337  49.397  1.00  0.00    -0.012 A 
HETATM    5  C8  UNL     1      23.970   5.026  48.890  1.00  0.00     0.098 A 
HETATM    6  N2  UNL     1      23.054   4.472  49.829  1.00  0.00    -0.364 N 
HETATM    7  C9  UNL     1      24.123   3.720  50.395  1.00  0.00     0.048 A 
HETATM    8  C10 UNL     1      24.607   2.857  51.273  1.00  0.00    -0.001 A 
HETATM    9  H9  UNL     1      22.053   4.511  50.090  1.00  0.00     0.165 HD
ENDROOT
BRANCH   1  10
HETATM   10  N1  UNL     1      26.625   1.559  52.191  1.00  0.00    -0.373 N 
HETATM   11  C3  UNL     1      27.633   2.170  53.010  1.00  0.00     0.162 C 
HETATM   12  C2  UNL     1      28.533   1.188  53.660  1.00  0.00    -0.028 C 
HETATM   13  C1  UNL     1      29.297   1.763  54.575  1.00  0.00     0.022 C 
HETATM   14  C19 UNL     1      28.533  -0.204  53.300  1.00  0.00     0.039 C 
HETATM   15  C18 UNL     1      27.491  -0.672  52.674  1.00  0.00     0.017 C 
HETATM   16 CL1  UNL     1      29.952  -1.130  53.751  1.00  0.00    -0.084 Cl
HETATM   17  C17 UNL     1      26.314   0.154  52.315  1.00  0.00     0.152 C 
ENDBRANCH   1  10
BRANCH   8  18
HETATM   18  C11 UNL     1      23.711   2.237  52.282  1.00  0.00     0.070 C 
BRANCH  18  19
HETATM   19  C12 UNL     1      22.871   1.149  51.766  1.00  0.00    -0.026 C 
HETATM   20  C13 UNL     1      22.293   0.210  52.507  1.00  0.00    -0.023 C 
BRANCH  20  21
HETATM   21  C14 UNL     1      22.294  -0.040  53.972  1.00  0.00     0.037 C 
HETATM   22  C15 UNL     1      23.565  -0.798  54.295  1.00  0.00     0.017 C 
BRANCH  21  23
HETATM   23  C16 UNL     1      21.122  -0.853  54.392  1.00  0.00     0.399 C 
HETATM   24  O1  UNL     1      21.013  -1.996  54.839  1.00  0.00    -0.429 OA
ENDBRANCH  21  23
ENDBRANCH  20  21
ENDBRANCH  18  19
ENDBRANCH   8  18
TORSDOF 5
ENDMDL
MODEL 2
REMARK VINA RESULT:      -8.1      3.241      5.995
REMARK  5 active torsions:
REMARK  status: ('A' for Active; 'I' for Inactive)
REMARK    1  A    between atoms: N1_4  and  C4_5 
REMARK    2  A    between atoms: C10_12  and  C11_13 
REMARK    3  A    between atoms: C11_13  and  C12_14 
REMARK    4  A    between atoms: C13_15  and  C14_16 
REMARK    5  A    between atoms: C14_16  and  C16_18 
ROOT
HETATM    1  C4  UNL     1      24.040   1.890  51.805  1.00  0.00     0.036 A 
HETATM    2  C5  UNL     1      22.935   1.580  51.154  1.00  0.00     0.008 A 
HETATM    3  C6  UNL     1      21.888   0.556  51.401  1.00  0.00     0.072 A 
HETATM    4  C7  UNL     1      22.274  -0.186  52.628  1.00  0.00    -0.012 A 
HETATM    5  C8  UNL     1      21.949  -1.158  53.473  1.00  0.00     0.098 A 
HETATM    6  N2  UNL     1      23.108  -0.931  54.267  1.00  0.00    -0.364 N 
HETATM    7  C9  UNL     1      23.484   0.117  53.380  1.00  0.00     0.048 A 
HETATM    8  C10 UNL     1      24.301   1.084  52.993  1.00  0.00    -0.001 A 
HETATM    9  H9  UNL     1      23.578  -1.288  55.118  1.00  0.00     0.165 HD
ENDROOT
BRANCH   1  10
HETATM   10  N1  UNL     1      24.859   2.944  51.312  1.00  0.00    -0.373 N 
HETATM   11  C3  UNL     1      24.225   4.230  51.405  1.00  0.00     0.162 C 
HETATM   12  C2  UNL     1      24.872   5.263  50.563  1.00  0.00    -0.028 C 
HETATM   13  C1  UNL     1      24.413   6.472  50.841  1.00  0.00     0.022 C 
HETATM   14  C19 UNL     1      25.870   4.933  49.581  1.00  0.00     0.039 C 
HETATM   15  C18 UNL     1      26.474   3.785  49.687  1.00  0.00     0.017 C 
HETATM   16 CL1  UNL     1      26.167   6.130  48.334  1.00  0.00    -0.084 Cl
HETATM   17  C17 UNL     1      26.186   2.806  50.761  1.00  0.00     0.152 C 
ENDBRANCH   1  10
BRANCH   8  18
HETATM   18  C11 UNL     1      25.532   1.378  53.772  1.00  0.00     0.070 C 
BRANCH  18  19
HETATM   19  C12 UNL     1      26.095   0.223  54.481  1.00  0.00    -0.026 C 
HETATM   20  C13 UNL     1      27.345  -0.214  54.361  1.00  0.00    -0.023 C 
BRANCH  20  21
HETATM   21  C14 UNL     1      28.492   0.267  53.550  1.00  0.00     0.037 C 
HETATM   22  C15 UNL     1      29.498  -0.863  53.481  1.00  0.00     0.017 C 
BRANCH  21  23
HETATM   23  C16 UNL     1      29.139   1.458  54.163  1.00  0.00     0.399 C 
HETATM   24  O1  UNL     1      28.851   2.656  54.169  1.00  0.00    -0.429 OA
ENDBRANCH  21  23
ENDBRANCH  20  21
ENDBRANCH  18  19
ENDBRANCH   8  18
TORSDOF 5
ENDMDL
MODEL 3
REMARK VINA RESULT:      -7.9      3.107      5.334
REMARK  5 active torsions:
REMARK  status: ('A' for Active; 'I' for Inactive)
REMARK    1  A    between atoms: N1_4  and  C4_5 
REMARK    2  A    between atoms: C10_12  and  C11_13 
REMARK    3  A    between atoms: C11_13  and  C12_14 
REMARK    4  A    between atoms: C13_15  and  C14_16 
REMARK    5  A    between atoms: C14_16  and  C16_18 
ROOT
HETATM    1  C4  UNL     1      24.540   4.581  49.094  1.00  0.00     0.036 A 
HETATM    2  C5  UNL     1      24.337   5.796  48.620  1.00  0.00     0.008 A 
HETATM    3  C6  UNL     1      25.271   6.881  48.228  1.00  0.00     0.072 A 
HETATM    4  C7  UNL     1      26.651   6.384  48.462  1.00  0.00    -0.012 A 
HETATM    5  C8  UNL     1      27.947   6.665  48.392  1.00  0.00     0.098 A 
HETATM    6  N2  UNL     1      28.309   5.384  48.897  1.00  0.00    -0.364 N 
HETATM    7  C9  UNL     1      26.927   5.052  48.984  1.00  0.00     0.048 A 
HETATM    8  C10 UNL     1      25.942   4.218  49.275  1.00  0.00    -0.001 A 
HETATM    9  H9  UNL     1      29.147   4.826  49.138  1.00  0.00     0.165 HD
ENDROOT
BRANCH   1  10
HETATM   10  N1  UNL     1      23.417   3.755  49.381  1.00  0.00    -0.373 N 
HETATM   11  C3  UNL     1      22.989   3.855  50.747  1.00  0.00     0.162 C 
HETATM   12  C2  UNL     1      22.099   2.746  51.164  1.00  0.00    -0.028 C 
HETATM   13  C1  UNL     1      21.546   2.985  52.342  1.00  0.00     0.022 C 
HETATM   14  C19 UNL     1      21.899   1.579  50.348  1.00  0.00     0.039 C 
HETATM   15  C18 UNL     1      22.201   1.660  49.084  1.00  0.00     0.017 C 
HETATM   16 CL1  UNL     1      21.261   0.159  51.155  1.00  0.00    -0.084 Cl
HETATM   17  C17 UNL     1      22.739   2.885  48.449  1.00  0.00     0.152 C 
ENDBRANCH   1  10
BRANCH   8  18
HETATM   18  C11 UNL     1      26.243   2.865  49.808  1.00  0.00     0.070 C 
BRANCH  18  19
HETATM   19  C12 UNL     1      26.807   2.854  51.163  1.00  0.00    -0.026 C 
HETATM   20  C13 UNL     1      26.701   1.852  52.030  1.00  0.00    -0.023 C 
BRANCH  20  21
HETATM   21  C14 UNL     1      26.041   0.525  51.937  1.00  0.00     0.037 C 
HETATM   22  C15 UNL     1      24.734   0.620  52.696  1.00  0.00     0.017 C 
BRANCH  21  23
HETATM   23  C16 UNL     1      26.876  -0.549  52.539  1.00  0.00     0.399 C 
HETATM   24  O1  UNL     1      26.760  -1.224  53.562  1.00  0.00    -0.429 OA
ENDBRANCH  21  23
ENDBRANCH  20  21
ENDBRANCH  18  19
ENDBRANCH   8  18
TORSDOF 5
ENDMDL
MODEL 4
REMARK VINA RESULT:      -7.8      2.722      5.394
REMARK  5 active torsions:
REMARK  status: ('A' for Active; 'I' for Inactive)
REMARK    1  A    between atoms: N1_4  and  C4_5 
REMARK    2  A    between atoms: C10_12  and  C11_13 
REMARK    3  A    between atoms: C11_13  and  C12_14 
REMARK    4  A    between atoms: C13_15  and  C14_16 
REMARK    5  A    between atoms: C14_16  and  C16_18 
ROOT
HETATM    1  C4  UNL     1      26.316   1.676  52.846  1.00  0.00     0.036 A 
HETATM    2  C5  UNL     1      27.444   2.354  52.940  1.00  0.00     0.008 A 
HETATM    3  C6  UNL     1      28.827   1.942  53.291  1.00  0.00     0.072 A 
HETATM    4  C7  UNL     1      28.798   0.483  53.565  1.00  0.00    -0.012 A 
HETATM    5  C8  UNL     1      29.509  -0.585  53.910  1.00  0.00     0.098 A 
HETATM    6  N2  UNL     1      28.368  -1.434  53.848  1.00  0.00    -0.364 N 
HETATM    7  C9  UNL     1      27.578  -0.308  53.476  1.00  0.00     0.048 A 
HETATM    8  C10 UNL     1      26.427   0.252  53.141  1.00  0.00    -0.001 A 
HETATM    9  H9  UNL     1      28.098  -2.423  53.984  1.00  0.00     0.165 HD
ENDROOT
BRANCH   1  10
HETATM   10  N1  UNL     1      25.125   2.366  52.481  1.00  0.00    -0.373 N 
HETATM   11  C3  UNL     1      24.798   2.213  51.092  1.00  0.00     0.162 C 
HETATM   12  C2  UNL     1      23.814   3.210  50.609  1.00  0.00    -0.028 C 
HETATM   13  C1  UNL     1      23.369   2.906  49.401  1.00  0.00     0.022 C 
HETATM   14  C19 UNL     1      23.431   4.349  51.399  1.00  0.00     0.039 C 
HETATM   15  C18 UNL     1      23.660   4.307  52.681  1.00  0.00     0.017 C 
HETATM   16 CL1  UNL     1      22.685   5.683  50.540  1.00  0.00    -0.084 Cl
HETATM   17  C17 UNL     1      24.294   3.154  53.360  1.00  0.00     0.152 C 
ENDBRANCH   1  10
BRANCH   8  18
HETATM   18  C11 UNL     1      25.193  -0.571  53.057  1.00  0.00     0.070 C 
BRANCH  18  19
HETATM   19  C12 UNL     1      24.464  -0.707  54.323  1.00  0.00    -0.026 C 
HETATM   20  C13 UNL     1      23.145  -0.813  54.440  1.00  0.00    -0.023 C 
BRANCH  20  21
HETATM   21  C14 UNL     1      22.056  -0.828  53.429  1.00  0.00     0.037 C 
HETATM   22  C15 UNL     1      21.822   0.606  53.002  1.00  0.00     0.017 C 
BRANCH  21  23
HETATM   23  C16 UNL     1      20.794  -1.383  53.987  1.00  0.00     0.399 C 
HETATM   24  O1  UNL     1      19.609  -1.224  53.693  1.00  0.00    -0.429 OA
ENDBRANCH  21  23
ENDBRANCH  20  21
ENDBRANCH  18  19
ENDBRANCH   8  18
TORSDOF 5
ENDMDL
MODEL 5
REMARK VINA RESULT:      -7.7      3.549      6.733
REMARK  5 active torsions:
REMARK  status: ('A' for Active; 'I' for Inactive)
REMARK    1  A    between atoms: N1_4  and  C4_5 
REMARK    2  A    between atoms: C10_12  and  C11_13 
REMARK    3  A    between atoms: C11_13  and  C12_14 
REMARK    4  A    between atoms: C13_15  and  C14_16 
REMARK    5  A    between atoms: C14_16  and  C16_18 
ROOT
HETATM    1  C4  UNL     1      20.021   1.179  51.979  1.00  0.00     0.036 A 
HETATM    2  C5  UNL     1      18.846   1.009  51.404  1.00  0.00     0.008 A 
HETATM    3  C6  UNL     1      17.768   0.012  51.619  1.00  0.00     0.072 A 
HETATM    4  C7  UNL     1      18.219  -0.903  52.698  1.00  0.00    -0.012 A 
HETATM    5  C8  UNL     1      17.915  -1.963  53.439  1.00  0.00     0.098 A 
HETATM    6  N2  UNL     1      19.153  -1.896  54.140  1.00  0.00    -0.364 N 
HETATM    7  C9  UNL     1      19.508  -0.759  53.361  1.00  0.00     0.048 A 
HETATM    8  C10 UNL     1      20.341   0.212  53.023  1.00  0.00    -0.001 A 
HETATM    9  H9  UNL     1      19.676  -2.384  54.889  1.00  0.00     0.165 HD
ENDROOT
BRANCH   1  10
HETATM   10  N1  UNL     1      20.852   2.251  51.546  1.00  0.00    -0.373 N 
HETATM   11  C3  UNL     1      21.534   1.964  50.316  1.00  0.00     0.162 C 
HETATM   12  C2  UNL     1      22.674   2.872  50.053  1.00  0.00    -0.028 C 
HETATM   13  C1  UNL     1      23.134   2.729  48.821  1.00  0.00     0.022 C 
HETATM   14  C19 UNL     1      23.177   3.776  51.053  1.00  0.00     0.039 C 
HETATM   15  C18 UNL     1      22.402   4.065  52.059  1.00  0.00     0.017 C 
HETATM   16 CL1  UNL     1      24.798   4.398  50.803  1.00  0.00    -0.084 Cl
HETATM   17  C17 UNL     1      21.038   3.512  52.225  1.00  0.00     0.152 C 
ENDBRANCH   1  10
BRANCH   8  18
HETATM   18  C11 UNL     1      21.652   0.343  53.710  1.00  0.00     0.070 C 
BRANCH  18  19
HETATM   19  C12 UNL     1      22.589  -0.755  53.450  1.00  0.00    -0.026 C 
HETATM   20  C13 UNL     1      23.910  -0.631  53.364  1.00  0.00    -0.023 C 
BRANCH  20  21
HETATM   21  C14 UNL     1      24.807   0.546  53.489  1.00  0.00     0.037 C 
HETATM   22  C15 UNL     1      25.244   0.927  52.090  1.00  0.00     0.017 C 
BRANCH  21  23
HETATM   23  C16 UNL     1      26.010   0.237  54.308  1.00  0.00     0.399 C 
HETATM   24  O1  UNL     1      26.167  -0.382  55.361  1.00  0.00    -0.429 OA
ENDBRANCH  21  23
ENDBRANCH  20  21
ENDBRANCH  18  19
ENDBRANCH   8  18
TORSDOF 5
ENDMDL
MODEL 6
REMARK VINA RESULT:      -7.7      3.004      6.470
REMARK  5 active torsions:
REMARK  status: ('A' for Active; 'I' for Inactive)
REMARK    1  A    between atoms: N1_4  and  C4_5 
REMARK    2  A    between atoms: C10_12  and  C11_13 
REMARK    3  A    between atoms: C11_13  and  C12_14 
REMARK    4  A    between atoms: C13_15  and  C14_16 
REMARK    5  A    between atoms: C14_16  and  C16_18 
ROOT
HETATM    1  C4  UNL     1      22.181   1.688  52.392  1.00  0.00     0.036 A 
HETATM    2  C5  UNL     1      20.971   1.207  52.613  1.00  0.00     0.008 A 
HETATM    3  C6  UNL     1      20.487   0.073  53.438  1.00  0.00     0.072 A 
HETATM    4  C7  UNL     1      21.674  -0.552  54.074  1.00  0.00    -0.012 A 
HETATM    5  C8  UNL     1      22.111  -1.515  54.879  1.00  0.00     0.098 A 
HETATM    6  N2  UNL     1      23.466  -1.101  54.727  1.00  0.00    -0.364 N 
HETATM    7  C9  UNL     1      23.028  -0.060  53.861  1.00  0.00     0.048 A 
HETATM    8  C10 UNL     1      23.258   0.982  53.078  1.00  0.00    -0.001 A 
HETATM    9  H9  UNL     1      24.419  -1.353  55.043  1.00  0.00     0.165 HD
ENDROOT
BRANCH   1  10
HETATM   10  N1  UNL     1      22.330   2.812  51.532  1.00  0.00    -0.373 N 
HETATM   11  C3  UNL     1      22.336   2.451  50.142  1.00  0.00     0.162 C 
HETATM   12  C2  UNL     1      22.870   3.518  49.263  1.00  0.00    -0.028 C 
HETATM   13  C1  UNL     1      22.654   3.247  47.986  1.00  0.00     0.022 C 
HETATM   14  C19 UNL     1      23.532   4.681  49.789  1.00  0.00     0.039 C 
HETATM   15  C18 UNL     1      23.335   4.981  51.041  1.00  0.00     0.017 C 
HETATM   16 CL1  UNL     1      24.543   5.579  48.673  1.00  0.00    -0.084 Cl
HETATM   17  C17 UNL     1      22.470   4.188  51.945  1.00  0.00     0.152 C 
ENDBRANCH   1  10
BRANCH   8  18
HETATM   18  C11 UNL     1      24.646   1.469  52.871  1.00  0.00     0.070 C 
BRANCH  18  19
HETATM   19  C12 UNL     1      25.531   0.516  52.191  1.00  0.00    -0.026 C 
HETATM   20  C13 UNL     1      26.774   0.227  52.561  1.00  0.00    -0.023 C 
BRANCH  20  21
HETATM   21  C14 UNL     1      27.617   0.719  53.681  1.00  0.00     0.037 C 
HETATM   22  C15 UNL     1      29.036   0.265  53.408  1.00  0.00     0.017 C 
BRANCH  21  23
HETATM   23  C16 UNL     1      27.172   0.167  54.989  1.00  0.00     0.399 C 
HETATM   24  O1  UNL     1      26.265  -0.603  55.306  1.00  0.00    -0.429 OA
ENDBRANCH  21  23
ENDBRANCH  20  21
ENDBRANCH  18  19
ENDBRANCH   8  18
TORSDOF 5
ENDMDL
MODEL 7
REMARK VINA RESULT:      -7.6      2.731      5.081
REMARK  5 active torsions:
REMARK  status: ('A' for Active; 'I' for Inactive)
REMARK    1  A    between atoms: N1_4  and  C4_5 
REMARK    2  A    between atoms: C10_12  and  C11_13 
REMARK    3  A    between atoms: C11_13  and  C12_14 
REMARK    4  A    between atoms: C13_15  and  C14_16 
REMARK    5  A    between atoms: C14_16  and  C16_18 
ROOT
HETATM    1  C4  UNL     1      23.272   0.043  53.278  1.00  0.00     0.036 A 
HETATM    2  C5  UNL     1      22.778  -0.655  54.283  1.00  0.00     0.008 A 
HETATM    3  C6  UNL     1      21.395  -1.076  54.618  1.00  0.00     0.072 A 
HETATM    4  C7  UNL     1      20.501  -0.551  53.555  1.00  0.00    -0.012 A 
HETATM    5  C8  UNL     1      19.252  -0.465  53.112  1.00  0.00     0.098 A 
HETATM    6  N2  UNL     1      19.648   0.300  51.978  1.00  0.00    -0.364 N 
HETATM    7  C9  UNL     1      20.997   0.226  52.427  1.00  0.00     0.048 A 
HETATM    8  C10 UNL     1      22.286   0.498  52.303  1.00  0.00    -0.001 A 
HETATM    9  H9  UNL     1      19.246   0.759  51.142  1.00  0.00     0.165 HD
ENDROOT
BRANCH   1  10
HETATM   10  N1  UNL     1      24.673   0.288  53.230  1.00  0.00    -0.373 N 
HETATM   11  C3  UNL     1      25.431  -0.885  52.897  1.00  0.00     0.162 C 
HETATM   12  C2  UNL     1      26.872  -0.760  53.217  1.00  0.00    -0.028 C 
HETATM   13  C1  UNL     1      27.572  -1.755  52.697  1.00  0.00     0.022 C 
HETATM   14  C19 UNL     1      27.389   0.330  54.001  1.00  0.00     0.039 C 
HETATM   15  C18 UNL     1      26.657   1.401  54.115  1.00  0.00     0.017 C 
HETATM   16 CL1  UNL     1      28.969   0.094  54.725  1.00  0.00    -0.084 Cl
HETATM   17  C17 UNL     1      25.326   1.551  53.482  1.00  0.00     0.152 C 
ENDBRANCH   1  10
BRANCH   8  18
HETATM   18  C11 UNL     1      22.773   1.294  51.146  1.00  0.00     0.070 C 
BRANCH  18  19
HETATM   19  C12 UNL     1      22.799   2.744  51.371  1.00  0.00    -0.026 C 
HETATM   20  C13 UNL     1      21.830   3.589  51.036  1.00  0.00    -0.023 C 
BRANCH  20  21
HETATM   21  C14 UNL     1      20.513   3.380  50.381  1.00  0.00     0.037 C 
HETATM   22  C15 UNL     1      20.536   4.144  49.074  1.00  0.00     0.017 C 
BRANCH  21  23
HETATM   23  C16 UNL     1      19.394   3.884  51.221  1.00  0.00     0.399 C 
HETATM   24  O1  UNL     1      18.726   3.372  52.119  1.00  0.00    -0.429 OA
ENDBRANCH  21  23
ENDBRANCH  20  21
ENDBRANCH  18  19
ENDBRANCH   8  18
TORSDOF 5
ENDMDL
MODEL 8
REMARK VINA RESULT:      -7.6      1.706      1.949
REMARK  5 active torsions:
REMARK  status: ('A' for Active; 'I' for Inactive)
REMARK    1  A    between atoms: N1_4  and  C4_5 
REMARK    2  A    between atoms: C10_12  and  C11_13 
REMARK    3  A    between atoms: C11_13  and  C12_14 
REMARK    4  A    between atoms: C13_15  and  C14_16 
REMARK    5  A    between atoms: C14_16  and  C16_18 
ROOT
HETATM    1  C4  UNL     1      25.798   2.336  51.195  1.00  0.00     0.036 A 
HETATM    2  C5  UNL     1      26.592   3.096  50.465  1.00  0.00     0.008 A 
HETATM    3  C6  UNL     1      26.312   4.156  49.464  1.00  0.00     0.072 A 
HETATM    4  C7  UNL     1      24.837   4.285  49.356  1.00  0.00    -0.012 A 
HETATM    5  C8  UNL     1      23.829   4.918  48.765  1.00  0.00     0.098 A 
HETATM    6  N2  UNL     1      22.861   4.165  49.488  1.00  0.00    -0.364 N 
HETATM    7  C9  UNL     1      23.918   3.468  50.138  1.00  0.00     0.048 A 
HETATM    8  C10 UNL     1      24.371   2.564  50.992  1.00  0.00    -0.001 A 
HETATM    9  H9  UNL     1      21.835   4.068  49.589  1.00  0.00     0.165 HD
ENDROOT
BRANCH   1  10
HETATM   10  N1  UNL     1      26.376   1.388  52.085  1.00  0.00    -0.373 N 
HETATM   11  C3  UNL     1      27.486   1.923  52.822  1.00  0.00     0.162 C 
HETATM   12  C2  UNL     1      28.331   0.878  53.446  1.00  0.00    -0.028 C 
HETATM   13  C1  UNL     1      29.201   1.402  54.294  1.00  0.00     0.022 C 
HETATM   14  C19 UNL     1      28.181  -0.516  53.130  1.00  0.00     0.039 C 
HETATM   15  C18 UNL     1      27.063  -0.901  52.583  1.00  0.00     0.017 C 
HETATM   16 CL1  UNL     1      29.535  -1.559  53.522  1.00  0.00    -0.084 Cl
HETATM   17  C17 UNL     1      25.946   0.022  52.271  1.00  0.00     0.152 C 
ENDBRANCH   1  10
BRANCH   8  18
HETATM   18  C11 UNL     1      23.419   1.740  51.780  1.00  0.00     0.070 C 
BRANCH  18  19
HETATM   19  C12 UNL     1      22.508   0.920  50.972  1.00  0.00    -0.026 C 
HETATM   20  C13 UNL     1      21.246   0.644  51.283  1.00  0.00    -0.023 C 
BRANCH  20  21
HETATM   21  C14 UNL     1      20.402   1.030  52.444  1.00  0.00     0.037 C 
HETATM   22  C15 UNL     1      19.443  -0.114  52.700  1.00  0.00     0.017 C 
BRANCH  21  23
HETATM   23  C16 UNL     1      19.624   2.267  52.171  1.00  0.00     0.399 C 
HETATM   24  O1  UNL     1      19.792   3.446  52.482  1.00  0.00    -0.429 OA
ENDBRANCH  21  23
ENDBRANCH  20  21
ENDBRANCH  18  19
ENDBRANCH   8  18
TORSDOF 5
ENDMDL
MODEL 9
REMARK VINA RESULT:      -7.5      2.795      5.502
REMARK  5 active torsions:
REMARK  status: ('A' for Active; 'I' for Inactive)
REMARK    1  A    between atoms: N1_4  and  C4_5 
REMARK    2  A    between atoms: C10_12  and  C11_13 
REMARK    3  A    between atoms: C11_13  and  C12_14 
REMARK    4  A    between atoms: C13_15  and  C14_16 
REMARK    5  A    between atoms: C14_16  and  C16_18 
ROOT
HETATM    1  C4  UNL     1      23.269   0.041  53.294  1.00  0.00     0.036 A 
HETATM    2  C5  UNL     1      22.859  -0.688  54.315  1.00  0.00     0.008 A 
HETATM    3  C6  UNL     1      21.518  -1.193  54.702  1.00  0.00     0.072 A 
HETATM    4  C7  UNL     1      20.553  -0.721  53.677  1.00  0.00    -0.012 A 
HETATM    5  C8  UNL     1      19.284  -0.711  53.283  1.00  0.00     0.098 A 
HETATM    6  N2  UNL     1      19.589   0.078  52.137  1.00  0.00    -0.364 N 
HETATM    7  C9  UNL     1      20.957   0.086  52.533  1.00  0.00     0.048 A 
HETATM    8  C10 UNL     1      22.221   0.437  52.360  1.00  0.00    -0.001 A 
HETATM    9  H9  UNL     1      19.127   0.513  51.319  1.00  0.00     0.165 HD
ENDROOT
BRANCH   1  10
HETATM   10  N1  UNL     1      24.650   0.371  53.193  1.00  0.00    -0.373 N 
HETATM   11  C3  UNL     1      25.484  -0.780  52.995  1.00  0.00     0.162 C 
HETATM   12  C2  UNL     1      26.916  -0.520  53.273  1.00  0.00    -0.028 C 
HETATM   13  C1  UNL     1      27.678  -1.524  52.868  1.00  0.00     0.022 C 
HETATM   14  C19 UNL     1      27.363   0.690  53.908  1.00  0.00     0.039 C 
HETATM   15  C18 UNL     1      26.561   1.715  53.901  1.00  0.00     0.017 C 
HETATM   16 CL1  UNL     1      28.961   0.652  54.629  1.00  0.00    -0.084 Cl
HETATM   17  C17 UNL     1      25.217   1.697  53.277  1.00  0.00     0.152 C 
ENDBRANCH   1  10
BRANCH   8  18
HETATM   18  C11 UNL     1      22.613   1.262  51.189  1.00  0.00     0.070 C 
BRANCH  18  19
HETATM   19  C12 UNL     1      22.362   2.700  51.345  1.00  0.00    -0.026 C 
HETATM   20  C13 UNL     1      22.829   3.650  50.541  1.00  0.00    -0.023 C 
BRANCH  20  21
HETATM   21  C14 UNL     1      23.681   3.593  49.325  1.00  0.00     0.037 C 
HETATM   22  C15 UNL     1      25.122   3.576  49.790  1.00  0.00     0.017 C 
BRANCH  21  23
HETATM   23  C16 UNL     1      23.466   4.773  48.446  1.00  0.00     0.399 C 
HETATM   24  O1  UNL     1      22.505   5.154  47.778  1.00  0.00    -0.429 OA
ENDBRANCH  21  23
ENDBRANCH  20  21
ENDBRANCH  18  19
ENDBRANCH   8  18
TORSDOF 5
ENDMDL
