MODEL 1
REMARK VINA RESULT:      -7.8      0.000      0.000
REMARK  11 active torsions:
REMARK  status: ('A' for Active; 'I' for Inactive)
REMARK    1  A    between atoms: C4_4  and  N1_5 
REMARK    2  A    between atoms: N1_5  and  C5_6 
REMARK    3  A    between atoms: C5_6  and  N2_8 
REMARK    4  A    between atoms: N2_8  and  C6_9 
REMARK    5  A    between atoms: N2_8  and  O1_17 
REMARK    6  A    between atoms: C6_9  and  C7_10 
REMARK    7  A    between atoms: C7_10  and  C8_11 
REMARK    8  A    between atoms: C9_12  and  C10_13 
REMARK    9  A    between atoms: O1_17  and  C14_18 
REMARK   10  A    between atoms: C14_18  and  C15_19 
REMARK   11  A    between atoms: C18_22  and  O2_23 
ROOT
HETATM    1  N2  UNL     1      25.901   3.196  50.881  1.00  0.00    -0.232 N 
ENDROOT
BRANCH   1   2
HETATM    2  C5  UNL     1      26.218   4.170  49.867  1.00  0.00     0.198 C 
HETATM    3  S1  UNL     1      25.231   5.498  49.842  1.00  0.00    -0.039 SA
BRANCH   2   4
HETATM    4  N1  UNL     1      27.272   4.128  48.889  1.00  0.00    -0.335 N 
HETATM    5  H6  UNL     1      27.424   3.197  48.462  1.00  0.00     0.168 HD
BRANCH   4   6
HETATM    6  C4  UNL     1      28.025   5.287  48.551  1.00  0.00     0.016 A 
HETATM    7  C2  UNL     1      28.317   6.736  48.406  1.00  0.00     0.055 A 
HETATM    8  C1  UNL     1      27.447   7.438  47.398  1.00  0.00     0.020 C 
HETATM    9  C3  UNL     1      29.191   5.659  48.044  1.00  0.00     0.009 A 
ENDBRANCH   4   6
ENDBRANCH   2   4
ENDBRANCH   1   2
BRANCH   1  10
HETATM   10  C6  UNL     1      24.644   3.186  51.617  1.00  0.00     0.162 C 
BRANCH  10  11
HETATM   11  C7  UNL     1      23.707   2.105  51.201  1.00  0.00     0.049 C 
BRANCH  11  12
HETATM   12  C8  UNL     1      23.225   1.255  52.339  1.00  0.00    -0.025 C 
HETATM   13  C9  UNL     1      22.380   0.224  52.296  1.00  0.00    -0.003 C 
BRANCH  13  14
HETATM   14  C10 UNL     1      21.988  -0.530  53.504  1.00  0.00     0.011 C 
HETATM   15  C11 UNL     1      23.015  -0.811  54.287  1.00  0.00    -0.036 A 
HETATM   16  C12 UNL     1      24.298  -0.974  54.935  1.00  0.00     0.012 A 
HETATM   17  C13 UNL     1      23.212  -1.523  55.566  1.00  0.00     0.012 A 
ENDBRANCH  13  14
ENDBRANCH  11  12
ENDBRANCH  10  11
ENDBRANCH   1  10
BRANCH   1  18
HETATM   18  O1  UNL     1      26.956   2.328  51.015  1.00  0.00    -0.271 OA
BRANCH  18  19
HETATM   19  C14 UNL     1      27.061   2.073  52.367  1.00  0.00     0.240 C 
BRANCH  19  20
HETATM   20  C15 UNL     1      27.425   0.639  52.610  1.00  0.00    -0.032 A 
HETATM   21  C16 UNL     1      28.606   0.341  53.280  1.00  0.00     0.012 A 
HETATM   22  C17 UNL     1      28.980  -0.981  53.526  1.00  0.00     0.037 A 
HETATM   23  C18 UNL     1      28.117  -1.970  53.071  1.00  0.00     0.065 A 
HETATM   24  C19 UNL     1      26.937  -1.700  52.403  1.00  0.00     0.037 A 
HETATM   25  C20 UNL     1      26.593  -0.374  52.174  1.00  0.00     0.012 A 
BRANCH  23  26
HETATM   26  O2  UNL     1      28.442  -3.310  53.291  1.00  0.00    -0.361 OA
HETATM   27  H20 UNL     1      29.384  -3.586  53.605  1.00  0.00     0.217 HD
ENDBRANCH  23  26
ENDBRANCH  19  20
ENDBRANCH  18  19
ENDBRANCH   1  18
TORSDOF 11
ENDMDL
MODEL 2
REMARK VINA RESULT:      -7.5      1.895      6.877
REMARK  11 active torsions:
REMARK  status: ('A' for Active; 'I' for Inactive)
REMARK    1  A    between atoms: C4_4  and  N1_5 
REMARK    2  A    between atoms: N1_5  and  C5_6 
REMARK    3  A    between atoms: C5_6  and  N2_8 
REMARK    4  A    between atoms: N2_8  and  C6_9 
REMARK    5  A    between atoms: N2_8  and  O1_17 
REMARK    6  A    between atoms: C6_9  and  C7_10 
REMARK    7  A    between atoms: C7_10  and  C8_11 
REMARK    8  A    between atoms: C9_12  and  C10_13 
REMARK    9  A    between atoms: O1_17  and  C14_18 
REMARK   10  A    between atoms: C14_18  and  C15_19 
REMARK   11  A    between atoms: C18_22  and  O2_23 
ROOT
HETATM    1  N2  UNL     1      24.430   2.252  52.491  1.00  0.00    -0.232 N 
ENDROOT
BRANCH   1   2
HETATM    2  C5  UNL     1      23.274   1.400  52.601  1.00  0.00     0.198 C 
HETATM    3  S1  UNL     1      21.822   2.160  52.377  1.00  0.00    -0.039 SA
BRANCH   2   4
HETATM    4  N1  UNL     1      23.231  -0.011  52.879  1.00  0.00    -0.335 N 
HETATM    5  H6  UNL     1      24.000  -0.557  52.450  1.00  0.00     0.168 HD
BRANCH   4   6
HETATM    6  C4  UNL     1      22.207  -0.584  53.685  1.00  0.00     0.016 A 
HETATM    7  C2  UNL     1      20.962  -1.332  53.988  1.00  0.00     0.055 A 
HETATM    8  C1  UNL     1      19.708  -0.659  53.496  1.00  0.00     0.020 C 
HETATM    9  C3  UNL     1      21.832  -0.720  54.948  1.00  0.00     0.009 A 
ENDBRANCH   4   6
ENDBRANCH   2   4
ENDBRANCH   1   2
BRANCH   1  10
HETATM   10  C6  UNL     1      24.493   3.407  51.605  1.00  0.00     0.162 C 
BRANCH  10  11
HETATM   11  C7  UNL     1      24.515   3.057  50.156  1.00  0.00     0.049 C 
BRANCH  11  12
HETATM   12  C8  UNL     1      25.506   3.853  49.360  1.00  0.00    -0.025 C 
HETATM   13  C9  UNL     1      26.833   3.887  49.496  1.00  0.00    -0.003 C 
BRANCH  13  14
HETATM   14  C10 UNL     1      27.696   4.723  48.638  1.00  0.00     0.011 C 
HETATM   15  C11 UNL     1      27.246   5.960  48.511  1.00  0.00    -0.036 A 
HETATM   16  C12 UNL     1      26.533   7.218  48.551  1.00  0.00     0.012 A 
HETATM   17  C13 UNL     1      27.676   7.178  47.795  1.00  0.00     0.012 A 
ENDBRANCH  13  14
ENDBRANCH  11  12
ENDBRANCH  10  11
ENDBRANCH   1  10
BRANCH   1  18
HETATM   18  O1  UNL     1      25.411   1.791  53.333  1.00  0.00    -0.271 OA
BRANCH  18  19
HETATM   19  C14 UNL     1      26.538   1.644  52.551  1.00  0.00     0.240 C 
BRANCH  19  20
HETATM   20  C15 UNL     1      27.158   0.295  52.760  1.00  0.00    -0.032 A 
HETATM   21  C16 UNL     1      28.396   0.205  53.386  1.00  0.00     0.012 A 
HETATM   22  C17 UNL     1      29.006  -1.033  53.599  1.00  0.00     0.037 A 
HETATM   23  C18 UNL     1      28.316  -2.154  53.158  1.00  0.00     0.065 A 
HETATM   24  C19 UNL     1      27.084  -2.091  52.533  1.00  0.00     0.037 A 
HETATM   25  C20 UNL     1      26.503  -0.845  52.336  1.00  0.00     0.012 A 
BRANCH  23  26
HETATM   26  O2  UNL     1      28.880  -3.417  53.345  1.00  0.00    -0.361 OA
HETATM   27  H20 UNL     1      29.054  -4.047  52.548  1.00  0.00     0.217 HD
ENDBRANCH  23  26
ENDBRANCH  19  20
ENDBRANCH  18  19
ENDBRANCH   1  18
TORSDOF 11
ENDMDL
MODEL 3
REMARK VINA RESULT:      -7.4      2.420      4.431
REMARK  11 active torsions:
REMARK  status: ('A' for Active; 'I' for Inactive)
REMARK    1  A    between atoms: C4_4  and  N1_5 
REMARK    2  A    between atoms: N1_5  and  C5_6 
REMARK    3  A    between atoms: C5_6  and  N2_8 
REMARK    4  A    between atoms: N2_8  and  C6_9 
REMARK    5  A    between atoms: N2_8  and  O1_17 
REMARK    6  A    between atoms: C6_9  and  C7_10 
REMARK    7  A    between atoms: C7_10  and  C8_11 
REMARK    8  A    between atoms: C9_12  and  C10_13 
REMARK    9  A    between atoms: O1_17  and  C14_18 
REMARK   10  A    between atoms: C14_18  and  C15_19 
REMARK   11  A    between atoms: C18_22  and  O2_23 
ROOT
HETATM    1  N2  UNL     1      23.582   3.772  51.111  1.00  0.00    -0.232 N 
ENDROOT
BRANCH   1   2
HETATM    2  C5  UNL     1      23.459   5.199  51.269  1.00  0.00     0.198 C 
HETATM    3  S1  UNL     1      21.912   5.779  51.198  1.00  0.00    -0.039 SA
BRANCH   2   4
HETATM    4  N1  UNL     1      24.504   6.166  51.479  1.00  0.00    -0.335 N 
HETATM    5  H6  UNL     1      24.699   6.378  52.474  1.00  0.00     0.168 HD
BRANCH   4   6
HETATM    6  C4  UNL     1      25.201   6.762  50.390  1.00  0.00     0.016 A 
HETATM    7  C2  UNL     1      26.322   7.434  49.687  1.00  0.00     0.055 A 
HETATM    8  C1  UNL     1      26.595   8.835  50.170  1.00  0.00     0.020 C 
HETATM    9  C3  UNL     1      25.067   7.057  49.106  1.00  0.00     0.009 A 
ENDBRANCH   4   6
ENDBRANCH   2   4
ENDBRANCH   1   2
BRANCH   1  10
HETATM   10  C6  UNL     1      24.023   3.139  49.874  1.00  0.00     0.162 C 
BRANCH  10  11
HETATM   11  C7  UNL     1      25.482   3.285  49.606  1.00  0.00     0.049 C 
BRANCH  11  12
HETATM   12  C8  UNL     1      26.344   2.987  50.796  1.00  0.00    -0.025 C 
HETATM   13  C9  UNL     1      26.560   1.808  51.381  1.00  0.00    -0.003 C 
BRANCH  13  14
HETATM   14  C10 UNL     1      27.441   1.656  52.557  1.00  0.00     0.011 C 
HETATM   15  C11 UNL     1      27.615   0.392  52.904  1.00  0.00    -0.036 A 
HETATM   16  C12 UNL     1      27.627  -1.047  53.051  1.00  0.00     0.012 A 
HETATM   17  C13 UNL     1      28.354  -0.326  53.963  1.00  0.00     0.012 A 
ENDBRANCH  13  14
ENDBRANCH  11  12
ENDBRANCH  10  11
ENDBRANCH   1  10
BRANCH   1  18
HETATM   18  O1  UNL     1      23.221   3.157  52.283  1.00  0.00    -0.271 OA
BRANCH  18  19
HETATM   19  C14 UNL     1      22.510   2.033  51.912  1.00  0.00     0.240 C 
BRANCH  19  20
HETATM   20  C15 UNL     1      22.627   0.962  52.955  1.00  0.00    -0.032 A 
HETATM   21  C16 UNL     1      23.867   0.382  53.198  1.00  0.00     0.012 A 
HETATM   22  C17 UNL     1      24.016  -0.617  54.161  1.00  0.00     0.037 A 
HETATM   23  C18 UNL     1      22.873  -0.995  54.854  1.00  0.00     0.065 A 
HETATM   24  C19 UNL     1      21.629  -0.433  54.631  1.00  0.00     0.037 A 
HETATM   25  C20 UNL     1      21.513   0.559  53.666  1.00  0.00     0.012 A 
BRANCH  23  26
HETATM   26  O2  UNL     1      22.966  -1.990  55.828  1.00  0.00    -0.361 OA
HETATM   27  H20 UNL     1      22.840  -2.985  55.588  1.00  0.00     0.217 HD
ENDBRANCH  23  26
ENDBRANCH  19  20
ENDBRANCH  18  19
ENDBRANCH   1  18
TORSDOF 11
ENDMDL
MODEL 4
REMARK VINA RESULT:      -7.3      2.766      4.734
REMARK  11 active torsions:
REMARK  status: ('A' for Active; 'I' for Inactive)
REMARK    1  A    between atoms: C4_4  and  N1_5 
REMARK    2  A    between atoms: N1_5  and  C5_6 
REMARK    3  A    between atoms: C5_6  and  N2_8 
REMARK    4  A    between atoms: N2_8  and  C6_9 
REMARK    5  A    between atoms: N2_8  and  O1_17 
REMARK    6  A    between atoms: C6_9  and  C7_10 
REMARK    7  A    between atoms: C7_10  and  C8_11 
REMARK    8  A    between atoms: C9_12  and  C10_13 
REMARK    9  A    between atoms: O1_17  and  C14_18 
REMARK   10  A    between atoms: C14_18  and  C15_19 
REMARK   11  A    between atoms: C18_22  and  O2_23 
ROOT
HETATM    1  N2  UNL     1      22.241   3.383  50.647  1.00  0.00    -0.232 N 
ENDROOT
BRANCH   1   2
HETATM    2  C5  UNL     1      22.716   3.765  49.342  1.00  0.00     0.198 C 
HETATM    3  S1  UNL     1      22.400   2.676  48.138  1.00  0.00    -0.039 SA
BRANCH   2   4
HETATM    4  N1  UNL     1      23.420   4.961  48.965  1.00  0.00    -0.335 N 
HETATM    5  H6  UNL     1      22.821   5.704  48.562  1.00  0.00     0.168 HD
BRANCH   4   6
HETATM    6  C4  UNL     1      24.826   5.091  49.148  1.00  0.00     0.016 A 
HETATM    7  C2  UNL     1      26.261   4.735  49.020  1.00  0.00     0.055 A 
HETATM    8  C1  UNL     1      26.642   3.463  49.730  1.00  0.00     0.020 C 
HETATM    9  C3  UNL     1      25.733   5.871  49.716  1.00  0.00     0.009 A 
ENDBRANCH   4   6
ENDBRANCH   2   4
ENDBRANCH   1   2
BRANCH   1  10
HETATM   10  C6  UNL     1      22.142   4.311  51.767  1.00  0.00     0.162 C 
BRANCH  10  11
HETATM   11  C7  UNL     1      23.435   4.560  52.463  1.00  0.00     0.049 C 
BRANCH  11  12
HETATM   12  C8  UNL     1      23.971   3.358  53.183  1.00  0.00    -0.025 C 
HETATM   13  C9  UNL     1      25.008   2.590  52.844  1.00  0.00    -0.003 C 
BRANCH  13  14
HETATM   14  C10 UNL     1      25.431   1.427  53.651  1.00  0.00     0.011 C 
HETATM   15  C11 UNL     1      26.050   0.506  52.933  1.00  0.00    -0.036 A 
HETATM   16  C12 UNL     1      26.679  -0.313  51.920  1.00  0.00     0.012 A 
HETATM   17  C13 UNL     1      26.655  -0.816  53.195  1.00  0.00     0.012 A 
ENDBRANCH  13  14
ENDBRANCH  11  12
ENDBRANCH  10  11
ENDBRANCH   1  10
BRANCH   1  18
HETATM   18  O1  UNL     1      21.923   2.048  50.637  1.00  0.00    -0.271 OA
BRANCH  18  19
HETATM   19  C14 UNL     1      20.917   1.895  51.570  1.00  0.00     0.240 C 
BRANCH  19  20
HETATM   20  C15 UNL     1      21.302   0.882  52.606  1.00  0.00    -0.032 A 
HETATM   21  C16 UNL     1      22.273  -0.066  52.302  1.00  0.00     0.012 A 
HETATM   22  C17 UNL     1      22.659  -1.025  53.240  1.00  0.00     0.037 A 
HETATM   23  C18 UNL     1      22.028  -0.980  54.477  1.00  0.00     0.065 A 
HETATM   24  C19 UNL     1      21.060  -0.048  54.803  1.00  0.00     0.037 A 
HETATM   25  C20 UNL     1      20.699   0.894  53.848  1.00  0.00     0.012 A 
BRANCH  23  26
HETATM   26  O2  UNL     1      22.376  -1.917  55.452  1.00  0.00    -0.361 OA
HETATM   27  H20 UNL     1      21.824  -2.015  56.317  1.00  0.00     0.217 HD
ENDBRANCH  23  26
ENDBRANCH  19  20
ENDBRANCH  18  19
ENDBRANCH   1  18
TORSDOF 11
ENDMDL
MODEL 5
REMARK VINA RESULT:      -7.3      1.535      2.065
REMARK  11 active torsions:
REMARK  status: ('A' for Active; 'I' for Inactive)
REMARK    1  A    between atoms: C4_4  and  N1_5 
REMARK    2  A    between atoms: N1_5  and  C5_6 
REMARK    3  A    between atoms: C5_6  and  N2_8 
REMARK    4  A    between atoms: N2_8  and  C6_9 
REMARK    5  A    between atoms: N2_8  and  O1_17 
REMARK    6  A    between atoms: C6_9  and  C7_10 
REMARK    7  A    between atoms: C7_10  and  C8_11 
REMARK    8  A    between atoms: C9_12  and  C10_13 
REMARK    9  A    between atoms: O1_17  and  C14_18 
REMARK   10  A    between atoms: C14_18  and  C15_19 
REMARK   11  A    between atoms: C18_22  and  O2_23 
ROOT
HETATM    1  N2  UNL     1      24.531   3.813  50.413  1.00  0.00    -0.232 N 
ENDROOT
BRANCH   1   2
HETATM    2  C5  UNL     1      24.594   5.200  50.029  1.00  0.00     0.198 C 
HETATM    3  S1  UNL     1      23.920   6.255  51.110  1.00  0.00    -0.039 SA
BRANCH   2   4
HETATM    4  N1  UNL     1      25.162   5.770  48.836  1.00  0.00    -0.335 N 
HETATM    5  H6  UNL     1      24.466   6.065  48.128  1.00  0.00     0.168 HD
BRANCH   4   6
HETATM    6  C4  UNL     1      26.569   5.912  48.672  1.00  0.00     0.016 A 
HETATM    7  C2  UNL     1      27.865   6.621  48.528  1.00  0.00     0.055 A 
HETATM    8  C1  UNL     1      27.992   7.412  47.253  1.00  0.00     0.020 C 
HETATM    9  C3  UNL     1      27.676   5.200  48.531  1.00  0.00     0.009 A 
ENDBRANCH   4   6
ENDBRANCH   2   4
ENDBRANCH   1   2
BRANCH   1  10
HETATM   10  C6  UNL     1      23.531   2.885  49.901  1.00  0.00     0.162 C 
BRANCH  10  11
HETATM   11  C7  UNL     1      22.408   2.623  50.845  1.00  0.00     0.049 C 
BRANCH  11  12
HETATM   12  C8  UNL     1      22.593   1.384  51.670  1.00  0.00    -0.025 C 
HETATM   13  C9  UNL     1      23.277   1.246  52.806  1.00  0.00    -0.003 C 
BRANCH  13  14
HETATM   14  C10 UNL     1      23.378  -0.044  53.519  1.00  0.00     0.011 C 
HETATM   15  C11 UNL     1      22.197  -0.553  53.823  1.00  0.00    -0.036 A 
HETATM   16  C12 UNL     1      20.798  -0.865  54.022  1.00  0.00     0.012 A 
HETATM   17  C13 UNL     1      21.708  -1.763  54.516  1.00  0.00     0.012 A 
ENDBRANCH  13  14
ENDBRANCH  11  12
ENDBRANCH  10  11
ENDBRANCH   1  10
BRANCH   1  18
HETATM   18  O1  UNL     1      25.537   3.548  51.308  1.00  0.00    -0.271 OA
BRANCH  18  19
HETATM   19  C14 UNL     1      26.275   2.525  50.750  1.00  0.00     0.240 C 
BRANCH  19  20
HETATM   20  C15 UNL     1      26.897   1.674  51.817  1.00  0.00    -0.032 A 
HETATM   21  C16 UNL     1      26.668   0.303  51.812  1.00  0.00     0.012 A 
HETATM   22  C17 UNL     1      27.229  -0.522  52.789  1.00  0.00     0.037 A 
HETATM   23  C18 UNL     1      28.018   0.094  53.751  1.00  0.00     0.065 A 
HETATM   24  C19 UNL     1      28.260   1.455  53.777  1.00  0.00     0.037 A 
HETATM   25  C20 UNL     1      27.688   2.250  52.792  1.00  0.00     0.012 A 
BRANCH  23  26
HETATM   26  O2  UNL     1      28.604  -0.684  54.751  1.00  0.00    -0.361 OA
HETATM   27  H20 UNL     1      28.963  -0.257  55.617  1.00  0.00     0.217 HD
ENDBRANCH  23  26
ENDBRANCH  19  20
ENDBRANCH  18  19
ENDBRANCH   1  18
TORSDOF 11
ENDMDL
MODEL 6
REMARK VINA RESULT:      -7.2      2.220      3.424
REMARK  11 active torsions:
REMARK  status: ('A' for Active; 'I' for Inactive)
REMARK    1  A    between atoms: C4_4  and  N1_5 
REMARK    2  A    between atoms: N1_5  and  C5_6 
REMARK    3  A    between atoms: C5_6  and  N2_8 
REMARK    4  A    between atoms: N2_8  and  C6_9 
REMARK    5  A    between atoms: N2_8  and  O1_17 
REMARK    6  A    between atoms: C6_9  and  C7_10 
REMARK    7  A    between atoms: C7_10  and  C8_11 
REMARK    8  A    between atoms: C9_12  and  C10_13 
REMARK    9  A    between atoms: O1_17  and  C14_18 
REMARK   10  A    between atoms: C14_18  and  C15_19 
REMARK   11  A    between atoms: C18_22  and  O2_23 
ROOT
HETATM    1  N2  UNL     1      25.108   2.928  51.401  1.00  0.00    -0.232 N 
ENDROOT
BRANCH   1   2
HETATM    2  C5  UNL     1      24.918   3.602  50.142  1.00  0.00     0.198 C 
HETATM    3  S1  UNL     1      25.326   5.205  50.140  1.00  0.00    -0.039 SA
BRANCH   2   4
HETATM    4  N1  UNL     1      24.424   3.057  48.906  1.00  0.00    -0.335 N 
HETATM    5  H6  UNL     1      25.159   2.834  48.211  1.00  0.00     0.168 HD
BRANCH   4   6
HETATM    6  C4  UNL     1      23.034   2.846  48.684  1.00  0.00     0.016 A 
HETATM    7  C2  UNL     1      21.647   2.424  49.001  1.00  0.00     0.055 A 
HETATM    8  C1  UNL     1      21.485   0.937  49.179  1.00  0.00     0.020 C 
HETATM    9  C3  UNL     1      22.092   3.002  47.767  1.00  0.00     0.009 A 
ENDBRANCH   4   6
ENDBRANCH   2   4
ENDBRANCH   1   2
BRANCH   1  10
HETATM   10  C6  UNL     1      24.346   3.245  52.602  1.00  0.00     0.162 C 
BRANCH  10  11
HETATM   11  C7  UNL     1      22.869   3.184  52.415  1.00  0.00     0.049 C 
BRANCH  11  12
HETATM   12  C8  UNL     1      22.291   1.817  52.630  1.00  0.00    -0.025 C 
HETATM   13  C9  UNL     1      21.020   1.488  52.866  1.00  0.00    -0.003 C 
BRANCH  13  14
HETATM   14  C10 UNL     1      20.586   0.090  53.061  1.00  0.00     0.011 C 
HETATM   15  C11 UNL     1      21.407  -0.596  53.837  1.00  0.00    -0.036 A 
HETATM   16  C12 UNL     1      22.458  -1.091  54.699  1.00  0.00     0.012 A 
HETATM   17  C13 UNL     1      21.478  -1.982  54.346  1.00  0.00     0.012 A 
ENDBRANCH  13  14
ENDBRANCH  11  12
ENDBRANCH  10  11
ENDBRANCH   1  10
BRANCH   1  18
HETATM   18  O1  UNL     1      26.094   1.984  51.262  1.00  0.00    -0.271 OA
BRANCH  18  19
HETATM   19  C14 UNL     1      26.693   1.881  52.501  1.00  0.00     0.240 C 
BRANCH  19  20
HETATM   20  C15 UNL     1      27.219   0.495  52.724  1.00  0.00    -0.032 A 
HETATM   21  C16 UNL     1      26.428  -0.596  52.381  1.00  0.00     0.012 A 
HETATM   22  C17 UNL     1      26.882  -1.902  52.574  1.00  0.00     0.037 A 
HETATM   23  C18 UNL     1      28.150  -2.049  53.119  1.00  0.00     0.065 A 
HETATM   24  C19 UNL     1      28.957  -0.981  53.468  1.00  0.00     0.037 A 
HETATM   25  C20 UNL     1      28.476   0.306  53.264  1.00  0.00     0.012 A 
BRANCH  23  26
HETATM   26  O2  UNL     1      28.654  -3.334  53.333  1.00  0.00    -0.361 OA
HETATM   27  H20 UNL     1      29.159  -3.571  54.199  1.00  0.00     0.217 HD
ENDBRANCH  23  26
ENDBRANCH  19  20
ENDBRANCH  18  19
ENDBRANCH   1  18
TORSDOF 11
ENDMDL
MODEL 7
REMARK VINA RESULT:      -7.1      1.671      7.055
REMARK  11 active torsions:
REMARK  status: ('A' for Active; 'I' for Inactive)
REMARK    1  A    between atoms: C4_4  and  N1_5 
REMARK    2  A    between atoms: N1_5  and  C5_6 
REMARK    3  A    between atoms: C5_6  and  N2_8 
REMARK    4  A    between atoms: N2_8  and  C6_9 
REMARK    5  A    between atoms: N2_8  and  O1_17 
REMARK    6  A    between atoms: C6_9  and  C7_10 
REMARK    7  A    between atoms: C7_10  and  C8_11 
REMARK    8  A    between atoms: C9_12  and  C10_13 
REMARK    9  A    between atoms: O1_17  and  C14_18 
REMARK   10  A    between atoms: C14_18  and  C15_19 
REMARK   11  A    between atoms: C18_22  and  O2_23 
ROOT
HETATM    1  N2  UNL     1      24.580   2.187  51.349  1.00  0.00    -0.232 N 
ENDROOT
BRANCH   1   2
HETATM    2  C5  UNL     1      23.141   2.115  51.324  1.00  0.00     0.198 C 
HETATM    3  S1  UNL     1      22.483   1.836  49.832  1.00  0.00    -0.039 SA
BRANCH   2   4
HETATM    4  N1  UNL     1      22.223   2.255  52.422  1.00  0.00    -0.335 N 
HETATM    5  H6  UNL     1      22.025   3.234  52.695  1.00  0.00     0.168 HD
BRANCH   4   6
HETATM    6  C4  UNL     1      21.642   1.123  53.060  1.00  0.00     0.016 A 
HETATM    7  C2  UNL     1      21.518   0.025  54.052  1.00  0.00     0.055 A 
HETATM    8  C1  UNL     1      22.584  -1.031  53.933  1.00  0.00     0.020 C 
HETATM    9  C3  UNL     1      20.600   0.309  52.988  1.00  0.00     0.009 A 
ENDBRANCH   4   6
ENDBRANCH   2   4
ENDBRANCH   1   2
BRANCH   1  10
HETATM   10  C6  UNL     1      25.328   3.387  50.997  1.00  0.00     0.162 C 
BRANCH  10  11
HETATM   11  C7  UNL     1      25.656   3.492  49.547  1.00  0.00     0.049 C 
BRANCH  11  12
HETATM   12  C8  UNL     1      26.471   4.703  49.201  1.00  0.00    -0.025 C 
HETATM   13  C9  UNL     1      27.664   4.749  48.607  1.00  0.00    -0.003 C 
BRANCH  13  14
HETATM   14  C10 UNL     1      28.361   6.021  48.324  1.00  0.00     0.011 C 
HETATM   15  C11 UNL     1      29.645   5.851  48.061  1.00  0.00    -0.036 A 
HETATM   16  C12 UNL     1      30.989   5.377  47.816  1.00  0.00     0.012 A 
HETATM   17  C13 UNL     1      30.786   6.730  47.733  1.00  0.00     0.012 A 
ENDBRANCH  13  14
ENDBRANCH  11  12
ENDBRANCH  10  11
ENDBRANCH   1  10
BRANCH   1  18
HETATM   18  O1  UNL     1      25.084   0.973  51.743  1.00  0.00    -0.271 OA
BRANCH  18  19
HETATM   19  C14 UNL     1      26.252   1.255  52.423  1.00  0.00     0.240 C 
BRANCH  19  20
HETATM   20  C15 UNL     1      27.021  -0.002  52.701  1.00  0.00    -0.032 A 
HETATM   21  C16 UNL     1      26.458  -1.230  52.376  1.00  0.00     0.012 A 
HETATM   22  C17 UNL     1      27.143  -2.422  52.620  1.00  0.00     0.037 A 
HETATM   23  C18 UNL     1      28.402  -2.314  53.195  1.00  0.00     0.065 A 
HETATM   24  C19 UNL     1      28.985  -1.104  53.527  1.00  0.00     0.037 A 
HETATM   25  C20 UNL     1      28.278   0.064  53.272  1.00  0.00     0.012 A 
BRANCH  23  26
HETATM   26  O2  UNL     1      29.132  -3.475  53.460  1.00  0.00    -0.361 OA
HETATM   27  H20 UNL     1      28.668  -4.394  53.516  1.00  0.00     0.217 HD
ENDBRANCH  23  26
ENDBRANCH  19  20
ENDBRANCH  18  19
ENDBRANCH   1  18
TORSDOF 11
ENDMDL
MODEL 8
REMARK VINA RESULT:      -7.1      2.926      5.291
REMARK  11 active torsions:
REMARK  status: ('A' for Active; 'I' for Inactive)
REMARK    1  A    between atoms: C4_4  and  N1_5 
REMARK    2  A    between atoms: N1_5  and  C5_6 
REMARK    3  A    between atoms: C5_6  and  N2_8 
REMARK    4  A    between atoms: N2_8  and  C6_9 
REMARK    5  A    between atoms: N2_8  and  O1_17 
REMARK    6  A    between atoms: C6_9  and  C7_10 
REMARK    7  A    between atoms: C7_10  and  C8_11 
REMARK    8  A    between atoms: C9_12  and  C10_13 
REMARK    9  A    between atoms: O1_17  and  C14_18 
REMARK   10  A    between atoms: C14_18  and  C15_19 
REMARK   11  A    between atoms: C18_22  and  O2_23 
ROOT
HETATM    1  N2  UNL     1      25.723   2.577  52.218  1.00  0.00    -0.232 N 
ENDROOT
BRANCH   1   2
HETATM    2  C5  UNL     1      24.415   3.027  52.619  1.00  0.00     0.198 C 
HETATM    3  S1  UNL     1      23.262   1.843  52.697  1.00  0.00    -0.039 SA
BRANCH   2   4
HETATM    4  N1  UNL     1      23.996   4.362  52.955  1.00  0.00    -0.335 N 
HETATM    5  H6  UNL     1      24.444   4.752  53.803  1.00  0.00     0.168 HD
BRANCH   4   6
HETATM    6  C4  UNL     1      23.047   5.070  52.164  1.00  0.00     0.016 A 
HETATM    7  C2  UNL     1      21.705   5.487  51.685  1.00  0.00     0.055 A 
HETATM    8  C1  UNL     1      20.931   4.391  51.001  1.00  0.00     0.020 C 
HETATM    9  C3  UNL     1      22.964   5.959  51.187  1.00  0.00     0.009 A 
ENDBRANCH   4   6
ENDBRANCH   2   4
ENDBRANCH   1   2
BRANCH   1  10
HETATM   10  C6  UNL     1      26.185   2.588  50.836  1.00  0.00     0.162 C 
BRANCH  10  11
HETATM   11  C7  UNL     1      25.951   3.879  50.129  1.00  0.00     0.049 C 
BRANCH  11  12
HETATM   12  C8  UNL     1      24.855   3.815  49.108  1.00  0.00    -0.025 C 
HETATM   13  C9  UNL     1      23.777   3.029  49.104  1.00  0.00    -0.003 C 
BRANCH  13  14
HETATM   14  C10 UNL     1      22.769   3.069  48.026  1.00  0.00     0.011 C 
HETATM   15  C11 UNL     1      22.450   4.302  47.671  1.00  0.00    -0.036 A 
HETATM   16  C12 UNL     1      22.298   5.730  47.494  1.00  0.00     0.012 A 
HETATM   17  C13 UNL     1      21.529   4.922  46.696  1.00  0.00     0.012 A 
ENDBRANCH  13  14
ENDBRANCH  11  12
ENDBRANCH  10  11
ENDBRANCH   1  10
BRANCH   1  18
HETATM   18  O1  UNL     1      26.413   2.156  53.327  1.00  0.00    -0.271 OA
BRANCH  18  19
HETATM   19  C14 UNL     1      27.688   1.863  52.886  1.00  0.00     0.240 C 
BRANCH  19  20
HETATM   20  C15 UNL     1      27.964   0.394  52.996  1.00  0.00    -0.032 A 
HETATM   21  C16 UNL     1      26.978  -0.513  52.625  1.00  0.00     0.012 A 
HETATM   22  C17 UNL     1      27.197  -1.889  52.712  1.00  0.00     0.037 A 
HETATM   23  C18 UNL     1      28.439  -2.296  53.183  1.00  0.00     0.065 A 
HETATM   24  C19 UNL     1      29.436  -1.415  53.558  1.00  0.00     0.037 A 
HETATM   25  C20 UNL     1      29.187  -0.052  53.459  1.00  0.00     0.012 A 
BRANCH  23  26
HETATM   26  O2  UNL     1      28.712  -3.662  53.290  1.00  0.00    -0.361 OA
HETATM   27  H20 UNL     1      28.042  -4.367  52.948  1.00  0.00     0.217 HD
ENDBRANCH  23  26
ENDBRANCH  19  20
ENDBRANCH  18  19
ENDBRANCH   1  18
TORSDOF 11
ENDMDL
MODEL 9
REMARK VINA RESULT:      -7.1      2.515      5.695
REMARK  11 active torsions:
REMARK  status: ('A' for Active; 'I' for Inactive)
REMARK    1  A    between atoms: C4_4  and  N1_5 
REMARK    2  A    between atoms: N1_5  and  C5_6 
REMARK    3  A    between atoms: C5_6  and  N2_8 
REMARK    4  A    between atoms: N2_8  and  C6_9 
REMARK    5  A    between atoms: N2_8  and  O1_17 
REMARK    6  A    between atoms: C6_9  and  C7_10 
REMARK    7  A    between atoms: C7_10  and  C8_11 
REMARK    8  A    between atoms: C9_12  and  C10_13 
REMARK    9  A    between atoms: O1_17  and  C14_18 
REMARK   10  A    between atoms: C14_18  and  C15_19 
REMARK   11  A    between atoms: C18_22  and  O2_23 
ROOT
HETATM    1  N2  UNL     1      24.426   3.864  51.593  1.00  0.00    -0.232 N 
ENDROOT
BRANCH   1   2
HETATM    2  C5  UNL     1      23.683   5.082  51.791  1.00  0.00     0.198 C 
HETATM    3  S1  UNL     1      22.040   4.898  51.843  1.00  0.00    -0.039 SA
BRANCH   2   4
HETATM    4  N1  UNL     1      24.190   6.419  51.946  1.00  0.00    -0.335 N 
HETATM    5  H6  UNL     1      24.716   6.580  52.824  1.00  0.00     0.168 HD
BRANCH   4   6
HETATM    6  C4  UNL     1      23.978   7.420  50.956  1.00  0.00     0.016 A 
HETATM    7  C2  UNL     1      23.232   8.199  49.936  1.00  0.00     0.055 A 
HETATM    8  C1  UNL     1      22.864   7.407  48.709  1.00  0.00     0.020 C 
HETATM    9  C3  UNL     1      24.594   8.411  50.330  1.00  0.00     0.009 A 
ENDBRANCH   4   6
ENDBRANCH   2   4
ENDBRANCH   1   2
BRANCH   1  10
HETATM   10  C6  UNL     1      24.710   3.304  50.278  1.00  0.00     0.162 C 
BRANCH  10  11
HETATM   11  C7  UNL     1      26.162   3.094  50.010  1.00  0.00     0.049 C 
BRANCH  11  12
HETATM   12  C8  UNL     1      26.815   4.246  49.307  1.00  0.00    -0.025 C 
HETATM   13  C9  UNL     1      26.279   5.423  48.981  1.00  0.00    -0.003 C 
BRANCH  13  14
HETATM   14  C10 UNL     1      27.043   6.477  48.283  1.00  0.00     0.011 C 
HETATM   15  C11 UNL     1      28.320   6.169  48.135  1.00  0.00    -0.036 A 
HETATM   16  C12 UNL     1      29.641   5.580  48.115  1.00  0.00     0.012 A 
HETATM   17  C13 UNL     1      29.508   6.821  47.547  1.00  0.00     0.012 A 
ENDBRANCH  13  14
ENDBRANCH  11  12
ENDBRANCH  10  11
ENDBRANCH   1  10
BRANCH   1  18
HETATM   18  O1  UNL     1      24.792   3.356  52.814  1.00  0.00    -0.271 OA
BRANCH  18  19
HETATM   19  C14 UNL     1      24.381   2.039  52.811  1.00  0.00     0.240 C 
BRANCH  19  20
HETATM   20  C15 UNL     1      25.535   1.121  53.080  1.00  0.00    -0.032 A 
HETATM   21  C16 UNL     1      26.255   1.262  54.260  1.00  0.00     0.012 A 
HETATM   22  C17 UNL     1      27.337   0.426  54.547  1.00  0.00     0.037 A 
HETATM   23  C18 UNL     1      27.648  -0.541  53.600  1.00  0.00     0.065 A 
HETATM   24  C19 UNL     1      26.948  -0.701  52.419  1.00  0.00     0.037 A 
HETATM   25  C20 UNL     1      25.877   0.146  52.163  1.00  0.00     0.012 A 
BRANCH  23  26
HETATM   26  O2  UNL     1      28.721  -1.403  53.836  1.00  0.00    -0.361 OA
HETATM   27  H20 UNL     1      28.596  -2.273  54.375  1.00  0.00     0.217 HD
ENDBRANCH  23  26
ENDBRANCH  19  20
ENDBRANCH  18  19
ENDBRANCH   1  18
TORSDOF 11
ENDMDL
