MODEL 1
REMARK VINA RESULT:      -6.5      0.000      0.000
REMARK  10 active torsions:
REMARK  status: ('A' for Active; 'I' for Inactive)
REMARK    1  A    between atoms: O1_1  and  C1_2 
REMARK    2  A    between atoms: C1_2  and  N1_3 
REMARK    3  A    between atoms: C2_4  and  N2_5 
REMARK    4  A    between atoms: C3_6  and  N3_7 
REMARK    5  A    between atoms: N3_7  and  C4_8 
REMARK    6  A    between atoms: C4_8  and  C5_9 
REMARK    7  A    between atoms: C4_8  and  C7_12 
REMARK    8  A    between atoms: C7_12  and  O2_13 
REMARK    9  A    between atoms: O2_13  and  C8_14 
REMARK   10  A    between atoms: C8_14  and  C9_15 
ROOT
HETATM    1  C5  UNL     1      22.413   1.056  53.054  1.00  0.00     0.012 C 
HETATM    2  C6  UNL     1      21.844   0.018  53.707  1.00  0.00     0.216 C 
HETATM    3 CL1  UNL     1      21.265  -1.366  54.616  1.00  0.00    -0.230 Cl
ENDROOT
BRANCH   1   4
HETATM    4  C4  UNL     1      23.855   0.984  53.419  1.00  0.00     0.130 C 
BRANCH   4   5
HETATM    5  N3  UNL     1      24.463  -0.292  53.056  1.00  0.00    -0.375 N 
HETATM    6  H6  UNL     1      24.532  -1.078  52.378  1.00  0.00     0.161 HD
BRANCH   5   7
HETATM    7  C3  UNL     1      25.339  -0.508  54.146  1.00  0.00     0.204 C 
HETATM    8  N2  UNL     1      26.410  -0.328  54.783  1.00  0.00    -0.238 NA
BRANCH   8   9
HETATM    9  C2  UNL     1      27.468   0.508  54.382  1.00  0.00     0.230 C 
HETATM   10  N1  UNL     1      27.614   1.777  54.241  1.00  0.00    -0.257 NA
BRANCH  10  11
HETATM   11  C1  UNL     1      28.889   2.287  53.795  1.00  0.00     0.314 C 
BRANCH  11  12
HETATM   12  O1  UNL     1      29.782   2.439  54.830  1.00  0.00    -0.380 OA
HETATM   13  H1  UNL     1      29.533   1.984  55.671  1.00  0.00     0.211 HD
ENDBRANCH  11  12
ENDBRANCH  10  11
ENDBRANCH   8   9
ENDBRANCH   5   7
ENDBRANCH   4   5
BRANCH   4  14
HETATM   14  C7  UNL     1      24.546   2.096  52.630  1.00  0.00     0.197 C 
BRANCH  14  15
HETATM   15  O2  UNL     1      23.770   2.688  51.682  1.00  0.00    -0.384 OA
BRANCH  15  16
HETATM   16  C8  UNL     1      24.140   2.576  50.377  1.00  0.00     0.206 C 
BRANCH  16  17
HETATM   17  C9  UNL     1      25.004   3.629  49.845  1.00  0.00    -0.032 A 
HETATM   18  C10 UNL     1      24.465   4.911  49.780  1.00  0.00     0.009 A 
HETATM   19  C11 UNL     1      25.121   6.018  49.312  1.00  0.00     0.004 A 
HETATM   20  C12 UNL     1      26.410   5.905  48.861  1.00  0.00     0.042 A 
HETATM   21  C13 UNL     1      26.978   4.650  48.909  1.00  0.00     0.117 A 
HETATM   22  F1  UNL     1      28.253   4.505  48.471  1.00  0.00    -0.206 F 
HETATM   23  C14 UNL     1      26.297   3.551  49.385  1.00  0.00     0.051 A 
ENDBRANCH  16  17
ENDBRANCH  15  16
ENDBRANCH  14  15
ENDBRANCH   4  14
ENDBRANCH   1   4
TORSDOF 10
ENDMDL
MODEL 2
REMARK VINA RESULT:      -6.5      3.352      5.761
REMARK  10 active torsions:
REMARK  status: ('A' for Active; 'I' for Inactive)
REMARK    1  A    between atoms: O1_1  and  C1_2 
REMARK    2  A    between atoms: C1_2  and  N1_3 
REMARK    3  A    between atoms: C2_4  and  N2_5 
REMARK    4  A    between atoms: C3_6  and  N3_7 
REMARK    5  A    between atoms: N3_7  and  C4_8 
REMARK    6  A    between atoms: C4_8  and  C5_9 
REMARK    7  A    between atoms: C4_8  and  C7_12 
REMARK    8  A    between atoms: C7_12  and  O2_13 
REMARK    9  A    between atoms: O2_13  and  C8_14 
REMARK   10  A    between atoms: C8_14  and  C9_15 
ROOT
HETATM    1  C5  UNL     1      23.071   2.677  50.689  1.00  0.00     0.012 C 
HETATM    2  C6  UNL     1      22.223   1.628  50.776  1.00  0.00     0.216 C 
HETATM    3 CL1  UNL     1      21.247   0.185  50.977  1.00  0.00    -0.230 Cl
ENDROOT
BRANCH   1   4
HETATM    4  C4  UNL     1      24.298   2.227  51.405  1.00  0.00     0.130 C 
BRANCH   4   5
HETATM    5  N3  UNL     1      25.304   3.278  51.508  1.00  0.00    -0.375 N 
HETATM    6  H6  UNL     1      25.642   4.136  51.990  1.00  0.00     0.161 HD
BRANCH   5   7
HETATM    7  C3  UNL     1      26.191   2.923  50.464  1.00  0.00     0.204 C 
HETATM    8  N2  UNL     1      26.956   3.184  49.499  1.00  0.00    -0.238 NA
BRANCH   8   9
HETATM    9  C2  UNL     1      27.240   4.471  49.006  1.00  0.00     0.230 C 
HETATM   10  N1  UNL     1      28.296   5.056  48.565  1.00  0.00    -0.257 NA
BRANCH  10  11
HETATM   11  C1  UNL     1      28.200   6.431  48.132  1.00  0.00     0.314 C 
BRANCH  11  12
HETATM   12  O1  UNL     1      28.189   7.312  49.188  1.00  0.00    -0.380 OA
HETATM   13  H1  UNL     1      28.667   7.005  49.997  1.00  0.00     0.211 HD
ENDBRANCH  11  12
ENDBRANCH  10  11
ENDBRANCH   8   9
ENDBRANCH   5   7
ENDBRANCH   4   5
BRANCH   4  14
HETATM   14  C7  UNL     1      23.846   1.844  52.814  1.00  0.00     0.197 C 
BRANCH  14  15
HETATM   15  O2  UNL     1      24.750   1.114  53.523  1.00  0.00    -0.384 OA
BRANCH  15  16
HETATM   16  C8  UNL     1      25.525   0.215  52.856  1.00  0.00     0.206 C 
BRANCH  16  17
HETATM   17  C9  UNL     1      26.942   0.173  53.214  1.00  0.00    -0.032 A 
HETATM   18  C10 UNL     1      27.612  -1.026  52.989  1.00  0.00     0.009 A 
HETATM   19  C11 UNL     1      28.935  -1.253  53.262  1.00  0.00     0.004 A 
HETATM   20  C12 UNL     1      29.700  -0.252  53.802  1.00  0.00     0.042 A 
HETATM   21  C13 UNL     1      29.070   0.951  54.040  1.00  0.00     0.117 A 
HETATM   22  F1  UNL     1      29.800   1.962  54.572  1.00  0.00    -0.206 F 
HETATM   23  C14 UNL     1      27.737   1.155  53.755  1.00  0.00     0.051 A 
ENDBRANCH  16  17
ENDBRANCH  15  16
ENDBRANCH  14  15
ENDBRANCH   4  14
ENDBRANCH   1   4
TORSDOF 10
ENDMDL
MODEL 3
REMARK VINA RESULT:      -6.4      1.881      2.200
REMARK  10 active torsions:
REMARK  status: ('A' for Active; 'I' for Inactive)
REMARK    1  A    between atoms: O1_1  and  C1_2 
REMARK    2  A    between atoms: C1_2  and  N1_3 
REMARK    3  A    between atoms: C2_4  and  N2_5 
REMARK    4  A    between atoms: C3_6  and  N3_7 
REMARK    5  A    between atoms: N3_7  and  C4_8 
REMARK    6  A    between atoms: C4_8  and  C5_9 
REMARK    7  A    between atoms: C4_8  and  C7_12 
REMARK    8  A    between atoms: C7_12  and  O2_13 
REMARK    9  A    between atoms: O2_13  and  C8_14 
REMARK   10  A    between atoms: C8_14  and  C9_15 
ROOT
HETATM    1  C5  UNL     1      23.795   1.060  52.310  1.00  0.00     0.012 C 
HETATM    2  C6  UNL     1      22.848   0.622  53.170  1.00  0.00     0.216 C 
HETATM    3 CL1  UNL     1      21.669   0.183  54.392  1.00  0.00    -0.230 Cl
ENDROOT
BRANCH   1   4
HETATM    4  C4  UNL     1      24.402   2.238  52.990  1.00  0.00     0.130 C 
BRANCH   4   5
HETATM    5  N3  UNL     1      25.849   2.303  52.813  1.00  0.00    -0.375 N 
HETATM    6  H6  UNL     1      26.656   2.547  52.203  1.00  0.00     0.161 HD
BRANCH   5   7
HETATM    7  C3  UNL     1      26.308   1.799  54.052  1.00  0.00     0.204 C 
HETATM    8  N2  UNL     1      27.007   1.034  54.768  1.00  0.00    -0.238 NA
BRANCH   8   9
HETATM    9  C2  UNL     1      27.903   0.061  54.290  1.00  0.00     0.230 C 
HETATM   10  N1  UNL     1      27.774  -1.069  53.690  1.00  0.00    -0.257 NA
BRANCH  10  11
HETATM   11  C1  UNL     1      28.962  -1.813  53.343  1.00  0.00     0.314 C 
BRANCH  11  12
HETATM   12  O1  UNL     1      28.709  -3.154  53.177  1.00  0.00    -0.380 OA
HETATM   13  H1  UNL     1      28.619  -3.672  54.014  1.00  0.00     0.211 HD
ENDBRANCH  11  12
ENDBRANCH  10  11
ENDBRANCH   8   9
ENDBRANCH   5   7
ENDBRANCH   4   5
BRANCH   4  14
HETATM   14  C7  UNL     1      23.775   3.470  52.339  1.00  0.00     0.197 C 
BRANCH  14  15
HETATM   15  O2  UNL     1      23.457   3.320  51.024  1.00  0.00    -0.384 OA
BRANCH  15  16
HETATM   16  C8  UNL     1      23.362   4.434  50.247  1.00  0.00     0.206 C 
BRANCH  16  17
HETATM   17  C9  UNL     1      24.609   4.953  49.685  1.00  0.00    -0.032 A 
HETATM   18  C10 UNL     1      24.660   6.320  49.427  1.00  0.00     0.009 A 
HETATM   19  C11 UNL     1      25.738   6.982  48.901  1.00  0.00     0.004 A 
HETATM   20  C12 UNL     1      26.878   6.288  48.589  1.00  0.00     0.042 A 
HETATM   21  C13 UNL     1      26.864   4.930  48.830  1.00  0.00     0.117 A 
HETATM   22  F1  UNL     1      27.976   4.215  48.534  1.00  0.00    -0.206 F 
HETATM   23  C14 UNL     1      25.767   4.287  49.361  1.00  0.00     0.051 A 
ENDBRANCH  16  17
ENDBRANCH  15  16
ENDBRANCH  14  15
ENDBRANCH   4  14
ENDBRANCH   1   4
TORSDOF 10
ENDMDL
MODEL 4
REMARK VINA RESULT:      -6.4      3.646      6.357
REMARK  10 active torsions:
REMARK  status: ('A' for Active; 'I' for Inactive)
REMARK    1  A    between atoms: O1_1  and  C1_2 
REMARK    2  A    between atoms: C1_2  and  N1_3 
REMARK    3  A    between atoms: C2_4  and  N2_5 
REMARK    4  A    between atoms: C3_6  and  N3_7 
REMARK    5  A    between atoms: N3_7  and  C4_8 
REMARK    6  A    between atoms: C4_8  and  C5_9 
REMARK    7  A    between atoms: C4_8  and  C7_12 
REMARK    8  A    between atoms: C7_12  and  O2_13 
REMARK    9  A    between atoms: O2_13  and  C8_14 
REMARK   10  A    between atoms: C8_14  and  C9_15 
ROOT
HETATM    1  C5  UNL     1      24.214   3.093  50.085  1.00  0.00     0.012 C 
HETATM    2  C6  UNL     1      25.367   3.589  49.580  1.00  0.00     0.216 C 
HETATM    3 CL1  UNL     1      26.915   4.250  49.089  1.00  0.00    -0.230 Cl
ENDROOT
BRANCH   1   4
HETATM    4  C4  UNL     1      24.405   3.133  51.562  1.00  0.00     0.130 C 
BRANCH   4   5
HETATM    5  N3  UNL     1      23.166   2.893  52.294  1.00  0.00    -0.375 N 
HETATM    6  H6  UNL     1      22.510   3.190  53.045  1.00  0.00     0.161 HD
BRANCH   5   7
HETATM    7  C3  UNL     1      22.686   1.723  51.660  1.00  0.00     0.204 C 
HETATM    8  N2  UNL     1      22.252   0.541  51.656  1.00  0.00    -0.238 NA
BRANCH   8   9
HETATM    9  C2  UNL     1      22.050  -0.259  52.795  1.00  0.00     0.230 C 
HETATM   10  N1  UNL     1      22.620  -0.355  53.944  1.00  0.00    -0.257 NA
BRANCH  10  11
HETATM   11  C1  UNL     1      22.119  -1.324  54.890  1.00  0.00     0.314 C 
BRANCH  11  12
HETATM   12  O1  UNL     1      23.065  -1.683  55.821  1.00  0.00    -0.380 OA
HETATM   13  H1  UNL     1      22.710  -2.113  56.638  1.00  0.00     0.211 HD
ENDBRANCH  11  12
ENDBRANCH  10  11
ENDBRANCH   8   9
ENDBRANCH   5   7
ENDBRANCH   4   5
BRANCH   4  14
HETATM   14  C7  UNL     1      25.391   2.013  51.890  1.00  0.00     0.197 C 
BRANCH  14  15
HETATM   15  O2  UNL     1      25.774   1.955  53.195  1.00  0.00    -0.384 OA
BRANCH  15  16
HETATM   16  C8  UNL     1      27.105   1.950  53.482  1.00  0.00     0.206 C 
BRANCH  16  17
HETATM   17  C9  UNL     1      27.793   0.664  53.390  1.00  0.00    -0.032 A 
HETATM   18  C10 UNL     1      29.154   0.657  53.683  1.00  0.00     0.009 A 
HETATM   19  C11 UNL     1      29.962  -0.449  53.649  1.00  0.00     0.004 A 
HETATM   20  C12 UNL     1      29.435  -1.666  53.305  1.00  0.00     0.042 A 
HETATM   21  C13 UNL     1      28.089  -1.699  53.007  1.00  0.00     0.117 A 
HETATM   22  F1  UNL     1      27.537  -2.889  52.665  1.00  0.00    -0.206 F 
HETATM   23  C14 UNL     1      27.297  -0.572  53.049  1.00  0.00     0.051 A 
ENDBRANCH  16  17
ENDBRANCH  15  16
ENDBRANCH  14  15
ENDBRANCH   4  14
ENDBRANCH   1   4
TORSDOF 10
ENDMDL
MODEL 5
REMARK VINA RESULT:      -6.3      4.160      6.579
REMARK  10 active torsions:
REMARK  status: ('A' for Active; 'I' for Inactive)
REMARK    1  A    between atoms: O1_1  and  C1_2 
REMARK    2  A    between atoms: C1_2  and  N1_3 
REMARK    3  A    between atoms: C2_4  and  N2_5 
REMARK    4  A    between atoms: C3_6  and  N3_7 
REMARK    5  A    between atoms: N3_7  and  C4_8 
REMARK    6  A    between atoms: C4_8  and  C5_9 
REMARK    7  A    between atoms: C4_8  and  C7_12 
REMARK    8  A    between atoms: C7_12  and  O2_13 
REMARK    9  A    between atoms: O2_13  and  C8_14 
REMARK   10  A    between atoms: C8_14  and  C9_15 
ROOT
HETATM    1  C5  UNL     1      24.399   3.161  49.864  1.00  0.00     0.012 C 
HETATM    2  C6  UNL     1      24.008   4.055  50.800  1.00  0.00     0.216 C 
HETATM    3 CL1  UNL     1      23.667   5.271  52.017  1.00  0.00    -0.230 Cl
ENDROOT
BRANCH   1   4
HETATM    4  C4  UNL     1      25.853   3.424  49.678  1.00  0.00     0.130 C 
BRANCH   4   5
HETATM    5  N3  UNL     1      26.240   4.765  50.102  1.00  0.00    -0.375 N 
HETATM    6  H6  UNL     1      26.281   5.476  50.860  1.00  0.00     0.161 HD
BRANCH   5   7
HETATM    7  C3  UNL     1      26.800   5.286  48.912  1.00  0.00     0.204 C 
HETATM    8  N2  UNL     1      27.746   5.748  48.220  1.00  0.00    -0.238 NA
BRANCH   8   9
HETATM    9  C2  UNL     1      29.065   5.945  48.668  1.00  0.00     0.230 C 
HETATM   10  N1  UNL     1      30.177   5.321  48.506  1.00  0.00    -0.257 NA
BRANCH  10  11
HETATM   11  C1  UNL     1      31.365   5.840  49.142  1.00  0.00     0.314 C 
BRANCH  11  12
HETATM   12  O1  UNL     1      31.450   5.477  50.466  1.00  0.00    -0.380 OA
HETATM   13  H1  UNL     1      31.053   6.119  51.104  1.00  0.00     0.211 HD
ENDBRANCH  11  12
ENDBRANCH  10  11
ENDBRANCH   8   9
ENDBRANCH   5   7
ENDBRANCH   4   5
BRANCH   4  14
HETATM   14  C7  UNL     1      26.581   2.407  50.557  1.00  0.00     0.197 C 
BRANCH  14  15
HETATM   15  O2  UNL     1      26.704   2.768  51.864  1.00  0.00    -0.384 OA
BRANCH  15  16
HETATM   16  C8  UNL     1      26.393   1.853  52.823  1.00  0.00     0.206 C 
BRANCH  16  17
HETATM   17  C9  UNL     1      27.332   0.748  53.008  1.00  0.00    -0.032 A 
HETATM   18  C10 UNL     1      28.604   1.075  53.472  1.00  0.00     0.009 A 
HETATM   19  C11 UNL     1      29.613   0.179  53.703  1.00  0.00     0.004 A 
HETATM   20  C12 UNL     1      29.403  -1.156  53.473  1.00  0.00     0.042 A 
HETATM   21  C13 UNL     1      28.155  -1.519  53.012  1.00  0.00     0.117 A 
HETATM   22  F1  UNL     1      27.915  -2.832  52.777  1.00  0.00    -0.206 F 
HETATM   23  C14 UNL     1      27.155  -0.597  52.788  1.00  0.00     0.051 A 
ENDBRANCH  16  17
ENDBRANCH  15  16
ENDBRANCH  14  15
ENDBRANCH   4  14
ENDBRANCH   1   4
TORSDOF 10
ENDMDL
MODEL 6
REMARK VINA RESULT:      -6.2      4.153      6.643
REMARK  10 active torsions:
REMARK  status: ('A' for Active; 'I' for Inactive)
REMARK    1  A    between atoms: O1_1  and  C1_2 
REMARK    2  A    between atoms: C1_2  and  N1_3 
REMARK    3  A    between atoms: C2_4  and  N2_5 
REMARK    4  A    between atoms: C3_6  and  N3_7 
REMARK    5  A    between atoms: N3_7  and  C4_8 
REMARK    6  A    between atoms: C4_8  and  C5_9 
REMARK    7  A    between atoms: C4_8  and  C7_12 
REMARK    8  A    between atoms: C7_12  and  O2_13 
REMARK    9  A    between atoms: O2_13  and  C8_14 
REMARK   10  A    between atoms: C8_14  and  C9_15 
ROOT
HETATM    1  C5  UNL     1      23.892   3.694  51.722  1.00  0.00     0.012 C 
HETATM    2  C6  UNL     1      22.967   2.738  51.480  1.00  0.00     0.216 C 
HETATM    3 CL1  UNL     1      21.872   1.440  51.041  1.00  0.00    -0.230 Cl
ENDROOT
BRANCH   1   4
HETATM    4  C4  UNL     1      24.977   3.422  50.738  1.00  0.00     0.130 C 
BRANCH   4   5
HETATM    5  N3  UNL     1      25.930   4.522  50.635  1.00  0.00    -0.375 N 
HETATM    6  H6  UNL     1      26.912   4.853  50.724  1.00  0.00     0.161 HD
BRANCH   5   7
HETATM    7  C3  UNL     1      25.089   5.588  50.235  1.00  0.00     0.204 C 
HETATM    8  N2  UNL     1      24.847   6.796  49.978  1.00  0.00    -0.238 NA
BRANCH   8   9
HETATM    9  C2  UNL     1      25.773   7.852  50.070  1.00  0.00     0.230 C 
HETATM   10  N1  UNL     1      26.957   8.057  49.615  1.00  0.00    -0.257 NA
BRANCH  10  11
HETATM   11  C1  UNL     1      27.616   9.304  49.927  1.00  0.00     0.314 C 
BRANCH  11  12
HETATM   12  O1  UNL     1      27.689   9.531  51.282  1.00  0.00    -0.380 OA
HETATM   13  H1  UNL     1      28.310  10.251  51.555  1.00  0.00     0.211 HD
ENDBRANCH  11  12
ENDBRANCH  10  11
ENDBRANCH   8   9
ENDBRANCH   5   7
ENDBRANCH   4   5
BRANCH   4  14
HETATM   14  C7  UNL     1      25.713   2.186  51.253  1.00  0.00     0.197 C 
BRANCH  14  15
HETATM   15  O2  UNL     1      26.132   2.270  52.545  1.00  0.00    -0.384 OA
BRANCH  15  16
HETATM   16  C8  UNL     1      27.461   2.123  52.808  1.00  0.00     0.206 C 
BRANCH  16  17
HETATM   17  C9  UNL     1      27.952   0.755  52.966  1.00  0.00    -0.032 A 
HETATM   18  C10 UNL     1      29.243   0.605  53.466  1.00  0.00     0.009 A 
HETATM   19  C11 UNL     1      29.871  -0.593  53.680  1.00  0.00     0.004 A 
HETATM   20  C12 UNL     1      29.219  -1.764  53.394  1.00  0.00     0.042 A 
HETATM   21  C13 UNL     1      27.938  -1.656  52.895  1.00  0.00     0.117 A 
HETATM   22  F1  UNL     1      27.265  -2.796  52.603  1.00  0.00    -0.206 F 
HETATM   23  C14 UNL     1      27.327  -0.438  52.690  1.00  0.00     0.051 A 
ENDBRANCH  16  17
ENDBRANCH  15  16
ENDBRANCH  14  15
ENDBRANCH   4  14
ENDBRANCH   1   4
TORSDOF 10
ENDMDL
MODEL 7
REMARK VINA RESULT:      -6.2      3.377      5.761
REMARK  10 active torsions:
REMARK  status: ('A' for Active; 'I' for Inactive)
REMARK    1  A    between atoms: O1_1  and  C1_2 
REMARK    2  A    between atoms: C1_2  and  N1_3 
REMARK    3  A    between atoms: C2_4  and  N2_5 
REMARK    4  A    between atoms: C3_6  and  N3_7 
REMARK    5  A    between atoms: N3_7  and  C4_8 
REMARK    6  A    between atoms: C4_8  and  C5_9 
REMARK    7  A    between atoms: C4_8  and  C7_12 
REMARK    8  A    between atoms: C7_12  and  O2_13 
REMARK    9  A    between atoms: O2_13  and  C8_14 
REMARK   10  A    between atoms: C8_14  and  C9_15 
ROOT
HETATM    1  C5  UNL     1      23.990   3.467  49.576  1.00  0.00     0.012 C 
HETATM    2  C6  UNL     1      25.277   3.787  49.314  1.00  0.00     0.216 C 
HETATM    3 CL1  UNL     1      26.987   4.135  49.132  1.00  0.00    -0.230 Cl
ENDROOT
BRANCH   1   4
HETATM    4  C4  UNL     1      24.026   2.838  50.926  1.00  0.00     0.130 C 
BRANCH   4   5
HETATM    5  N3  UNL     1      24.769   3.635  51.896  1.00  0.00    -0.375 N 
HETATM    6  H6  UNL     1      25.235   4.535  52.129  1.00  0.00     0.161 HD
BRANCH   5   7
HETATM    7  C3  UNL     1      24.874   2.734  52.981  1.00  0.00     0.204 C 
HETATM    8  N2  UNL     1      25.516   2.003  53.781  1.00  0.00    -0.238 NA
BRANCH   8   9
HETATM    9  C2  UNL     1      26.912   1.833  53.790  1.00  0.00     0.230 C 
HETATM   10  N1  UNL     1      27.753   1.303  54.605  1.00  0.00    -0.257 NA
BRANCH  10  11
HETATM   11  C1  UNL     1      29.156   1.316  54.264  1.00  0.00     0.314 C 
BRANCH  11  12
HETATM   12  O1  UNL     1      29.807   2.416  54.771  1.00  0.00    -0.380 OA
HETATM   13  H1  UNL     1      30.695   2.599  54.377  1.00  0.00     0.211 HD
ENDBRANCH  11  12
ENDBRANCH  10  11
ENDBRANCH   8   9
ENDBRANCH   5   7
ENDBRANCH   4   5
BRANCH   4  14
HETATM   14  C7  UNL     1      22.571   2.742  51.385  1.00  0.00     0.197 C 
BRANCH  14  15
HETATM   15  O2  UNL     1      21.755   2.044  50.548  1.00  0.00    -0.384 OA
BRANCH  15  16
HETATM   16  C8  UNL     1      21.646   0.698  50.721  1.00  0.00     0.206 C 
BRANCH  16  17
HETATM   17  C9  UNL     1      21.707   0.204  52.096  1.00  0.00    -0.032 A 
HETATM   18  C10 UNL     1      20.503   0.129  52.790  1.00  0.00     0.009 A 
HETATM   19  C11 UNL     1      20.364  -0.305  54.082  1.00  0.00     0.004 A 
HETATM   20  C12 UNL     1      21.468  -0.708  54.787  1.00  0.00     0.042 A 
HETATM   21  C13 UNL     1      22.680  -0.648  54.132  1.00  0.00     0.117 A 
HETATM   22  F1  UNL     1      23.790  -1.041  54.802  1.00  0.00    -0.206 F 
HETATM   23  C14 UNL     1      22.793  -0.207  52.831  1.00  0.00     0.051 A 
ENDBRANCH  16  17
ENDBRANCH  15  16
ENDBRANCH  14  15
ENDBRANCH   4  14
ENDBRANCH   1   4
TORSDOF 10
ENDMDL
MODEL 8
REMARK VINA RESULT:      -6.1      3.281      5.756
REMARK  10 active torsions:
REMARK  status: ('A' for Active; 'I' for Inactive)
REMARK    1  A    between atoms: O1_1  and  C1_2 
REMARK    2  A    between atoms: C1_2  and  N1_3 
REMARK    3  A    between atoms: C2_4  and  N2_5 
REMARK    4  A    between atoms: C3_6  and  N3_7 
REMARK    5  A    between atoms: N3_7  and  C4_8 
REMARK    6  A    between atoms: C4_8  and  C5_9 
REMARK    7  A    between atoms: C4_8  and  C7_12 
REMARK    8  A    between atoms: C7_12  and  O2_13 
REMARK    9  A    between atoms: O2_13  and  C8_14 
REMARK   10  A    between atoms: C8_14  and  C9_15 
ROOT
HETATM    1  C5  UNL     1      24.521   4.752  49.238  1.00  0.00     0.012 C 
HETATM    2  C6  UNL     1      24.300   5.875  49.959  1.00  0.00     0.216 C 
HETATM    3 CL1  UNL     1      23.979   7.228  51.028  1.00  0.00    -0.230 Cl
ENDROOT
BRANCH   1   4
HETATM    4  C4  UNL     1      24.288   3.639  50.199  1.00  0.00     0.130 C 
BRANCH   4   5
HETATM    5  N3  UNL     1      25.081   3.772  51.416  1.00  0.00    -0.375 N 
HETATM    6  H6  UNL     1      25.188   4.196  52.360  1.00  0.00     0.161 HD
BRANCH   5   7
HETATM    7  C3  UNL     1      26.182   2.931  51.129  1.00  0.00     0.204 C 
HETATM    8  N2  UNL     1      27.070   2.093  51.437  1.00  0.00    -0.238 NA
BRANCH   8   9
HETATM    9  C2  UNL     1      27.268   1.548  52.719  1.00  0.00     0.230 C 
HETATM   10  N1  UNL     1      27.923   0.543  53.182  1.00  0.00    -0.257 NA
BRANCH  10  11
HETATM   11  C1  UNL     1      27.892   0.287  54.603  1.00  0.00     0.314 C 
BRANCH  11  12
HETATM   12  O1  UNL     1      26.795   0.851  55.211  1.00  0.00    -0.380 OA
HETATM   13  H1  UNL     1      26.689   0.636  56.170  1.00  0.00     0.211 HD
ENDBRANCH  11  12
ENDBRANCH  10  11
ENDBRANCH   8   9
ENDBRANCH   5   7
ENDBRANCH   4   5
BRANCH   4  14
HETATM   14  C7  UNL     1      22.807   3.708  50.572  1.00  0.00     0.197 C 
BRANCH  14  15
HETATM   15  O2  UNL     1      22.533   3.410  51.872  1.00  0.00    -0.384 OA
BRANCH  15  16
HETATM   16  C8  UNL     1      21.649   2.409  52.136  1.00  0.00     0.206 C 
BRANCH  16  17
HETATM   17  C9  UNL     1      22.163   1.255  52.872  1.00  0.00    -0.032 A 
HETATM   18  C10 UNL     1      21.290   0.640  53.766  1.00  0.00     0.009 A 
HETATM   19  C11 UNL     1      21.594  -0.447  54.541  1.00  0.00     0.004 A 
HETATM   20  C12 UNL     1      22.841  -1.010  54.467  1.00  0.00     0.042 A 
HETATM   21  C13 UNL     1      23.734  -0.427  53.592  1.00  0.00     0.117 A 
HETATM   22  F1  UNL     1      24.976  -0.961  53.494  1.00  0.00    -0.206 F 
HETATM   23  C14 UNL     1      23.404   0.667  52.822  1.00  0.00     0.051 A 
ENDBRANCH  16  17
ENDBRANCH  15  16
ENDBRANCH  14  15
ENDBRANCH   4  14
ENDBRANCH   1   4
TORSDOF 10
ENDMDL
MODEL 9
REMARK VINA RESULT:      -6.1      4.093      5.810
REMARK  10 active torsions:
REMARK  status: ('A' for Active; 'I' for Inactive)
REMARK    1  A    between atoms: O1_1  and  C1_2 
REMARK    2  A    between atoms: C1_2  and  N1_3 
REMARK    3  A    between atoms: C2_4  and  N2_5 
REMARK    4  A    between atoms: C3_6  and  N3_7 
REMARK    5  A    between atoms: N3_7  and  C4_8 
REMARK    6  A    between atoms: C4_8  and  C5_9 
REMARK    7  A    between atoms: C4_8  and  C7_12 
REMARK    8  A    between atoms: C7_12  and  O2_13 
REMARK    9  A    between atoms: O2_13  and  C8_14 
REMARK   10  A    between atoms: C8_14  and  C9_15 
ROOT
HETATM    1  C5  UNL     1      21.264  -0.329  54.000  1.00  0.00     0.012 C 
HETATM    2  C6  UNL     1      22.183  -0.876  54.828  1.00  0.00     0.216 C 
HETATM    3 CL1  UNL     1      23.491  -1.561  55.774  1.00  0.00    -0.230 Cl
ENDROOT
BRANCH   1   4
HETATM    4  C4  UNL     1      22.024   0.001  52.762  1.00  0.00     0.130 C 
BRANCH   4   5
HETATM    5  N3  UNL     1      21.173   0.546  51.710  1.00  0.00    -0.375 N 
HETATM    6  H6  UNL     1      20.875   0.525  50.714  1.00  0.00     0.161 HD
BRANCH   5   7
HETATM    7  C3  UNL     1      20.458   1.544  52.414  1.00  0.00     0.204 C 
HETATM    8  N2  UNL     1      20.091   2.730  52.625  1.00  0.00    -0.238 NA
BRANCH   8   9
HETATM    9  C2  UNL     1      20.481   3.851  51.871  1.00  0.00     0.230 C 
HETATM   10  N1  UNL     1      21.413   4.730  51.975  1.00  0.00    -0.257 NA
BRANCH  10  11
HETATM   11  C1  UNL     1      21.504   5.769  50.975  1.00  0.00     0.314 C 
BRANCH  11  12
HETATM   12  O1  UNL     1      22.178   6.877  51.434  1.00  0.00    -0.380 OA
HETATM   13  H1  UNL     1      23.050   7.049  51.000  1.00  0.00     0.211 HD
ENDBRANCH  11  12
ENDBRANCH  10  11
ENDBRANCH   8   9
ENDBRANCH   5   7
ENDBRANCH   4   5
BRANCH   4  14
HETATM   14  C7  UNL     1      23.044   1.065  53.166  1.00  0.00     0.197 C 
BRANCH  14  15
HETATM   15  O2  UNL     1      24.243   0.974  52.528  1.00  0.00    -0.384 OA
BRANCH  15  16
HETATM   16  C8  UNL     1      25.057  -0.078  52.821  1.00  0.00     0.206 C 
BRANCH  16  17
HETATM   17  C9  UNL     1      26.456   0.232  53.108  1.00  0.00    -0.032 A 
HETATM   18  C10 UNL     1      26.791   1.578  53.221  1.00  0.00     0.009 A 
HETATM   19  C11 UNL     1      28.046   2.059  53.484  1.00  0.00     0.004 A 
HETATM   20  C12 UNL     1      29.087   1.184  53.659  1.00  0.00     0.042 A 
HETATM   21  C13 UNL     1      28.794  -0.159  53.554  1.00  0.00     0.117 A 
HETATM   22  F1  UNL     1      29.801  -1.050  53.723  1.00  0.00    -0.206 F 
HETATM   23  C14 UNL     1      27.522  -0.617  53.289  1.00  0.00     0.051 A 
ENDBRANCH  16  17
ENDBRANCH  15  16
ENDBRANCH  14  15
ENDBRANCH   4  14
ENDBRANCH   1   4
TORSDOF 10
ENDMDL
