MODEL 1
REMARK VINA RESULT:      -7.6      0.000      0.000
REMARK  3 active torsions:
REMARK  status: ('A' for Active; 'I' for Inactive)
REMARK    1  A    between atoms: N1_2  and  C2_3 
REMARK    2  A    between atoms: C2_3  and  N4_16 
REMARK    3  A    between atoms: C8_11  and  O1_12 
ROOT
HETATM    1  C2  UNL     1      24.602   2.800  51.012  1.00  0.00     0.152 C 
HETATM    2  C3  UNL     1      24.652   1.732  51.794  1.00  0.00     0.117 C 
HETATM    3  N2  UNL     1      23.605   0.822  52.192  1.00  0.00    -0.242 NA
HETATM    4  C4  UNL     1      23.902   0.262  53.325  1.00  0.00     0.204 C 
HETATM    5  N3  UNL     1      25.178   0.763  53.766  1.00  0.00    -0.363 N 
HETATM    6  C5  UNL     1      25.796   1.159  52.492  1.00  0.00     0.117 C 
HETATM    7  C6  UNL     1      26.286  -0.108  51.884  1.00  0.00     0.030 C 
HETATM    8  C7  UNL     1      27.087  -0.727  52.736  1.00  0.00     0.009 C 
HETATM    9  C8  UNL     1      27.990  -0.015  53.391  1.00  0.00     0.079 C 
HETATM   10  C10 UNL     1      28.044   1.430  53.150  1.00  0.00     0.036 C 
HETATM   11  C11 UNL     1      26.946   2.044  52.694  1.00  0.00     0.018 C 
HETATM   12  H4  UNL     1      25.324   0.717  54.812  1.00  0.00     0.162 HD
ENDROOT
BRANCH   1  13
HETATM   13  N1  UNL     1      25.723   3.617  50.699  1.00  0.00    -0.252 NA
HETATM   14  C1  UNL     1      26.551   3.255  49.759  1.00  0.00     0.151 C 
ENDBRANCH   1  13
BRANCH   1  15
HETATM   15  N4  UNL     1      23.380   3.212  50.410  1.00  0.00    -0.362 N 
HETATM   16  C12 UNL     1      22.348   3.412  51.412  1.00  0.00     0.146 C 
HETATM   17  C13 UNL     1      22.847   4.330  52.509  1.00  0.00     0.169 C 
HETATM   18  N5  UNL     1      23.610   5.385  51.869  1.00  0.00    -0.283 NA
HETATM   19  C14 UNL     1      23.438   6.033  50.815  1.00  0.00     0.116 C 
HETATM   20  C15 UNL     1      23.902   5.695  49.650  1.00  0.00     0.126 C 
HETATM   21  F1  UNL     1      24.959   6.556  49.727  1.00  0.00    -0.208 F 
HETATM   22  C16 UNL     1      23.581   4.778  48.526  1.00  0.00     0.092 C 
HETATM   23  C17 UNL     1      23.394   3.352  48.948  1.00  0.00     0.131 C 
ENDBRANCH   1  15
BRANCH   9  24
HETATM   24  O1  UNL     1      28.810  -0.702  54.255  1.00  0.00    -0.355 OA
HETATM   25  C9  UNL     1      30.040  -1.198  53.758  1.00  0.00     0.210 C 
ENDBRANCH   9  24
TORSDOF 3
ENDMDL
MODEL 2
REMARK VINA RESULT:      -7.4      2.580      4.047
REMARK  3 active torsions:
REMARK  status: ('A' for Active; 'I' for Inactive)
REMARK    1  A    between atoms: N1_2  and  C2_3 
REMARK    2  A    between atoms: C2_3  and  N4_16 
REMARK    3  A    between atoms: C8_11  and  O1_12 
ROOT
HETATM    1  C2  UNL     1      22.866   1.782  52.031  1.00  0.00     0.152 C 
HETATM    2  C3  UNL     1      24.169   2.023  52.045  1.00  0.00     0.117 C 
HETATM    3  N2  UNL     1      24.906   3.170  51.572  1.00  0.00    -0.242 NA
HETATM    4  C4  UNL     1      26.122   2.831  51.273  1.00  0.00     0.204 C 
HETATM    5  N3  UNL     1      26.284   1.423  51.528  1.00  0.00    -0.363 N 
HETATM    6  C5  UNL     1      25.251   1.187  52.547  1.00  0.00     0.117 C 
HETATM    7  C6  UNL     1      25.839   1.681  53.822  1.00  0.00     0.030 C 
HETATM    8  C7  UNL     1      26.997   1.081  54.038  1.00  0.00     0.009 C 
HETATM    9  C8  UNL     1      27.086  -0.223  53.830  1.00  0.00     0.079 C 
HETATM   10  C10 UNL     1      25.895  -0.933  53.354  1.00  0.00     0.036 C 
HETATM   11  C11 UNL     1      24.954  -0.239  52.703  1.00  0.00     0.018 C 
HETATM   12  H4  UNL     1      27.046   0.963  50.958  1.00  0.00     0.162 HD
ENDROOT
BRANCH   1  13
HETATM   13  N1  UNL     1      22.265   0.595  52.536  1.00  0.00    -0.252 NA
HETATM   14  C1  UNL     1      22.042   0.472  53.814  1.00  0.00     0.151 C 
ENDBRANCH   1  13
BRANCH   1  15
HETATM   15  N4  UNL     1      21.950   2.729  51.493  1.00  0.00    -0.362 N 
HETATM   16  C12 UNL     1      22.327   3.110  50.143  1.00  0.00     0.146 C 
HETATM   17  C13 UNL     1      22.532   1.878  49.285  1.00  0.00     0.169 C 
HETATM   18  N5  UNL     1      21.481   0.938  49.628  1.00  0.00    -0.283 NA
HETATM   19  C14 UNL     1      20.267   1.083  49.885  1.00  0.00     0.116 C 
HETATM   20  C15 UNL     1      19.776   1.276  51.072  1.00  0.00     0.126 C 
HETATM   21  F1  UNL     1      19.409  -0.030  51.225  1.00  0.00    -0.208 F 
HETATM   22  C16 UNL     1      19.582   2.375  52.052  1.00  0.00     0.092 C 
HETATM   23  C17 UNL     1      20.840   3.126  52.371  1.00  0.00     0.131 C 
ENDBRANCH   1  15
BRANCH   9  24
HETATM   24  O1  UNL     1      28.306  -0.808  54.080  1.00  0.00    -0.355 OA
HETATM   25  C9  UNL     1      29.475  -0.098  53.715  1.00  0.00     0.210 C 
ENDBRANCH   9  24
TORSDOF 3
ENDMDL
MODEL 3
REMARK VINA RESULT:      -7.0      1.392      1.450
REMARK  3 active torsions:
REMARK  status: ('A' for Active; 'I' for Inactive)
REMARK    1  A    between atoms: N1_2  and  C2_3 
REMARK    2  A    between atoms: C2_3  and  N4_16 
REMARK    3  A    between atoms: C8_11  and  O1_12 
ROOT
HETATM    1  C2  UNL     1      23.537   3.106  50.895  1.00  0.00     0.152 C 
HETATM    2  C3  UNL     1      23.578   1.961  51.562  1.00  0.00     0.117 C 
HETATM    3  N2  UNL     1      22.661   0.846  51.551  1.00  0.00    -0.242 NA
HETATM    4  C4  UNL     1      22.739   0.190  52.667  1.00  0.00     0.204 C 
HETATM    5  N3  UNL     1      23.720   0.824  53.509  1.00  0.00    -0.363 N 
HETATM    6  C5  UNL     1      24.575   1.489  52.514  1.00  0.00     0.117 C 
HETATM    7  C6  UNL     1      25.452   0.416  51.971  1.00  0.00     0.030 C 
HETATM    8  C7  UNL     1      26.092  -0.177  52.965  1.00  0.00     0.009 C 
HETATM    9  C8  UNL     1      26.622   0.573  53.917  1.00  0.00     0.079 C 
HETATM   10  C10 UNL     1      26.456   2.026  53.830  1.00  0.00     0.036 C 
HETATM   11  C11 UNL     1      25.428   2.512  53.124  1.00  0.00     0.018 C 
HETATM   12  H4  UNL     1      23.579   0.657  54.542  1.00  0.00     0.162 HD
ENDROOT
BRANCH   1  13
HETATM   13  N1  UNL     1      24.519   4.130  51.001  1.00  0.00    -0.252 NA
HETATM   14  C1  UNL     1      25.629   4.039  50.325  1.00  0.00     0.151 C 
ENDBRANCH   1  13
BRANCH   1  15
HETATM   15  N4  UNL     1      22.472   3.394  49.997  1.00  0.00    -0.362 N 
HETATM   16  C12 UNL     1      21.183   3.216  50.643  1.00  0.00     0.146 C 
HETATM   17  C13 UNL     1      21.133   3.991  51.944  1.00  0.00     0.169 C 
HETATM   18  N5  UNL     1      21.784   5.267  51.707  1.00  0.00    -0.283 NA
HETATM   19  C14 UNL     1      21.771   6.056  50.739  1.00  0.00     0.116 C 
HETATM   20  C15 UNL     1      22.607   6.027  49.745  1.00  0.00     0.126 C 
HETATM   21  F1  UNL     1      23.375   7.035  50.251  1.00  0.00    -0.208 F 
HETATM   22  C16 UNL     1      22.830   5.290  48.474  1.00  0.00     0.092 C 
HETATM   23  C17 UNL     1      22.862   3.800  48.640  1.00  0.00     0.131 C 
ENDBRANCH   1  15
BRANCH   9  24
HETATM   24  O1  UNL     1      27.291  -0.086  54.923  1.00  0.00    -0.355 OA
HETATM   25  C9  UNL     1      28.703   0.006  54.958  1.00  0.00     0.210 C 
ENDBRANCH   9  24
TORSDOF 3
ENDMDL
MODEL 4
REMARK VINA RESULT:      -6.7      3.675      6.370
REMARK  3 active torsions:
REMARK  status: ('A' for Active; 'I' for Inactive)
REMARK    1  A    between atoms: N1_2  and  C2_3 
REMARK    2  A    between atoms: C2_3  and  N4_16 
REMARK    3  A    between atoms: C8_11  and  O1_12 
ROOT
HETATM    1  C2  UNL     1      24.129   0.733  53.245  1.00  0.00     0.152 C 
HETATM    2  C3  UNL     1      23.122   0.007  53.709  1.00  0.00     0.117 C 
HETATM    3  N2  UNL     1      23.037  -0.812  54.895  1.00  0.00    -0.242 NA
HETATM    4  C4  UNL     1      22.144  -1.740  54.736  1.00  0.00     0.204 C 
HETATM    5  N3  UNL     1      21.566  -1.606  53.424  1.00  0.00    -0.363 N 
HETATM    6  C5  UNL     1      21.791  -0.179  53.148  1.00  0.00     0.117 C 
HETATM    7  C6  UNL     1      20.726   0.538  53.902  1.00  0.00     0.030 C 
HETATM    8  C7  UNL     1      19.540   0.070  53.546  1.00  0.00     0.009 C 
HETATM    9  C8  UNL     1      19.298  -0.137  52.262  1.00  0.00     0.079 C 
HETATM   10  C10 UNL     1      20.365   0.148  51.298  1.00  0.00     0.036 C 
HETATM   11  C11 UNL     1      21.634   0.134  51.726  1.00  0.00     0.018 C 
HETATM   12  H4  UNL     1      21.163  -2.501  53.033  1.00  0.00     0.162 HD
ENDROOT
BRANCH   1  13
HETATM   13  N1  UNL     1      24.078   1.502  52.049  1.00  0.00    -0.252 NA
HETATM   14  C1  UNL     1      23.527   2.683  52.058  1.00  0.00     0.151 C 
ENDBRANCH   1  13
BRANCH   1  15
HETATM   15  N4  UNL     1      25.370   0.794  53.938  1.00  0.00    -0.362 N 
HETATM   16  C12 UNL     1      25.864  -0.538  54.241  1.00  0.00     0.146 C 
HETATM   17  C13 UNL     1      25.888  -1.389  52.988  1.00  0.00     0.169 C 
HETATM   18  N5  UNL     1      26.360  -0.545  51.906  1.00  0.00    -0.283 NA
HETATM   19  C14 UNL     1      27.247   0.332  51.842  1.00  0.00     0.116 C 
HETATM   20  C15 UNL     1      27.058   1.598  52.061  1.00  0.00     0.126 C 
HETATM   21  F1  UNL     1      26.992   1.904  50.733  1.00  0.00    -0.208 F 
HETATM   22  C16 UNL     1      26.931   2.544  53.200  1.00  0.00     0.092 C 
HETATM   23  C17 UNL     1      25.896   2.140  54.206  1.00  0.00     0.131 C 
ENDBRANCH   1  15
BRANCH   9  24
HETATM   24  O1  UNL     1      18.048  -0.611  51.937  1.00  0.00    -0.355 OA
HETATM   25  C9  UNL     1      17.316  -1.303  52.933  1.00  0.00     0.210 C 
ENDBRANCH   9  24
TORSDOF 3
ENDMDL
MODEL 5
REMARK VINA RESULT:      -6.6      1.545      2.603
REMARK  3 active torsions:
REMARK  status: ('A' for Active; 'I' for Inactive)
REMARK    1  A    between atoms: N1_2  and  C2_3 
REMARK    2  A    between atoms: C2_3  and  N4_16 
REMARK    3  A    between atoms: C8_11  and  O1_12 
ROOT
HETATM    1  C2  UNL     1      22.949   2.056  51.315  1.00  0.00     0.152 C 
HETATM    2  C3  UNL     1      24.259   2.118  51.499  1.00  0.00     0.117 C 
HETATM    3  N2  UNL     1      25.257   2.910  50.819  1.00  0.00    -0.242 NA
HETATM    4  C4  UNL     1      26.417   2.334  50.895  1.00  0.00     0.204 C 
HETATM    5  N3  UNL     1      26.275   1.107  51.637  1.00  0.00    -0.363 N 
HETATM    6  C5  UNL     1      25.087   1.393  52.454  1.00  0.00     0.117 C 
HETATM    7  C6  UNL     1      25.577   2.240  53.575  1.00  0.00     0.030 C 
HETATM    8  C7  UNL     1      26.562   1.618  54.202  1.00  0.00     0.009 C 
HETATM    9  C8  UNL     1      26.432   0.329  54.468  1.00  0.00     0.079 C 
HETATM   10  C10 UNL     1      25.205  -0.349  54.039  1.00  0.00     0.036 C 
HETATM   11  C11 UNL     1      24.508   0.173  53.022  1.00  0.00     0.018 C 
HETATM   12  H4  UNL     1      27.008   0.379  51.415  1.00  0.00     0.162 HD
ENDROOT
BRANCH   1  13
HETATM   13  N1  UNL     1      22.073   1.223  52.064  1.00  0.00    -0.252 NA
HETATM   14  C1  UNL     1      21.545   0.168  51.510  1.00  0.00     0.151 C 
ENDBRANCH   1  13
BRANCH   1  15
HETATM   15  N4  UNL     1      22.309   2.849  50.321  1.00  0.00    -0.362 N 
HETATM   16  C12 UNL     1      20.929   3.123  50.683  1.00  0.00     0.146 C 
HETATM   17  C13 UNL     1      20.854   3.694  52.085  1.00  0.00     0.169 C 
HETATM   18  N5  UNL     1      21.960   4.624  52.228  1.00  0.00    -0.283 NA
HETATM   19  C14 UNL     1      22.466   5.461  51.452  1.00  0.00     0.116 C 
HETATM   20  C15 UNL     1      23.446   5.221  50.634  1.00  0.00     0.126 C 
HETATM   21  F1  UNL     1      24.382   5.772  51.460  1.00  0.00    -0.208 F 
HETATM   22  C16 UNL     1      23.683   4.612  49.300  1.00  0.00     0.092 C 
HETATM   23  C17 UNL     1      23.132   3.225  49.164  1.00  0.00     0.131 C 
ENDBRANCH   1  15
BRANCH   9  24
HETATM   24  O1  UNL     1      27.474  -0.273  55.134  1.00  0.00    -0.355 OA
HETATM   25  C9  UNL     1      28.792  -0.023  54.679  1.00  0.00     0.210 C 
ENDBRANCH   9  24
TORSDOF 3
ENDMDL
MODEL 6
REMARK VINA RESULT:      -6.3      2.813      3.600
REMARK  3 active torsions:
REMARK  status: ('A' for Active; 'I' for Inactive)
REMARK    1  A    between atoms: N1_2  and  C2_3 
REMARK    2  A    between atoms: C2_3  and  N4_16 
REMARK    3  A    between atoms: C8_11  and  O1_12 
ROOT
HETATM    1  C2  UNL     1      21.452   2.458  50.754  1.00  0.00     0.152 C 
HETATM    2  C3  UNL     1      22.043   1.518  51.477  1.00  0.00     0.117 C 
HETATM    3  N2  UNL     1      21.719   0.119  51.627  1.00  0.00    -0.242 NA
HETATM    4  C4  UNL     1      22.158  -0.324  52.765  1.00  0.00     0.204 C 
HETATM    5  N3  UNL     1      22.812   0.754  53.460  1.00  0.00    -0.363 N 
HETATM    6  C5  UNL     1      23.210   1.625  52.343  1.00  0.00     0.117 C 
HETATM    7  C6  UNL     1      24.432   0.995  51.773  1.00  0.00     0.030 C 
HETATM    8  C7  UNL     1      25.337   0.842  52.725  1.00  0.00     0.009 C 
HETATM    9  C8  UNL     1      25.544   1.838  53.571  1.00  0.00     0.079 C 
HETATM   10  C10 UNL     1      24.744   3.057  53.419  1.00  0.00     0.036 C 
HETATM   11  C11 UNL     1      23.560   2.972  52.800  1.00  0.00     0.018 C 
HETATM   12  H4  UNL     1      22.832   0.645  54.510  1.00  0.00     0.162 HD
ENDROOT
BRANCH   1  13
HETATM   13  N1  UNL     1      21.881   3.812  50.696  1.00  0.00    -0.252 NA
HETATM   14  C1  UNL     1      22.857   4.153  49.902  1.00  0.00     0.151 C 
ENDBRANCH   1  13
BRANCH   1  15
HETATM   15  N4  UNL     1      20.309   2.162  49.959  1.00  0.00    -0.362 N 
HETATM   16  C12 UNL     1      19.305   1.454  50.734  1.00  0.00     0.146 C 
HETATM   17  C13 UNL     1      19.000   2.205  52.014  1.00  0.00     0.169 C 
HETATM   18  N5  UNL     1      18.963   3.618  51.683  1.00  0.00    -0.283 NA
HETATM   19  C14 UNL     1      18.511   4.245  50.702  1.00  0.00     0.116 C 
HETATM   20  C15 UNL     1      19.185   4.538  49.631  1.00  0.00     0.126 C 
HETATM   21  F1  UNL     1      19.433   5.817  50.035  1.00  0.00    -0.208 F 
HETATM   22  C16 UNL     1      19.628   3.902  48.363  1.00  0.00     0.092 C 
HETATM   23  C17 UNL     1      20.361   2.610  48.561  1.00  0.00     0.131 C 
ENDBRANCH   1  15
BRANCH   9  24
HETATM   24  O1  UNL     1      26.504   1.639  54.536  1.00  0.00    -0.355 OA
HETATM   25  C9  UNL     1      27.416   0.570  54.362  1.00  0.00     0.210 C 
ENDBRANCH   9  24
TORSDOF 3
ENDMDL
MODEL 7
REMARK VINA RESULT:      -6.2      6.787      8.903
REMARK  3 active torsions:
REMARK  status: ('A' for Active; 'I' for Inactive)
REMARK    1  A    between atoms: N1_2  and  C2_3 
REMARK    2  A    between atoms: C2_3  and  N4_16 
REMARK    3  A    between atoms: C8_11  and  O1_12 
ROOT
HETATM    1  C2  UNL     1      28.751   9.527  47.452  1.00  0.00     0.152 C 
HETATM    2  C3  UNL     1      27.803   9.176  48.309  1.00  0.00     0.117 C 
HETATM    3  N2  UNL     1      26.975   9.994  49.165  1.00  0.00    -0.242 NA
HETATM    4  C4  UNL     1      26.576   9.308  50.192  1.00  0.00     0.204 C 
HETATM    5  N3  UNL     1      27.113   7.975  50.094  1.00  0.00    -0.363 N 
HETATM    6  C5  UNL     1      27.315   7.845  48.643  1.00  0.00     0.117 C 
HETATM    7  C6  UNL     1      25.967   7.551  48.085  1.00  0.00     0.030 C 
HETATM    8  C7  UNL     1      25.461   6.487  48.687  1.00  0.00     0.009 C 
HETATM    9  C8  UNL     1      26.243   5.438  48.887  1.00  0.00     0.079 C 
HETATM   10  C10 UNL     1      27.638   5.517  48.446  1.00  0.00     0.036 C 
HETATM   11  C11 UNL     1      28.200   6.725  48.314  1.00  0.00     0.018 C 
HETATM   12  H4  UNL     1      27.212   7.479  51.021  1.00  0.00     0.162 HD
ENDROOT
BRANCH   1  13
HETATM   13  N1  UNL     1      29.497   8.608  46.664  1.00  0.00    -0.252 NA
HETATM   14  C1  UNL     1      28.989   8.134  45.561  1.00  0.00     0.151 C 
ENDBRANCH   1  13
BRANCH   1  15
HETATM   15  N4  UNL     1      29.094  10.894  47.256  1.00  0.00    -0.362 N 
HETATM   16  C12 UNL     1      29.490  11.516  48.508  1.00  0.00     0.146 C 
HETATM   17  C13 UNL     1      30.563  10.691  49.191  1.00  0.00     0.169 C 
HETATM   18  N5  UNL     1      31.473  10.232  48.157  1.00  0.00    -0.283 NA
HETATM   19  C14 UNL     1      31.940  10.782  47.137  1.00  0.00     0.116 C 
HETATM   20  C15 UNL     1      31.398  10.745  45.957  1.00  0.00     0.126 C 
HETATM   21  F1  UNL     1      32.225   9.754  45.515  1.00  0.00    -0.208 F 
HETATM   22  C16 UNL     1      30.316  11.412  45.187  1.00  0.00     0.092 C 
HETATM   23  C17 UNL     1      28.987  11.397  45.880  1.00  0.00     0.131 C 
ENDBRANCH   1  15
BRANCH   9  24
HETATM   24  O1  UNL     1      25.671   4.349  49.503  1.00  0.00    -0.355 OA
HETATM   25  C9  UNL     1      26.489   3.224  49.767  1.00  0.00     0.210 C 
ENDBRANCH   9  24
TORSDOF 3
ENDMDL
MODEL 8
REMARK VINA RESULT:      -6.2      7.623     10.433
REMARK  3 active torsions:
REMARK  status: ('A' for Active; 'I' for Inactive)
REMARK    1  A    between atoms: N1_2  and  C2_3 
REMARK    2  A    between atoms: C2_3  and  N4_16 
REMARK    3  A    between atoms: C8_11  and  O1_12 
ROOT
HETATM    1  C2  UNL     1      32.401   5.995  46.965  1.00  0.00     0.152 C 
HETATM    2  C3  UNL     1      31.618   7.061  47.048  1.00  0.00     0.117 C 
HETATM    3  N2  UNL     1      31.896   8.444  46.739  1.00  0.00    -0.242 NA
HETATM    4  C4  UNL     1      31.113   9.222  47.421  1.00  0.00     0.204 C 
HETATM    5  N3  UNL     1      30.251   8.408  48.239  1.00  0.00    -0.363 N 
HETATM    6  C5  UNL     1      30.230   7.148  47.481  1.00  0.00     0.117 C 
HETATM    7  C6  UNL     1      29.274   7.379  46.364  1.00  0.00     0.030 C 
HETATM    8  C7  UNL     1      28.108   7.767  46.853  1.00  0.00     0.009 C 
HETATM    9  C8  UNL     1      27.619   7.137  47.909  1.00  0.00     0.079 C 
HETATM   10  C10 UNL     1      28.406   6.048  48.494  1.00  0.00     0.036 C 
HETATM   11  C11 UNL     1      29.730   6.034  48.290  1.00  0.00     0.018 C 
HETATM   12  H4  UNL     1      29.887   8.895  49.103  1.00  0.00     0.162 HD
ENDROOT
BRANCH   1  13
HETATM   13  N1  UNL     1      31.996   4.675  47.305  1.00  0.00    -0.252 NA
HETATM   14  C1  UNL     1      31.471   3.901  46.397  1.00  0.00     0.151 C 
ENDBRANCH   1  13
BRANCH   1  15
HETATM   15  N4  UNL     1      33.746   6.106  46.513  1.00  0.00    -0.362 N 
HETATM   16  C12 UNL     1      34.451   7.156  47.228  1.00  0.00     0.146 C 
HETATM   17  C13 UNL     1      34.306   6.965  48.724  1.00  0.00     0.169 C 
HETATM   18  N5  UNL     1      34.428   5.543  48.988  1.00  0.00    -0.283 NA
HETATM   19  C14 UNL     1      35.168   4.656  48.514  1.00  0.00     0.116 C 
HETATM   20  C15 UNL     1      34.879   3.917  47.485  1.00  0.00     0.126 C 
HETATM   21  F1  UNL     1      34.492   2.855  48.249  1.00  0.00    -0.208 F 
HETATM   22  C16 UNL     1      34.888   3.990  46.001  1.00  0.00     0.092 C 
HETATM   23  C17 UNL     1      34.151   5.174  45.452  1.00  0.00     0.131 C 
ENDBRANCH   1  15
BRANCH   9  24
HETATM   24  O1  UNL     1      26.398   7.566  48.374  1.00  0.00    -0.355 OA
HETATM   25  C9  UNL     1      26.128   7.441  49.759  1.00  0.00     0.210 C 
ENDBRANCH   9  24
TORSDOF 3
ENDMDL
MODEL 9
REMARK VINA RESULT:      -6.2      3.841      5.924
REMARK  3 active torsions:
REMARK  status: ('A' for Active; 'I' for Inactive)
REMARK    1  A    between atoms: N1_2  and  C2_3 
REMARK    2  A    between atoms: C2_3  and  N4_16 
REMARK    3  A    between atoms: C8_11  and  O1_12 
ROOT
HETATM    1  C2  UNL     1      22.345   3.508  50.698  1.00  0.00     0.152 C 
HETATM    2  C3  UNL     1      22.719   4.564  49.990  1.00  0.00     0.117 C 
HETATM    3  N2  UNL     1      21.932   5.646  49.449  1.00  0.00    -0.242 NA
HETATM    4  C4  UNL     1      22.528   6.164  48.420  1.00  0.00     0.204 C 
HETATM    5  N3  UNL     1      23.764   5.459  48.199  1.00  0.00    -0.363 N 
HETATM    6  C5  UNL     1      24.054   4.944  49.545  1.00  0.00     0.117 C 
HETATM    7  C6  UNL     1      24.621   6.099  50.293  1.00  0.00     0.030 C 
HETATM    8  C7  UNL     1      25.661   6.584  49.635  1.00  0.00     0.009 C 
HETATM    9  C8  UNL     1      26.541   5.739  49.124  1.00  0.00     0.079 C 
HETATM   10  C10 UNL     1      26.310   4.303  49.302  1.00  0.00     0.036 C 
HETATM   11  C11 UNL     1      25.058   3.878  49.517  1.00  0.00     0.018 C 
HETATM   12  H4  UNL     1      24.112   5.496  47.202  1.00  0.00     0.162 HD
ENDROOT
BRANCH   1  13
HETATM   13  N1  UNL     1      23.236   2.506  51.174  1.00  0.00    -0.252 NA
HETATM   14  C1  UNL     1      23.920   2.708  52.265  1.00  0.00     0.151 C 
ENDBRANCH   1  13
BRANCH   1  15
HETATM   15  N4  UNL     1      20.980   3.302  51.043  1.00  0.00    -0.362 N 
HETATM   16  C12 UNL     1      20.138   3.301  49.859  1.00  0.00     0.146 C 
HETATM   17  C13 UNL     1      20.679   2.330  48.828  1.00  0.00     0.169 C 
HETATM   18  N5  UNL     1      21.120   1.148  49.545  1.00  0.00    -0.283 NA
HETATM   19  C14 UNL     1      20.646   0.520  50.515  1.00  0.00     0.116 C 
HETATM   20  C15 UNL     1      20.930   0.753  51.761  1.00  0.00     0.126 C 
HETATM   21  F1  UNL     1      21.824  -0.275  51.837  1.00  0.00    -0.208 F 
HETATM   22  C16 UNL     1      20.557   1.691  52.851  1.00  0.00     0.092 C 
HETATM   23  C17 UNL     1      20.692   3.136  52.474  1.00  0.00     0.131 C 
ENDBRANCH   1  15
BRANCH   9  24
HETATM   24  O1  UNL     1      27.613   6.289  48.460  1.00  0.00    -0.355 OA
HETATM   25  C9  UNL     1      28.780   5.501  48.306  1.00  0.00     0.210 C 
ENDBRANCH   9  24
TORSDOF 3
ENDMDL
