MODEL 1
REMARK VINA RESULT:     -10.6      0.000      0.000
REMARK  2 active torsions:
REMARK  status: ('A' for Active; 'I' for Inactive)
REMARK    1  A    between atoms: C2_2  and  C3_3 
REMARK    2  A    between atoms: C4_4  and  C5_5 
ROOT
HETATM    1  C5  UNL     1      26.751  -0.225  53.855  1.00  0.00     0.113 C 
HETATM    2  C6  UNL     1      25.461  -0.631  54.529  1.00  0.00     0.071 C 
HETATM    3  C7  UNL     1      24.426  -0.024  53.658  1.00  0.00    -0.011 A 
HETATM    4  C8  UNL     1      23.045  -0.201  53.515  1.00  0.00     0.049 A 
HETATM    5  C9  UNL     1      22.324   0.548  52.581  1.00  0.00    -0.011 A 
HETATM    6  C10 UNL     1      22.898   1.488  51.753  1.00  0.00     0.015 A 
HETATM    7  C11 UNL     1      22.546   2.369  50.780  1.00  0.00     0.004 A 
HETATM    8  C12 UNL     1      21.301   2.620  50.245  1.00  0.00     0.014 A 
HETATM    9  C13 UNL     1      21.162   3.565  49.266  1.00  0.00     0.001 A 
HETATM   10  C14 UNL     1      22.288   4.244  48.840  1.00  0.00     0.002 A 
HETATM   11  C15 UNL     1      23.501   3.958  49.403  1.00  0.00     0.030 A 
HETATM   12  C16 UNL     1      23.708   3.021  50.389  1.00  0.00     0.048 A 
HETATM   13  N1  UNL     1      24.784   2.601  51.062  1.00  0.00    -0.316 N 
HETATM   14  C17 UNL     1      24.251   1.657  51.896  1.00  0.00     0.076 A 
HETATM   15  C18 UNL     1      24.992   0.918  52.826  1.00  0.00     0.068 A 
HETATM   16  N2  UNL     1      26.401   0.956  53.135  1.00  0.00    -0.349 N 
HETATM   17  C19 UNL     1      27.225   2.103  52.700  1.00  0.00     0.296 C 
HETATM   18  O1  UNL     1      27.083   2.159  51.341  1.00  0.00    -0.348 OA
HETATM   19  C20 UNL     1      26.143   3.082  50.868  1.00  0.00     0.226 C 
HETATM   20  C21 UNL     1      26.490   3.246  49.392  1.00  0.00     0.064 C 
HETATM   21  C22 UNL     1      20.878   0.152  52.648  1.00  0.00     0.163 A 
HETATM   22  N3  UNL     1      20.794  -0.856  53.659  1.00  0.00    -0.353 N 
HETATM   23  C23 UNL     1      22.109  -1.083  54.200  1.00  0.00     0.253 A 
HETATM   24  O2  UNL     1      22.372  -1.913  55.110  1.00  0.00    -0.268 OA
HETATM   25  H23 UNL     1      19.885  -1.293  53.894  1.00  0.00     0.163 HD
ENDROOT
BRANCH   1  26
HETATM   26  C4  UNL     1      27.289  -1.305  53.005  1.00  0.00    -0.005 C 
HETATM   27  C3  UNL     1      28.546  -1.713  53.044  1.00  0.00    -0.029 C 
BRANCH  27  28
HETATM   28  C2  UNL     1      29.582  -1.163  53.924  1.00  0.00     0.022 C 
HETATM   29  C1  UNL     1      30.182   0.128  53.383  1.00  0.00     0.009 C 
ENDBRANCH  27  28
ENDBRANCH   1  26
TORSDOF 2
ENDMDL
MODEL 2
REMARK VINA RESULT:      -9.9      2.343      4.714
REMARK  2 active torsions:
REMARK  status: ('A' for Active; 'I' for Inactive)
REMARK    1  A    between atoms: C2_2  and  C3_3 
REMARK    2  A    between atoms: C4_4  and  C5_5 
ROOT
HETATM    1  C5  UNL     1      25.609   2.969  51.696  1.00  0.00     0.113 C 
HETATM    2  C6  UNL     1      26.013   2.246  52.960  1.00  0.00     0.071 C 
HETATM    3  C7  UNL     1      24.837   1.385  53.238  1.00  0.00    -0.011 A 
HETATM    4  C8  UNL     1      24.613   0.281  54.069  1.00  0.00     0.049 A 
HETATM    5  C9  UNL     1      23.356  -0.329  54.118  1.00  0.00    -0.011 A 
HETATM    6  C10 UNL     1      22.275   0.095  53.375  1.00  0.00     0.015 A 
HETATM    7  C11 UNL     1      20.968  -0.217  53.170  1.00  0.00     0.004 A 
HETATM    8  C12 UNL     1      20.217  -1.222  53.740  1.00  0.00     0.014 A 
HETATM    9  C13 UNL     1      18.900  -1.360  53.396  1.00  0.00     0.001 A 
HETATM   10  C14 UNL     1      18.361  -0.479  52.479  1.00  0.00     0.002 A 
HETATM   11  C15 UNL     1      19.150   0.501  51.942  1.00  0.00     0.030 A 
HETATM   12  C16 UNL     1      20.479   0.694  52.244  1.00  0.00     0.048 A 
HETATM   13  N1  UNL     1      21.405   1.572  51.846  1.00  0.00    -0.316 N 
HETATM   14  C17 UNL     1      22.501   1.177  52.563  1.00  0.00     0.076 A 
HETATM   15  C18 UNL     1      23.752   1.803  52.500  1.00  0.00     0.068 A 
HETATM   16  N2  UNL     1      24.184   2.944  51.730  1.00  0.00    -0.349 N 
HETATM   17  C19 UNL     1      23.186   3.851  51.126  1.00  0.00     0.296 C 
HETATM   18  O1  UNL     1      22.414   3.060  50.322  1.00  0.00    -0.348 OA
HETATM   19  C20 UNL     1      21.200   2.635  50.875  1.00  0.00     0.226 C 
HETATM   20  C21 UNL     1      20.383   2.168  49.675  1.00  0.00     0.064 C 
HETATM   21  C22 UNL     1      23.406  -1.476  55.083  1.00  0.00     0.163 A 
HETATM   22  N3  UNL     1      24.743  -1.504  55.590  1.00  0.00    -0.353 N 
HETATM   23  C23 UNL     1      25.494  -0.436  54.981  1.00  0.00     0.253 A 
HETATM   24  O2  UNL     1      26.706  -0.192  55.218  1.00  0.00    -0.268 OA
HETATM   25  H23 UNL     1      25.030  -2.217  56.284  1.00  0.00     0.163 HD
ENDROOT
BRANCH   1  26
HETATM   26  C4  UNL     1      26.190   2.338  50.495  1.00  0.00    -0.005 C 
HETATM   27  C3  UNL     1      26.596   3.014  49.433  1.00  0.00    -0.029 C 
BRANCH  27  28
HETATM   28  C2  UNL     1      26.533   4.471  49.289  1.00  0.00     0.022 C 
HETATM   29  C1  UNL     1      27.748   5.040  48.570  1.00  0.00     0.009 C 
ENDBRANCH  27  28
ENDBRANCH   1  26
TORSDOF 2
ENDMDL
MODEL 3
REMARK VINA RESULT:      -9.9      1.541      2.249
REMARK  2 active torsions:
REMARK  status: ('A' for Active; 'I' for Inactive)
REMARK    1  A    between atoms: C2_2  and  C3_3 
REMARK    2  A    between atoms: C4_4  and  C5_5 
ROOT
HETATM    1  C5  UNL     1      25.665   0.797  52.977  1.00  0.00     0.113 C 
HETATM    2  C6  UNL     1      24.791   0.149  54.025  1.00  0.00     0.071 C 
HETATM    3  C7  UNL     1      23.440   0.214  53.415  1.00  0.00    -0.011 A 
HETATM    4  C8  UNL     1      22.218  -0.413  53.685  1.00  0.00     0.049 A 
HETATM    5  C9  UNL     1      21.089  -0.132  52.912  1.00  0.00    -0.011 A 
HETATM    6  C10 UNL     1      21.090   0.756  51.856  1.00  0.00     0.015 A 
HETATM    7  C11 UNL     1      20.239   1.269  50.929  1.00  0.00     0.004 A 
HETATM    8  C12 UNL     1      18.901   1.003  50.738  1.00  0.00     0.014 A 
HETATM    9  C13 UNL     1      18.220   1.640  49.738  1.00  0.00     0.001 A 
HETATM   10  C14 UNL     1      18.904   2.539  48.943  1.00  0.00     0.002 A 
HETATM   11  C15 UNL     1      20.233   2.767  49.172  1.00  0.00     0.030 A 
HETATM   12  C16 UNL     1      20.975   2.160  50.160  1.00  0.00     0.048 A 
HETATM   13  N1  UNL     1      22.251   2.243  50.548  1.00  0.00    -0.316 N 
HETATM   14  C17 UNL     1      22.289   1.366  51.597  1.00  0.00     0.076 A 
HETATM   15  C18 UNL     1      23.433   1.100  52.360  1.00  0.00     0.068 A 
HETATM   16  N2  UNL     1      24.767   1.639  52.257  1.00  0.00    -0.349 N 
HETATM   17  C19 UNL     1      25.010   2.875  51.485  1.00  0.00     0.296 C 
HETATM   18  O1  UNL     1      24.557   2.611  50.222  1.00  0.00    -0.348 OA
HETATM   19  C20 UNL     1      23.270   3.078  49.930  1.00  0.00     0.226 C 
HETATM   20  C21 UNL     1      23.195   3.044  48.407  1.00  0.00     0.064 C 
HETATM   21  C22 UNL     1      19.932  -0.939  53.422  1.00  0.00     0.163 A 
HETATM   22  N3  UNL     1      20.440  -1.699  54.522  1.00  0.00    -0.353 N 
HETATM   23  C23 UNL     1      21.836  -1.389  54.697  1.00  0.00     0.253 A 
HETATM   24  O2  UNL     1      22.573  -1.894  55.583  1.00  0.00    -0.268 OA
HETATM   25  H23 UNL     1      19.824  -2.344  55.049  1.00  0.00     0.163 HD
ENDROOT
BRANCH   1  26
HETATM   26  C4  UNL     1      26.348  -0.206  52.137  1.00  0.00    -0.005 C 
HETATM   27  C3  UNL     1      27.505  -0.764  52.451  1.00  0.00    -0.029 C 
BRANCH  27  28
HETATM   28  C2  UNL     1      28.276  -0.474  53.664  1.00  0.00     0.022 C 
HETATM   29  C1  UNL     1      29.720  -0.948  53.566  1.00  0.00     0.009 C 
ENDBRANCH  27  28
ENDBRANCH   1  26
TORSDOF 2
ENDMDL
MODEL 4
REMARK VINA RESULT:      -9.4      1.635      4.696
REMARK  2 active torsions:
REMARK  status: ('A' for Active; 'I' for Inactive)
REMARK    1  A    between atoms: C2_2  and  C3_3 
REMARK    2  A    between atoms: C4_4  and  C5_5 
ROOT
HETATM    1  C5  UNL     1      26.912   1.432  52.183  1.00  0.00     0.113 C 
HETATM    2  C6  UNL     1      26.467   2.225  50.976  1.00  0.00     0.071 C 
HETATM    3  C7  UNL     1      24.988   2.125  51.043  1.00  0.00    -0.011 A 
HETATM    4  C8  UNL     1      23.937   2.814  50.427  1.00  0.00     0.049 A 
HETATM    5  C9  UNL     1      22.609   2.474  50.698  1.00  0.00    -0.011 A 
HETATM    6  C10 UNL     1      22.242   1.467  51.565  1.00  0.00     0.015 A 
HETATM    7  C11 UNL     1      21.122   0.871  52.052  1.00  0.00     0.004 A 
HETATM    8  C12 UNL     1      19.801   1.150  51.775  1.00  0.00     0.014 A 
HETATM    9  C13 UNL     1      18.815   0.416  52.375  1.00  0.00     0.001 A 
HETATM   10  C14 UNL     1      19.179  -0.590  53.249  1.00  0.00     0.002 A 
HETATM   11  C15 UNL     1      20.504  -0.826  53.490  1.00  0.00     0.030 A 
HETATM   12  C16 UNL     1      21.543  -0.126  52.921  1.00  0.00     0.048 A 
HETATM   13  N1  UNL     1      22.875  -0.198  53.015  1.00  0.00    -0.316 N 
HETATM   14  C17 UNL     1      23.276   0.797  52.165  1.00  0.00     0.076 A 
HETATM   15  C18 UNL     1      24.614   1.121  51.908  1.00  0.00     0.068 A 
HETATM   16  N2  UNL     1      25.829   0.536  52.421  1.00  0.00    -0.349 N 
HETATM   17  C19 UNL     1      25.796  -0.790  53.072  1.00  0.00     0.296 C 
HETATM   18  O1  UNL     1      24.911  -0.666  54.106  1.00  0.00    -0.348 OA
HETATM   19  C20 UNL     1      23.614  -1.128  53.853  1.00  0.00     0.226 C 
HETATM   20  C21 UNL     1      22.991  -1.275  55.238  1.00  0.00     0.064 C 
HETATM   21  C22 UNL     1      21.703   3.369  49.905  1.00  0.00     0.163 A 
HETATM   22  N3  UNL     1      22.562   4.241  49.165  1.00  0.00    -0.353 N 
HETATM   23  C23 UNL     1      23.931   3.914  49.472  1.00  0.00     0.253 A 
HETATM   24  O2  UNL     1      24.931   4.501  48.981  1.00  0.00    -0.268 OA
HETATM   25  H23 UNL     1      22.168   4.961  48.534  1.00  0.00     0.163 HD
ENDROOT
BRANCH   1  26
HETATM   26  C4  UNL     1      27.226   2.308  53.329  1.00  0.00    -0.005 C 
HETATM   27  C3  UNL     1      28.305   2.176  54.081  1.00  0.00    -0.029 C 
BRANCH  27  28
HETATM   28  C2  UNL     1      29.339   1.155  53.896  1.00  0.00     0.022 C 
HETATM   29  C1  UNL     1      29.001  -0.153  54.599  1.00  0.00     0.009 C 
ENDBRANCH  27  28
ENDBRANCH   1  26
TORSDOF 2
ENDMDL
MODEL 5
REMARK VINA RESULT:      -9.4      2.293      5.638
REMARK  2 active torsions:
REMARK  status: ('A' for Active; 'I' for Inactive)
REMARK    1  A    between atoms: C2_2  and  C3_3 
REMARK    2  A    between atoms: C4_4  and  C5_5 
ROOT
HETATM    1  C5  UNL     1      24.959   3.809  49.611  1.00  0.00     0.113 C 
HETATM    2  C6  UNL     1      23.674   3.416  48.918  1.00  0.00     0.071 C 
HETATM    3  C7  UNL     1      23.046   2.487  49.889  1.00  0.00    -0.011 A 
HETATM    4  C8  UNL     1      21.759   1.958  50.038  1.00  0.00     0.049 A 
HETATM    5  C9  UNL     1      21.469   1.075  51.082  1.00  0.00    -0.011 A 
HETATM    6  C10 UNL     1      22.398   0.670  52.017  1.00  0.00     0.015 A 
HETATM    7  C11 UNL     1      22.491  -0.133  53.108  1.00  0.00     0.004 A 
HETATM    8  C12 UNL     1      21.518  -0.908  53.702  1.00  0.00     0.014 A 
HETATM    9  C13 UNL     1      21.827  -1.657  54.803  1.00  0.00     0.001 A 
HETATM   10  C14 UNL     1      23.119  -1.613  55.290  1.00  0.00     0.002 A 
HETATM   11  C15 UNL     1      24.048  -0.828  54.666  1.00  0.00     0.030 A 
HETATM   12  C16 UNL     1      23.803  -0.051  53.556  1.00  0.00     0.048 A 
HETATM   13  N1  UNL     1      24.552   0.765  52.808  1.00  0.00    -0.316 N 
HETATM   14  C17 UNL     1      23.656   1.192  51.866  1.00  0.00     0.076 A 
HETATM   15  C18 UNL     1      23.968   2.077  50.827  1.00  0.00     0.068 A 
HETATM   16  N2  UNL     1      25.217   2.718  50.493  1.00  0.00    -0.349 N 
HETATM   17  C19 UNL     1      26.484   2.213  51.060  1.00  0.00     0.296 C 
HETATM   18  O1  UNL     1      26.324   2.268  52.416  1.00  0.00    -0.348 OA
HETATM   19  C20 UNL     1      25.957   1.067  53.033  1.00  0.00     0.226 C 
HETATM   20  C21 UNL     1      26.267   1.292  54.509  1.00  0.00     0.064 C 
HETATM   21  C22 UNL     1      20.026   0.673  50.997  1.00  0.00     0.163 A 
HETATM   22  N3  UNL     1      19.494   1.360  49.860  1.00  0.00    -0.353 N 
HETATM   23  C23 UNL     1      20.540   2.149  49.262  1.00  0.00     0.253 A 
HETATM   24  O2  UNL     1      20.393   2.872  48.243  1.00  0.00    -0.268 OA
HETATM   25  H23 UNL     1      18.501   1.243  49.589  1.00  0.00     0.163 HD
ENDROOT
BRANCH   1  26
HETATM   26  C4  UNL     1      24.837   5.112  50.293  1.00  0.00    -0.005 C 
HETATM   27  C3  UNL     1      25.243   6.256  49.769  1.00  0.00    -0.029 C 
BRANCH  27  28
HETATM   28  C2  UNL     1      25.867   6.403  48.450  1.00  0.00     0.022 C 
HETATM   29  C1  UNL     1      27.385   6.287  48.506  1.00  0.00     0.009 C 
ENDBRANCH  27  28
ENDBRANCH   1  26
TORSDOF 2
ENDMDL
MODEL 6
REMARK VINA RESULT:      -9.3      2.351      7.112
REMARK  2 active torsions:
REMARK  status: ('A' for Active; 'I' for Inactive)
REMARK    1  A    between atoms: C2_2  and  C3_3 
REMARK    2  A    between atoms: C4_4  and  C5_5 
ROOT
HETATM    1  C5  UNL     1      22.345   3.943  48.545  1.00  0.00     0.113 C 
HETATM    2  C6  UNL     1      23.754   4.131  49.059  1.00  0.00     0.071 C 
HETATM    3  C7  UNL     1      23.850   3.117  50.137  1.00  0.00    -0.011 A 
HETATM    4  C8  UNL     1      24.914   2.550  50.850  1.00  0.00     0.049 A 
HETATM    5  C9  UNL     1      24.676   1.594  51.841  1.00  0.00    -0.011 A 
HETATM    6  C10 UNL     1      23.417   1.147  52.182  1.00  0.00     0.015 A 
HETATM    7  C11 UNL     1      22.819   0.285  53.045  1.00  0.00     0.004 A 
HETATM    8  C12 UNL     1      23.395  -0.536  53.990  1.00  0.00     0.014 A 
HETATM    9  C13 UNL     1      22.602  -1.331  54.771  1.00  0.00     0.001 A 
HETATM   10  C14 UNL     1      21.234  -1.285  54.584  1.00  0.00     0.002 A 
HETATM   11  C15 UNL     1      20.711  -0.453  53.632  1.00  0.00     0.030 A 
HETATM   12  C16 UNL     1      21.453   0.370  52.815  1.00  0.00     0.048 A 
HETATM   13  N1  UNL     1      21.147   1.242  51.849  1.00  0.00    -0.316 N 
HETATM   14  C17 UNL     1      22.380   1.705  51.480  1.00  0.00     0.076 A 
HETATM   15  C18 UNL     1      22.596   2.666  50.485  1.00  0.00     0.068 A 
HETATM   16  N2  UNL     1      21.652   3.372  49.653  1.00  0.00    -0.349 N 
HETATM   17  C19 UNL     1      20.221   3.405  50.019  1.00  0.00     0.296 C 
HETATM   18  O1  UNL     1      19.833   2.096  50.088  1.00  0.00    -0.348 OA
HETATM   19  C20 UNL     1      19.805   1.539  51.372  1.00  0.00     0.226 C 
HETATM   20  C21 UNL     1      18.958   0.281  51.219  1.00  0.00     0.064 C 
HETATM   21  C22 UNL     1      25.987   1.166  52.433  1.00  0.00     0.163 A 
HETATM   22  N3  UNL     1      26.991   1.915  51.743  1.00  0.00    -0.353 N 
HETATM   23  C23 UNL     1      26.352   2.767  50.772  1.00  0.00     0.253 A 
HETATM   24  O2  UNL     1      26.963   3.553  50.002  1.00  0.00    -0.268 OA
HETATM   25  H23 UNL     1      27.993   1.795  51.976  1.00  0.00     0.163 HD
ENDROOT
BRANCH   1  26
HETATM   26  C4  UNL     1      22.313   3.111  47.327  1.00  0.00    -0.005 C 
HETATM   27  C3  UNL     1      21.816   3.519  46.171  1.00  0.00    -0.029 C 
BRANCH  27  28
HETATM   28  C2  UNL     1      21.230   4.840  45.927  1.00  0.00     0.022 C 
HETATM   29  C1  UNL     1      22.191   5.783  45.215  1.00  0.00     0.009 C 
ENDBRANCH  27  28
ENDBRANCH   1  26
TORSDOF 2
ENDMDL
MODEL 7
REMARK VINA RESULT:      -9.3      1.938      5.944
REMARK  2 active torsions:
REMARK  status: ('A' for Active; 'I' for Inactive)
REMARK    1  A    between atoms: C2_2  and  C3_3 
REMARK    2  A    between atoms: C4_4  and  C5_5 
ROOT
HETATM    1  C5  UNL     1      20.630   1.263  51.244  1.00  0.00     0.113 C 
HETATM    2  C6  UNL     1      20.637   0.048  52.143  1.00  0.00     0.071 C 
HETATM    3  C7  UNL     1      21.999   0.079  52.728  1.00  0.00    -0.011 A 
HETATM    4  C8  UNL     1      22.607  -0.560  53.816  1.00  0.00     0.049 A 
HETATM    5  C9  UNL     1      23.950  -0.322  54.121  1.00  0.00    -0.011 A 
HETATM    6  C10 UNL     1      24.755   0.533  53.399  1.00  0.00     0.015 A 
HETATM    7  C11 UNL     1      26.034   0.991  53.383  1.00  0.00     0.004 A 
HETATM    8  C12 UNL     1      27.076   0.684  54.231  1.00  0.00     0.014 A 
HETATM    9  C13 UNL     1      28.302   1.258  54.033  1.00  0.00     0.001 A 
HETATM   10  C14 UNL     1      28.456   2.137  52.979  1.00  0.00     0.002 A 
HETATM   11  C15 UNL     1      27.390   2.410  52.167  1.00  0.00     0.030 A 
HETATM   12  C16 UNL     1      26.134   1.867  52.311  1.00  0.00     0.048 A 
HETATM   13  N1  UNL     1      24.984   1.993  51.641  1.00  0.00    -0.316 N 
HETATM   14  C17 UNL     1      24.154   1.156  52.336  1.00  0.00     0.076 A 
HETATM   15  C18 UNL     1      22.810   0.932  52.012  1.00  0.00     0.068 A 
HETATM   16  N2  UNL     1      22.008   1.473  50.943  1.00  0.00    -0.349 N 
HETATM   17  C19 UNL     1      22.656   2.119  49.783  1.00  0.00     0.296 C 
HETATM   18  O1  UNL     1      23.410   3.132  50.306  1.00  0.00    -0.348 OA
HETATM   19  C20 UNL     1      24.769   2.847  50.483  1.00  0.00     0.226 C 
HETATM   20  C21 UNL     1      25.422   4.215  50.648  1.00  0.00     0.064 C 
HETATM   21  C22 UNL     1      24.330  -1.134  55.323  1.00  0.00     0.163 A 
HETATM   22  N3  UNL     1      23.151  -1.851  55.701  1.00  0.00    -0.353 N 
HETATM   23  C23 UNL     1      22.089  -1.512  54.789  1.00  0.00     0.253 A 
HETATM   24  O2  UNL     1      20.921  -1.977  54.852  1.00  0.00    -0.268 OA
HETATM   25  H23 UNL     1      23.160  -2.490  56.516  1.00  0.00     0.163 HD
ENDROOT
BRANCH   1  26
HETATM   26  C4  UNL     1      19.977   2.419  51.891  1.00  0.00    -0.005 C 
HETATM   27  C3  UNL     1      18.728   2.782  51.658  1.00  0.00    -0.029 C 
BRANCH  27  28
HETATM   28  C2  UNL     1      17.813   2.105  50.735  1.00  0.00     0.022 C 
HETATM   29  C1  UNL     1      16.844   1.173  51.452  1.00  0.00     0.009 C 
ENDBRANCH  27  28
ENDBRANCH   1  26
TORSDOF 2
ENDMDL
MODEL 8
REMARK VINA RESULT:      -9.0      2.003      5.330
REMARK  2 active torsions:
REMARK  status: ('A' for Active; 'I' for Inactive)
REMARK    1  A    between atoms: C2_2  and  C3_3 
REMARK    2  A    between atoms: C4_4  and  C5_5 
ROOT
HETATM    1  C5  UNL     1      22.224  -0.483  52.929  1.00  0.00     0.113 C 
HETATM    2  C6  UNL     1      23.677  -0.765  53.236  1.00  0.00     0.071 C 
HETATM    3  C7  UNL     1      24.375   0.386  52.613  1.00  0.00    -0.011 A 
HETATM    4  C8  UNL     1      25.666   0.917  52.723  1.00  0.00     0.049 A 
HETATM    5  C9  UNL     1      26.038   2.040  51.980  1.00  0.00    -0.011 A 
HETATM    6  C10 UNL     1      25.191   2.693  51.109  1.00  0.00     0.015 A 
HETATM    7  C11 UNL     1      25.191   3.749  50.255  1.00  0.00     0.004 A 
HETATM    8  C12 UNL     1      26.210   4.629  49.963  1.00  0.00     0.014 A 
HETATM    9  C13 UNL     1      26.001   5.632  49.057  1.00  0.00     0.001 A 
HETATM   10  C14 UNL     1      24.760   5.731  48.458  1.00  0.00     0.002 A 
HETATM   11  C15 UNL     1      23.780   4.833  48.783  1.00  0.00     0.030 A 
HETATM   12  C16 UNL     1      23.926   3.804  49.684  1.00  0.00     0.048 A 
HETATM   13  N1  UNL     1      23.118   2.837  50.130  1.00  0.00    -0.316 N 
HETATM   14  C17 UNL     1      23.929   2.168  51.006  1.00  0.00     0.076 A 
HETATM   15  C18 UNL     1      23.535   1.042  51.741  1.00  0.00     0.068 A 
HETATM   16  N2  UNL     1      22.275   0.340  51.765  1.00  0.00    -0.349 N 
HETATM   17  C19 UNL     1      21.290   0.549  50.684  1.00  0.00     0.296 C 
HETATM   18  O1  UNL     1      21.031   1.891  50.682  1.00  0.00    -0.348 OA
HETATM   19  C20 UNL     1      21.733   2.642  49.732  1.00  0.00     0.226 C 
HETATM   20  C21 UNL     1      20.967   3.958  49.652  1.00  0.00     0.064 C 
HETATM   21  C22 UNL     1      27.464   2.385  52.294  1.00  0.00     0.163 A 
HETATM   22  N3  UNL     1      27.900   1.415  53.250  1.00  0.00    -0.353 N 
HETATM   23  C23 UNL     1      26.813   0.509  53.523  1.00  0.00     0.253 A 
HETATM   24  O2  UNL     1      26.877  -0.460  54.323  1.00  0.00    -0.268 OA
HETATM   25  H23 UNL     1      28.864   1.441  53.628  1.00  0.00     0.163 HD
ENDROOT
BRANCH   1  26
HETATM   26  C4  UNL     1      21.534   0.144  54.073  1.00  0.00    -0.005 C 
HETATM   27  C3  UNL     1      20.291  -0.138  54.427  1.00  0.00    -0.029 C 
BRANCH  27  28
HETATM   28  C2  UNL     1      19.422  -1.101  53.745  1.00  0.00     0.022 C 
HETATM   29  C1  UNL     1      18.513  -0.442  52.717  1.00  0.00     0.009 C 
ENDBRANCH  27  28
ENDBRANCH   1  26
TORSDOF 2
ENDMDL
MODEL 9
REMARK VINA RESULT:      -8.8      2.754      6.051
REMARK  2 active torsions:
REMARK  status: ('A' for Active; 'I' for Inactive)
REMARK    1  A    between atoms: C2_2  and  C3_3 
REMARK    2  A    between atoms: C4_4  and  C5_5 
ROOT
HETATM    1  C5  UNL     1      25.063   5.539  49.129  1.00  0.00     0.113 C 
HETATM    2  C6  UNL     1      23.559   5.545  48.982  1.00  0.00     0.071 C 
HETATM    3  C7  UNL     1      23.128   4.516  49.959  1.00  0.00    -0.011 A 
HETATM    4  C8  UNL     1      21.900   4.182  50.543  1.00  0.00     0.049 A 
HETATM    5  C9  UNL     1      21.810   3.125  51.453  1.00  0.00    -0.011 A 
HETATM    6  C10 UNL     1      22.888   2.354  51.834  1.00  0.00     0.015 A 
HETATM    7  C11 UNL     1      23.178   1.299  52.639  1.00  0.00     0.004 A 
HETATM    8  C12 UNL     1      22.336   0.568  53.449  1.00  0.00     0.014 A 
HETATM    9  C13 UNL     1      22.836  -0.473  54.182  1.00  0.00     0.001 A 
HETATM   10  C14 UNL     1      24.183  -0.761  54.085  1.00  0.00     0.002 A 
HETATM   11  C15 UNL     1      24.977  -0.005  53.268  1.00  0.00     0.030 A 
HETATM   12  C16 UNL     1      24.538   1.054  52.506  1.00  0.00     0.048 A 
HETATM   13  N1  UNL     1      25.132   1.899  51.658  1.00  0.00    -0.316 N 
HETATM   14  C17 UNL     1      24.087   2.687  51.259  1.00  0.00     0.076 A 
HETATM   15  C18 UNL     1      24.199   3.742  50.345  1.00  0.00     0.068 A 
HETATM   16  N2  UNL     1      25.351   4.236  49.631  1.00  0.00    -0.349 N 
HETATM   17  C19 UNL     1      26.570   3.407  49.526  1.00  0.00     0.296 C 
HETATM   18  O1  UNL     1      26.945   3.147  50.814  1.00  0.00    -0.348 OA
HETATM   19  C20 UNL     1      26.547   1.905  51.322  1.00  0.00     0.226 C 
HETATM   20  C21 UNL     1      27.430   1.700  52.549  1.00  0.00     0.064 C 
HETATM   21  C22 UNL     1      20.388   2.994  51.913  1.00  0.00     0.163 A 
HETATM   22  N3  UNL     1      19.660   4.020  51.232  1.00  0.00    -0.353 N 
HETATM   23  C23 UNL     1      20.570   4.755  50.390  1.00  0.00     0.253 A 
HETATM   24  O2  UNL     1      20.238   5.723  49.658  1.00  0.00    -0.268 OA
HETATM   25  H23 UNL     1      18.643   4.136  51.385  1.00  0.00     0.163 HD
ENDROOT
BRANCH   1  26
HETATM   26  C4  UNL     1      25.532   6.633  50.003  1.00  0.00    -0.005 C 
HETATM   27  C3  UNL     1      26.421   7.539  49.633  1.00  0.00    -0.029 C 
BRANCH  27  28
HETATM   28  C2  UNL     1      27.068   7.595  48.318  1.00  0.00     0.022 C 
HETATM   29  C1  UNL     1      27.624   8.977  47.999  1.00  0.00     0.009 C 
ENDBRANCH  27  28
ENDBRANCH   1  26
TORSDOF 2
ENDMDL
