MODEL 1
REMARK VINA RESULT:      -9.1      0.000      0.000
REMARK  4 active torsions:
REMARK  status: ('A' for Active; 'I' for Inactive)
REMARK    1  A    between atoms: C1_2  and  O1_5 
REMARK    2  A    between atoms: O1_5  and  C2_6 
REMARK    3  A    between atoms: C7_12  and  N2_13 
REMARK    4  A    between atoms: N2_13  and  C8_14 
ROOT
HETATM    1  C2  UNL     1      27.566  -0.361  53.463  1.00  0.00     0.178 C 
HETATM    2  C3  UNL     1      27.291   0.938  54.134  1.00  0.00     0.007 C 
HETATM    3  C4  UNL     1      27.193   2.071  53.464  1.00  0.00    -0.009 C 
HETATM    4  C5  UNL     1      27.298   2.429  52.047  1.00  0.00     0.147 C 
HETATM    5  N1  UNL     1      26.078   3.022  51.513  1.00  0.00    -0.380 N 
HETATM    6  C6  UNL     1      24.816   2.472  51.300  1.00  0.00     0.129 A 
HETATM    7  C7  UNL     1      24.038   2.848  50.225  1.00  0.00     0.160 A 
HETATM    8  N3  UNL     1      22.823   2.337  50.005  1.00  0.00    -0.222 NA
HETATM    9  C14 UNL     1      22.296   1.425  50.822  1.00  0.00     0.238 A 
HETATM   10  N4  UNL     1      23.030   1.025  51.892  1.00  0.00    -0.215 NA
HETATM   11  C15 UNL     1      24.255   1.528  52.131  1.00  0.00     0.201 A 
HETATM   12  O2  UNL     1      24.737   0.926  53.280  1.00  0.00    -0.302 OA
HETATM   13  C16 UNL     1      25.167  -0.409  53.295  1.00  0.00     0.143 C 
HETATM   14  C17 UNL     1      26.277  -1.128  53.365  1.00  0.00     0.033 C 
HETATM   15  H6  UNL     1      26.156   4.029  51.257  1.00  0.00     0.160 HD
ENDROOT
BRANCH   7  16
HETATM   16  N2  UNL     1      24.516   3.789  49.294  1.00  0.00    -0.339 N 
HETATM   17  H7  UNL     1      24.460   3.517  48.274  1.00  0.00     0.167 HD
BRANCH  16  18
HETATM   18  C8  UNL     1      25.065   5.071  49.499  1.00  0.00     0.035 A 
HETATM   19  C9  UNL     1      24.578   6.050  50.303  1.00  0.00     0.029 A 
HETATM   20  C10 UNL     1      25.116   7.297  50.488  1.00  0.00     0.004 A 
HETATM   21  C11 UNL     1      26.274   7.614  49.794  1.00  0.00     0.019 A 
HETATM   22  C12 UNL     1      26.822   6.679  48.965  1.00  0.00     0.013 A 
HETATM   23 BR1  UNL     1      28.400   7.124  48.022  1.00  0.00    -0.051 Br
HETATM   24  C13 UNL     1      26.220   5.453  48.838  1.00  0.00     0.048 A 
ENDBRANCH  16  18
ENDBRANCH   7  16
BRANCH   1  25
HETATM   25  O1  UNL     1      28.490  -1.021  54.270  1.00  0.00    -0.284 OA
BRANCH  25  26
HETATM   26  C1  UNL     1      29.664  -1.350  53.595  1.00  0.00     0.525 C 
HETATM   27  F1  UNL     1      29.366  -2.445  52.777  1.00  0.00    -0.144 F 
HETATM   28  F2  UNL     1      30.131  -0.358  52.779  1.00  0.00    -0.144 F 
HETATM   29  F3  UNL     1      30.683  -1.734  54.418  1.00  0.00    -0.144 F 
ENDBRANCH  25  26
ENDBRANCH   1  25
TORSDOF 4
ENDMDL
MODEL 2
REMARK VINA RESULT:      -8.5      1.578      2.007
REMARK  4 active torsions:
REMARK  status: ('A' for Active; 'I' for Inactive)
REMARK    1  A    between atoms: C1_2  and  O1_5 
REMARK    2  A    between atoms: O1_5  and  C2_6 
REMARK    3  A    between atoms: C7_12  and  N2_13 
REMARK    4  A    between atoms: N2_13  and  C8_14 
ROOT
HETATM    1  C2  UNL     1      27.479  -0.260  53.527  1.00  0.00     0.178 C 
HETATM    2  C3  UNL     1      27.200   1.114  54.027  1.00  0.00     0.007 C 
HETATM    3  C4  UNL     1      26.990   2.132  53.213  1.00  0.00    -0.009 C 
HETATM    4  C5  UNL     1      26.956   2.280  51.756  1.00  0.00     0.147 C 
HETATM    5  N1  UNL     1      25.668   2.745  51.256  1.00  0.00    -0.380 N 
HETATM    6  C6  UNL     1      24.421   2.124  51.241  1.00  0.00     0.129 A 
HETATM    7  C7  UNL     1      23.536   2.311  50.199  1.00  0.00     0.160 A 
HETATM    8  N3  UNL     1      22.333   1.730  50.167  1.00  0.00    -0.222 NA
HETATM    9  C14 UNL     1      21.922   0.930  51.151  1.00  0.00     0.238 A 
HETATM   10  N4  UNL     1      22.763   0.718  52.196  1.00  0.00    -0.215 NA
HETATM   11  C15 UNL     1      23.979   1.294  52.247  1.00  0.00     0.201 A 
HETATM   12  O2  UNL     1      24.586   0.885  53.422  1.00  0.00    -0.302 OA
HETATM   13  C16 UNL     1      25.079  -0.417  53.589  1.00  0.00     0.143 C 
HETATM   14  C17 UNL     1      26.226  -1.077  53.659  1.00  0.00     0.033 C 
HETATM   15  H6  UNL     1      25.675   3.705  50.852  1.00  0.00     0.160 HD
ENDROOT
BRANCH   7  16
HETATM   16  N2  UNL     1      23.886   3.120  49.103  1.00  0.00    -0.339 N 
HETATM   17  H7  UNL     1      24.564   2.706  48.405  1.00  0.00     0.167 HD
BRANCH  16  18
HETATM   18  C8  UNL     1      23.467   4.423  48.766  1.00  0.00     0.035 A 
HETATM   19  C9  UNL     1      22.646   4.780  47.745  1.00  0.00     0.029 A 
HETATM   20  C10 UNL     1      22.253   6.052  47.422  1.00  0.00     0.004 A 
HETATM   21  C11 UNL     1      22.728   7.097  48.199  1.00  0.00     0.019 A 
HETATM   22  C12 UNL     1      23.560   6.815  49.244  1.00  0.00     0.013 A 
HETATM   23 BR1  UNL     1      24.204   8.249  50.296  1.00  0.00    -0.051 Br
HETATM   24  C13 UNL     1      23.905   5.512  49.501  1.00  0.00     0.048 A 
ENDBRANCH  16  18
ENDBRANCH   7  16
BRANCH   1  25
HETATM   25  O1  UNL     1      28.500  -0.761  54.333  1.00  0.00    -0.284 OA
BRANCH  25  26
HETATM   26  C1  UNL     1      29.573  -1.262  53.599  1.00  0.00     0.525 C 
HETATM   27  F1  UNL     1      29.926  -0.274  52.673  1.00  0.00    -0.144 F 
HETATM   28  F2  UNL     1      30.686  -1.522  54.350  1.00  0.00    -0.144 F 
HETATM   29  F3  UNL     1      29.275  -2.387  52.885  1.00  0.00    -0.144 F 
ENDBRANCH  25  26
ENDBRANCH   1  25
TORSDOF 4
ENDMDL
MODEL 3
REMARK VINA RESULT:      -8.4      3.453      5.685
REMARK  4 active torsions:
REMARK  status: ('A' for Active; 'I' for Inactive)
REMARK    1  A    between atoms: C1_2  and  O1_5 
REMARK    2  A    between atoms: O1_5  and  C2_6 
REMARK    3  A    between atoms: C7_12  and  N2_13 
REMARK    4  A    between atoms: N2_13  and  C8_14 
ROOT
HETATM    1  C2  UNL     1      27.612   0.132  54.192  1.00  0.00     0.178 C 
HETATM    2  C3  UNL     1      27.030  -0.804  53.193  1.00  0.00     0.007 C 
HETATM    3  C4  UNL     1      25.730  -1.011  53.092  1.00  0.00    -0.009 C 
HETATM    4  C5  UNL     1      24.559  -0.490  53.801  1.00  0.00     0.147 C 
HETATM    5  N1  UNL     1      23.629   0.218  52.930  1.00  0.00    -0.380 N 
HETATM    6  C6  UNL     1      23.767   1.418  52.236  1.00  0.00     0.129 A 
HETATM    7  C7  UNL     1      22.702   2.279  52.066  1.00  0.00     0.160 A 
HETATM    8  N3  UNL     1      22.811   3.432  51.400  1.00  0.00    -0.222 NA
HETATM    9  C14 UNL     1      23.968   3.816  50.861  1.00  0.00     0.238 A 
HETATM   10  N4  UNL     1      25.042   2.998  51.005  1.00  0.00    -0.215 NA
HETATM   11  C15 UNL     1      24.953   1.832  51.672  1.00  0.00     0.201 A 
HETATM   12  O2  UNL     1      26.204   1.239  51.645  1.00  0.00    -0.302 OA
HETATM   13  C16 UNL     1      27.271   1.720  52.417  1.00  0.00     0.143 C 
HETATM   14  C17 UNL     1      27.984   1.407  53.489  1.00  0.00     0.033 C 
HETATM   15  H6  UNL     1      22.711  -0.255  52.790  1.00  0.00     0.160 HD
ENDROOT
BRANCH   7  16
HETATM   16  N2  UNL     1      21.444   1.974  52.618  1.00  0.00    -0.339 N 
HETATM   17  H7  UNL     1      21.272   2.291  53.612  1.00  0.00     0.167 HD
BRANCH  16  18
HETATM   18  C8  UNL     1      20.342   1.304  52.049  1.00  0.00     0.035 A 
HETATM   19  C9  UNL     1      19.782   1.536  50.835  1.00  0.00     0.029 A 
HETATM   20  C10 UNL     1      18.704   0.884  50.296  1.00  0.00     0.004 A 
HETATM   21  C11 UNL     1      18.107  -0.117  51.047  1.00  0.00     0.019 A 
HETATM   22  C12 UNL     1      18.616  -0.406  52.280  1.00  0.00     0.013 A 
HETATM   23 BR1  UNL     1      17.792  -1.772  53.297  1.00  0.00    -0.051 Br
HETATM   24  C13 UNL     1      19.699   0.294  52.746  1.00  0.00     0.048 A 
ENDBRANCH  16  18
ENDBRANCH   7  16
BRANCH   1  25
HETATM   25  O1  UNL     1      28.734  -0.509  54.711  1.00  0.00    -0.284 OA
BRANCH  25  26
HETATM   26  C1  UNL     1      29.660  -0.860  53.730  1.00  0.00     0.525 C 
HETATM   27  F1  UNL     1      30.670  -1.588  54.369  1.00  0.00    -0.144 F 
HETATM   28  F2  UNL     1      29.151  -1.662  52.747  1.00  0.00    -0.144 F 
HETATM   29  F3  UNL     1      30.260   0.211  53.132  1.00  0.00    -0.144 F 
ENDBRANCH  25  26
ENDBRANCH   1  25
TORSDOF 4
ENDMDL
MODEL 4
REMARK VINA RESULT:      -8.4      3.871      6.336
REMARK  4 active torsions:
REMARK  status: ('A' for Active; 'I' for Inactive)
REMARK    1  A    between atoms: C1_2  and  O1_5 
REMARK    2  A    between atoms: O1_5  and  C2_6 
REMARK    3  A    between atoms: C7_12  and  N2_13 
REMARK    4  A    between atoms: N2_13  and  C8_14 
ROOT
HETATM    1  C2  UNL     1      27.300   1.115  53.031  1.00  0.00     0.178 C 
HETATM    2  C3  UNL     1      26.775  -0.003  52.201  1.00  0.00     0.007 C 
HETATM    3  C4  UNL     1      25.618  -0.586  52.453  1.00  0.00    -0.009 C 
HETATM    4  C5  UNL     1      24.581  -0.393  53.470  1.00  0.00     0.147 C 
HETATM    5  N1  UNL     1      23.285  -0.037  52.907  1.00  0.00    -0.380 N 
HETATM    6  C6  UNL     1      22.868   1.112  52.238  1.00  0.00     0.129 A 
HETATM    7  C7  UNL     1      21.592   1.613  52.391  1.00  0.00     0.160 A 
HETATM    8  N3  UNL     1      21.171   2.710  51.754  1.00  0.00    -0.222 NA
HETATM    9  C14 UNL     1      21.973   3.385  50.931  1.00  0.00     0.238 A 
HETATM   10  N4  UNL     1      23.238   2.927  50.752  1.00  0.00    -0.215 NA
HETATM   11  C15 UNL     1      23.681   1.824  51.383  1.00  0.00     0.201 A 
HETATM   12  O2  UNL     1      24.996   1.622  50.999  1.00  0.00    -0.302 OA
HETATM   13  C16 UNL     1      26.039   2.435  51.463  1.00  0.00     0.143 C 
HETATM   14  C17 UNL     1      27.074   2.403  52.290  1.00  0.00     0.033 C 
HETATM   15  H6  UNL     1      22.546  -0.764  53.010  1.00  0.00     0.160 HD
ENDROOT
BRANCH   7  16
HETATM   16  N2  UNL     1      20.679   0.983  53.256  1.00  0.00    -0.339 N 
HETATM   17  H7  UNL     1      20.814   1.150  54.291  1.00  0.00     0.167 HD
BRANCH  16  18
HETATM   18  C8  UNL     1      19.579   0.151  52.965  1.00  0.00     0.035 A 
HETATM   19  C9  UNL     1      19.148  -0.917  53.684  1.00  0.00     0.029 A 
HETATM   20  C10 UNL     1      18.082  -1.725  53.385  1.00  0.00     0.004 A 
HETATM   21  C11 UNL     1      17.355  -1.445  52.239  1.00  0.00     0.019 A 
HETATM   22  C12 UNL     1      17.729  -0.385  51.465  1.00  0.00     0.013 A 
HETATM   23 BR1  UNL     1      16.730  -0.013  49.902  1.00  0.00    -0.051 Br
HETATM   24  C13 UNL     1      18.809   0.375  51.836  1.00  0.00     0.048 A 
ENDBRANCH  16  18
ENDBRANCH   7  16
BRANCH   1  25
HETATM   25  O1  UNL     1      28.658   0.859  53.204  1.00  0.00    -0.284 OA
BRANCH  25  26
HETATM   26  C1  UNL     1      28.963   0.380  54.476  1.00  0.00     0.525 C 
HETATM   27  F1  UNL     1      29.576   1.430  55.167  1.00  0.00    -0.144 F 
HETATM   28  F2  UNL     1      27.869   0.007  55.206  1.00  0.00    -0.144 F 
HETATM   29  F3  UNL     1      29.844  -0.663  54.475  1.00  0.00    -0.144 F 
ENDBRANCH  25  26
ENDBRANCH   1  25
TORSDOF 4
ENDMDL
MODEL 5
REMARK VINA RESULT:      -8.4      5.002      7.938
REMARK  4 active torsions:
REMARK  status: ('A' for Active; 'I' for Inactive)
REMARK    1  A    between atoms: C1_2  and  O1_5 
REMARK    2  A    between atoms: O1_5  and  C2_6 
REMARK    3  A    between atoms: C7_12  and  N2_13 
REMARK    4  A    between atoms: N2_13  and  C8_14 
ROOT
HETATM    1  C2  UNL     1      28.632   8.593  49.115  1.00  0.00     0.178 C 
HETATM    2  C3  UNL     1      28.024   7.992  47.897  1.00  0.00     0.007 C 
HETATM    3  C4  UNL     1      27.896   6.687  47.743  1.00  0.00    -0.009 C 
HETATM    4  C5  UNL     1      28.243   5.526  48.566  1.00  0.00     0.147 C 
HETATM    5  N1  UNL     1      27.088   4.715  48.930  1.00  0.00    -0.380 N 
HETATM    6  C6  UNL     1      26.001   4.997  49.754  1.00  0.00     0.129 A 
HETATM    7  C7  UNL     1      25.419   4.024  50.540  1.00  0.00     0.160 A 
HETATM    8  N3  UNL     1      24.373   4.272  51.333  1.00  0.00    -0.222 NA
HETATM    9  C14 UNL     1      23.832   5.488  51.407  1.00  0.00     0.238 A 
HETATM   10  N4  UNL     1      24.375   6.476  50.651  1.00  0.00    -0.215 NA
HETATM   11  C15 UNL     1      25.428   6.247  49.845  1.00  0.00     0.201 A 
HETATM   12  O2  UNL     1      25.742   7.440  49.218  1.00  0.00    -0.302 OA
HETATM   13  C16 UNL     1      26.360   8.498  49.899  1.00  0.00     0.143 C 
HETATM   14  C17 UNL     1      27.528   9.116  49.990  1.00  0.00     0.033 C 
HETATM   15  H6  UNL     1      27.061   3.768  48.494  1.00  0.00     0.160 HD
ENDROOT
BRANCH   7  16
HETATM   16  N2  UNL     1      25.933   2.714  50.548  1.00  0.00    -0.339 N 
HETATM   17  H7  UNL     1      26.358   2.365  49.645  1.00  0.00     0.167 HD
BRANCH  16  18
HETATM   18  C8  UNL     1      25.984   1.765  51.590  1.00  0.00     0.035 A 
HETATM   19  C9  UNL     1      24.957   1.014  52.062  1.00  0.00     0.029 A 
HETATM   20  C10 UNL     1      25.017   0.101  53.083  1.00  0.00     0.004 A 
HETATM   21  C11 UNL     1      26.237  -0.092  53.712  1.00  0.00     0.019 A 
HETATM   22  C12 UNL     1      27.316   0.629  53.290  1.00  0.00     0.013 A 
HETATM   23 BR1  UNL     1      28.976   0.359  54.157  1.00  0.00    -0.051 Br
HETATM   24  C13 UNL     1      27.171   1.523  52.260  1.00  0.00     0.048 A 
ENDBRANCH  16  18
ENDBRANCH   7  16
BRANCH   1  25
HETATM   25  O1  UNL     1      29.455   9.623  48.663  1.00  0.00    -0.284 OA
BRANCH  25  26
HETATM   26  C1  UNL     1      30.751   9.544  49.168  1.00  0.00     0.525 C 
HETATM   27  F1  UNL     1      30.940   8.223  49.590  1.00  0.00    -0.144 F 
HETATM   28  F2  UNL     1      31.724   9.812  48.246  1.00  0.00    -0.144 F 
HETATM   29  F3  UNL     1      30.969  10.342  50.254  1.00  0.00    -0.144 F 
ENDBRANCH  25  26
ENDBRANCH   1  25
TORSDOF 4
ENDMDL
MODEL 6
REMARK VINA RESULT:      -7.9      6.582      8.747
REMARK  4 active torsions:
REMARK  status: ('A' for Active; 'I' for Inactive)
REMARK    1  A    between atoms: C1_2  and  O1_5 
REMARK    2  A    between atoms: O1_5  and  C2_6 
REMARK    3  A    between atoms: C7_12  and  N2_13 
REMARK    4  A    between atoms: N2_13  and  C8_14 
ROOT
HETATM    1  C2  UNL     1      32.850   7.359  47.723  1.00  0.00     0.178 C 
HETATM    2  C3  UNL     1      31.790   6.804  46.837  1.00  0.00     0.007 C 
HETATM    3  C4  UNL     1      30.641   6.356  47.306  1.00  0.00    -0.009 C 
HETATM    4  C5  UNL     1      30.061   6.248  48.647  1.00  0.00     0.147 C 
HETATM    5  N1  UNL     1      28.828   7.008  48.802  1.00  0.00    -0.380 N 
HETATM    6  C6  UNL     1      28.598   8.382  48.793  1.00  0.00     0.129 A 
HETATM    7  C7  UNL     1      27.638   8.958  49.600  1.00  0.00     0.160 A 
HETATM    8  N3  UNL     1      27.399  10.272  49.603  1.00  0.00    -0.222 NA
HETATM    9  C14 UNL     1      28.085  11.105  48.819  1.00  0.00     0.238 A 
HETATM   10  N4  UNL     1      29.040  10.579  48.010  1.00  0.00    -0.215 NA
HETATM   11  C15 UNL     1      29.296   9.258  47.992  1.00  0.00     0.201 A 
HETATM   12  O2  UNL     1      30.312   9.042  47.076  1.00  0.00    -0.302 OA
HETATM   13  C16 UNL     1      31.640   9.403  47.342  1.00  0.00     0.143 C 
HETATM   14  C17 UNL     1      32.813   8.858  47.627  1.00  0.00     0.033 C 
HETATM   15  H6  UNL     1      27.969   6.431  48.930  1.00  0.00     0.160 HD
ENDROOT
BRANCH   7  16
HETATM   16  N2  UNL     1      26.878   8.165  50.479  1.00  0.00    -0.339 N 
HETATM   17  H7  UNL     1      27.310   7.951  51.419  1.00  0.00     0.167 HD
BRANCH  16  18
HETATM   18  C8  UNL     1      25.596   7.601  50.314  1.00  0.00     0.035 A 
HETATM   19  C9  UNL     1      24.402   8.236  50.424  1.00  0.00     0.029 A 
HETATM   20  C10 UNL     1      23.162   7.675  50.270  1.00  0.00     0.004 A 
HETATM   21  C11 UNL     1      23.093   6.322  49.972  1.00  0.00     0.019 A 
HETATM   22  C12 UNL     1      24.254   5.616  49.847  1.00  0.00     0.013 A 
HETATM   23 BR1  UNL     1      24.149   3.771  49.442  1.00  0.00    -0.051 Br
HETATM   24  C13 UNL     1      25.456   6.256  50.016  1.00  0.00     0.048 A 
ENDBRANCH  16  18
ENDBRANCH   7  16
BRANCH   1  25
HETATM   25  O1  UNL     1      34.055   6.847  47.247  1.00  0.00    -0.284 OA
BRANCH  25  26
HETATM   26  C1  UNL     1      34.705   6.037  48.175  1.00  0.00     0.525 C 
HETATM   27  F1  UNL     1      33.806   5.824  49.226  1.00  0.00    -0.144 F 
HETATM   28  F2  UNL     1      35.052   4.806  47.691  1.00  0.00    -0.144 F 
HETATM   29  F3  UNL     1      35.821   6.607  48.717  1.00  0.00    -0.144 F 
ENDBRANCH  25  26
ENDBRANCH   1  25
TORSDOF 4
ENDMDL
MODEL 7
REMARK VINA RESULT:      -7.8      4.988      6.402
REMARK  4 active torsions:
REMARK  status: ('A' for Active; 'I' for Inactive)
REMARK    1  A    between atoms: C1_2  and  O1_5 
REMARK    2  A    between atoms: O1_5  and  C2_6 
REMARK    3  A    between atoms: C7_12  and  N2_13 
REMARK    4  A    between atoms: N2_13  and  C8_14 
ROOT
HETATM    1  C2  UNL     1      21.468   3.132  50.851  1.00  0.00     0.178 C 
HETATM    2  C3  UNL     1      21.416   3.904  52.122  1.00  0.00     0.007 C 
HETATM    3  C4  UNL     1      22.429   4.638  52.544  1.00  0.00    -0.009 C 
HETATM    4  C5  UNL     1      23.765   4.927  52.017  1.00  0.00     0.147 C 
HETATM    5  N1  UNL     1      23.985   6.343  51.753  1.00  0.00    -0.380 N 
HETATM    6  C6  UNL     1      23.410   7.193  50.811  1.00  0.00     0.129 A 
HETATM    7  C7  UNL     1      24.136   8.202  50.213  1.00  0.00     0.160 A 
HETATM    8  N3  UNL     1      23.603   9.031  49.311  1.00  0.00    -0.222 NA
HETATM    9  C14 UNL     1      22.327   8.922  48.936  1.00  0.00     0.238 A 
HETATM   10  N4  UNL     1      21.577   7.941  49.500  1.00  0.00    -0.215 NA
HETATM   11  C15 UNL     1      22.095   7.096  50.411  1.00  0.00     0.201 A 
HETATM   12  O2  UNL     1      21.091   6.222  50.788  1.00  0.00    -0.302 OA
HETATM   13  C16 UNL     1      20.640   5.199  49.942  1.00  0.00     0.143 C 
HETATM   14  C17 UNL     1      20.692   3.882  49.806  1.00  0.00     0.033 C 
HETATM   15  H6  UNL     1      24.679   6.804  52.379  1.00  0.00     0.160 HD
ENDROOT
BRANCH   7  16
HETATM   16  N2  UNL     1      25.496   8.383  50.525  1.00  0.00    -0.339 N 
HETATM   17  H7  UNL     1      25.715   8.777  51.480  1.00  0.00     0.167 HD
BRANCH  16  18
HETATM   18  C8  UNL     1      26.647   8.112  49.757  1.00  0.00     0.035 A 
HETATM   19  C9  UNL     1      26.860   7.038  48.954  1.00  0.00     0.029 A 
HETATM   20  C10 UNL     1      27.988   6.781  48.219  1.00  0.00     0.004 A 
HETATM   21  C11 UNL     1      29.029   7.694  48.286  1.00  0.00     0.019 A 
HETATM   22  C12 UNL     1      28.887   8.799  49.073  1.00  0.00     0.013 A 
HETATM   23 BR1  UNL     1      30.315  10.036  49.157  1.00  0.00    -0.051 Br
HETATM   24  C13 UNL     1      27.723   8.982  49.777  1.00  0.00     0.048 A 
ENDBRANCH  16  18
ENDBRANCH   7  16
BRANCH   1  25
HETATM   25  O1  UNL     1      20.884   1.897  51.129  1.00  0.00    -0.284 OA
BRANCH  25  26
HETATM   26  C1  UNL     1      21.669   0.822  50.720  1.00  0.00     0.525 C 
HETATM   27  F1  UNL     1      23.000   1.251  50.768  1.00  0.00    -0.144 F 
HETATM   28  F2  UNL     1      21.575  -0.275  51.531  1.00  0.00    -0.144 F 
HETATM   29  F3  UNL     1      21.428   0.420  49.438  1.00  0.00    -0.144 F 
ENDBRANCH  25  26
ENDBRANCH   1  25
TORSDOF 4
ENDMDL
MODEL 8
REMARK VINA RESULT:      -7.7      4.699      5.516
REMARK  4 active torsions:
REMARK  status: ('A' for Active; 'I' for Inactive)
REMARK    1  A    between atoms: C1_2  and  O1_5 
REMARK    2  A    between atoms: O1_5  and  C2_6 
REMARK    3  A    between atoms: C7_12  and  N2_13 
REMARK    4  A    between atoms: N2_13  and  C8_14 
ROOT
HETATM    1  C2  UNL     1      20.946   0.746  52.139  1.00  0.00     0.178 C 
HETATM    2  C3  UNL     1      20.184   1.999  52.395  1.00  0.00     0.007 C 
HETATM    3  C4  UNL     1      20.761   3.186  52.408  1.00  0.00    -0.009 C 
HETATM    4  C5  UNL     1      22.136   3.651  52.210  1.00  0.00     0.147 C 
HETATM    5  N1  UNL     1      22.276   4.564  51.083  1.00  0.00    -0.380 N 
HETATM    6  C6  UNL     1      22.132   4.349  49.714  1.00  0.00     0.129 A 
HETATM    7  C7  UNL     1      22.924   5.004  48.794  1.00  0.00     0.160 A 
HETATM    8  N3  UNL     1      22.799   4.816  47.477  1.00  0.00    -0.222 NA
HETATM    9  C14 UNL     1      21.893   3.973  46.979  1.00  0.00     0.238 A 
HETATM   10  N4  UNL     1      21.094   3.307  47.850  1.00  0.00    -0.215 NA
HETATM   11  C15 UNL     1      21.204   3.483  49.180  1.00  0.00     0.201 A 
HETATM   12  O2  UNL     1      20.262   2.670  49.788  1.00  0.00    -0.302 OA
HETATM   13  C16 UNL     1      20.414   1.278  49.854  1.00  0.00     0.143 C 
HETATM   14  C17 UNL     1      20.691   0.316  50.722  1.00  0.00     0.033 C 
HETATM   15  H6  UNL     1      22.512   5.546  51.340  1.00  0.00     0.160 HD
ENDROOT
BRANCH   7  16
HETATM   16  N2  UNL     1      23.924   5.897  49.222  1.00  0.00    -0.339 N 
HETATM   17  H7  UNL     1      23.639   6.621  49.937  1.00  0.00     0.167 HD
BRANCH  16  18
HETATM   18  C8  UNL     1      25.281   5.984  48.851  1.00  0.00     0.035 A 
HETATM   19  C9  UNL     1      26.253   5.066  49.084  1.00  0.00     0.029 A 
HETATM   20  C10 UNL     1      27.573   5.166  48.727  1.00  0.00     0.004 A 
HETATM   21  C11 UNL     1      27.980   6.311  48.060  1.00  0.00     0.019 A 
HETATM   22  C12 UNL     1      27.058   7.280  47.792  1.00  0.00     0.013 A 
HETATM   23 BR1  UNL     1      27.626   8.839  46.884  1.00  0.00    -0.051 Br
HETATM   24  C13 UNL     1      25.755   7.100  48.183  1.00  0.00     0.048 A 
ENDBRANCH  16  18
ENDBRANCH   7  16
BRANCH   1  25
HETATM   25  O1  UNL     1      20.461  -0.190  53.050  1.00  0.00    -0.284 OA
BRANCH  25  26
HETATM   26  C1  UNL     1      21.249  -0.292  54.195  1.00  0.00     0.525 C 
HETATM   27  F1  UNL     1      22.532   0.142  53.842  1.00  0.00    -0.144 F 
HETATM   28  F2  UNL     1      20.831   0.498  55.229  1.00  0.00    -0.144 F 
HETATM   29  F3  UNL     1      21.376  -1.568  54.664  1.00  0.00    -0.144 F 
ENDBRANCH  25  26
ENDBRANCH   1  25
TORSDOF 4
ENDMDL
MODEL 9
REMARK VINA RESULT:      -7.7      4.443      5.833
REMARK  4 active torsions:
REMARK  status: ('A' for Active; 'I' for Inactive)
REMARK    1  A    between atoms: C1_2  and  O1_5 
REMARK    2  A    between atoms: O1_5  and  C2_6 
REMARK    3  A    between atoms: C7_12  and  N2_13 
REMARK    4  A    between atoms: N2_13  and  C8_14 
ROOT
HETATM    1  C2  UNL     1      22.750   0.411  53.066  1.00  0.00     0.178 C 
HETATM    2  C3  UNL     1      22.009   0.456  51.776  1.00  0.00     0.007 C 
HETATM    3  C4  UNL     1      21.259   1.484  51.429  1.00  0.00    -0.009 C 
HETATM    4  C5  UNL     1      20.922   2.760  52.066  1.00  0.00     0.147 C 
HETATM    5  N1  UNL     1      21.339   3.919  51.286  1.00  0.00    -0.380 N 
HETATM    6  C6  UNL     1      22.610   4.392  50.968  1.00  0.00     0.129 A 
HETATM    7  C7  UNL     1      22.875   5.743  50.876  1.00  0.00     0.160 A 
HETATM    8  N3  UNL     1      24.085   6.217  50.568  1.00  0.00    -0.222 NA
HETATM    9  C14 UNL     1      25.112   5.400  50.332  1.00  0.00     0.238 A 
HETATM   10  N4  UNL     1      24.895   4.062  50.412  1.00  0.00    -0.215 NA
HETATM   11  C15 UNL     1      23.683   3.564  50.721  1.00  0.00     0.201 A 
HETATM   12  O2  UNL     1      23.788   2.184  50.726  1.00  0.00    -0.302 OA
HETATM   13  C16 UNL     1      24.450   1.492  51.750  1.00  0.00     0.143 C 
HETATM   14  C17 UNL     1      24.196   0.717  52.794  1.00  0.00     0.033 C 
HETATM   15  H6  UNL     1      20.560   4.484  50.889  1.00  0.00     0.160 HD
ENDROOT
BRANCH   7  16
HETATM   16  N2  UNL     1      21.862   6.686  51.130  1.00  0.00    -0.339 N 
HETATM   17  H7  UNL     1      21.714   6.963  52.139  1.00  0.00     0.167 HD
BRANCH  16  18
HETATM   18  C8  UNL     1      20.993   7.347  50.238  1.00  0.00     0.035 A 
HETATM   19  C9  UNL     1      19.974   6.795  49.530  1.00  0.00     0.029 A 
HETATM   20  C10 UNL     1      19.142   7.446  48.658  1.00  0.00     0.004 A 
HETATM   21  C11 UNL     1      19.339   8.805  48.461  1.00  0.00     0.019 A 
HETATM   22  C12 UNL     1      20.346   9.428  49.140  1.00  0.00     0.013 A 
HETATM   23 BR1  UNL     1      20.607  11.281  48.863  1.00  0.00    -0.051 Br
HETATM   24  C13 UNL     1      21.135   8.702  49.996  1.00  0.00     0.048 A 
ENDBRANCH  16  18
ENDBRANCH   7  16
BRANCH   1  25
HETATM   25  O1  UNL     1      22.587  -0.883  53.557  1.00  0.00    -0.284 OA
BRANCH  25  26
HETATM   26  C1  UNL     1      21.849  -0.926  54.737  1.00  0.00     0.525 C 
HETATM   27  F1  UNL     1      22.750  -1.216  55.767  1.00  0.00    -0.144 F 
HETATM   28  F2  UNL     1      21.243   0.257  55.057  1.00  0.00    -0.144 F 
HETATM   29  F3  UNL     1      20.897  -1.905  54.755  1.00  0.00    -0.144 F 
ENDBRANCH  25  26
ENDBRANCH   1  25
TORSDOF 4
ENDMDL
