MODEL 1
REMARK VINA RESULT:      -7.1      0.000      0.000
REMARK  9 active torsions:
REMARK  status: ('A' for Active; 'I' for Inactive)
REMARK    1  A    between atoms: O1_2  and  C2_3 
REMARK    2  A    between atoms: C2_3  and  C3_4 
REMARK    3  A    between atoms: C4_5  and  O2_6 
REMARK    4  A    between atoms: O2_6  and  C5_7 
REMARK    5  A    between atoms: C5_7  and  O3_8 
REMARK    6  A    between atoms: C8_13  and  N3_14 
REMARK    7  A    between atoms: N3_14  and  C9_15 
REMARK    8  A    between atoms: C11_17  and  O4_18 
REMARK    9  A    between atoms: C14_21  and  O5_22 
ROOT
HETATM    1  C3  UNL     1      26.206   0.165  53.031  1.00  0.00     0.018 A 
HETATM    2  C4  UNL     1      26.809  -0.285  54.119  1.00  0.00     0.110 A 
HETATM    3  C6  UNL     1      25.498  -0.666  54.623  1.00  0.00     0.107 A 
HETATM    4  N1  UNL     1      24.791  -1.225  55.639  1.00  0.00    -0.238 NA
HETATM    5  C7  UNL     1      23.455  -1.341  55.579  1.00  0.00     0.236 A 
HETATM    6  N2  UNL     1      22.801  -0.897  54.493  1.00  0.00    -0.223 NA
HETATM    7  C8  UNL     1      23.475  -0.339  53.474  1.00  0.00     0.142 A 
HETATM    8  C17 UNL     1      24.858  -0.189  53.471  1.00  0.00     0.053 A 
ENDROOT
BRANCH   7   9
HETATM    9  N3  UNL     1      22.901   0.203  52.289  1.00  0.00    -0.340 N 
HETATM   10  H10 UNL     1      22.841  -0.350  51.415  1.00  0.00     0.167 HD
BRANCH   9  11
HETATM   11  C9  UNL     1      22.396   1.539  52.294  1.00  0.00     0.038 A 
HETATM   12  C10 UNL     1      23.200   2.658  52.252  1.00  0.00     0.066 A 
HETATM   13  C11 UNL     1      22.769   3.973  52.238  1.00  0.00     0.073 A 
HETATM   14  C13 UNL     1      21.385   4.174  52.267  1.00  0.00     0.073 A 
HETATM   15  C14 UNL     1      20.551   3.073  52.308  1.00  0.00     0.073 A 
HETATM   16  C16 UNL     1      21.053   1.792  52.322  1.00  0.00     0.066 A 
BRANCH  13  17
HETATM   17  O4  UNL     1      23.633   5.052  52.201  1.00  0.00    -0.356 OA
HETATM   18  C12 UNL     1      23.821   5.792  51.015  1.00  0.00     0.210 C 
ENDBRANCH  13  17
BRANCH  15  19
HETATM   19  O5  UNL     1      19.216   3.447  52.328  1.00  0.00    -0.356 OA
HETATM   20  C15 UNL     1      18.545   3.844  51.176  1.00  0.00     0.210 C 
ENDBRANCH  15  19
ENDBRANCH   9  11
ENDBRANCH   7   9
BRANCH   1  21
HETATM   21  C2  UNL     1      26.587   0.811  51.747  1.00  0.00     0.209 C 
BRANCH  21  22
HETATM   22  O1  UNL     1      26.979   2.119  52.055  1.00  0.00    -0.391 OA
HETATM   23  C1  UNL     1      26.557   2.906  50.959  1.00  0.00     0.201 C 
ENDBRANCH  21  22
ENDBRANCH   1  21
BRANCH   2  24
HETATM   24  O2  UNL     1      28.087  -0.403  54.660  1.00  0.00    -0.323 OA
BRANCH  24  25
HETATM   25  C5  UNL     1      29.140   0.461  54.261  1.00  0.00     0.341 C 
BRANCH  25  26
HETATM   26  O3  UNL     1      28.773   1.753  54.625  1.00  0.00    -0.377 OA
HETATM   27  H8  UNL     1      27.827   1.942  54.329  1.00  0.00     0.212 HD
ENDBRANCH  25  26
ENDBRANCH  24  25
ENDBRANCH   2  24
TORSDOF 9
ENDMDL
MODEL 2
REMARK VINA RESULT:      -7.1      0.410      2.333
REMARK  9 active torsions:
REMARK  status: ('A' for Active; 'I' for Inactive)
REMARK    1  A    between atoms: O1_2  and  C2_3 
REMARK    2  A    between atoms: C2_3  and  C3_4 
REMARK    3  A    between atoms: C4_5  and  O2_6 
REMARK    4  A    between atoms: O2_6  and  C5_7 
REMARK    5  A    between atoms: C5_7  and  O3_8 
REMARK    6  A    between atoms: C8_13  and  N3_14 
REMARK    7  A    between atoms: N3_14  and  C9_15 
REMARK    8  A    between atoms: C11_17  and  O4_18 
REMARK    9  A    between atoms: C14_21  and  O5_22 
ROOT
HETATM    1  C3  UNL     1      26.234   0.131  52.959  1.00  0.00     0.018 A 
HETATM    2  C4  UNL     1      26.854  -0.298  54.045  1.00  0.00     0.110 A 
HETATM    3  C6  UNL     1      25.550  -0.661  54.581  1.00  0.00     0.107 A 
HETATM    4  N1  UNL     1      24.859  -1.193  55.621  1.00  0.00    -0.238 NA
HETATM    5  C7  UNL     1      23.521  -1.304  55.587  1.00  0.00     0.236 A 
HETATM    6  N2  UNL     1      22.850  -0.880  54.504  1.00  0.00    -0.223 NA
HETATM    7  C8  UNL     1      23.509  -0.348  53.460  1.00  0.00     0.142 A 
HETATM    8  C17 UNL     1      24.892  -0.206  53.430  1.00  0.00     0.053 A 
ENDROOT
BRANCH   7   9
HETATM    9  N3  UNL     1      22.916   0.171  52.274  1.00  0.00    -0.340 N 
HETATM   10  H10 UNL     1      22.839  -0.400  51.414  1.00  0.00     0.167 HD
BRANCH   9  11
HETATM   11  C9  UNL     1      22.417   1.509  52.259  1.00  0.00     0.038 A 
HETATM   12  C10 UNL     1      21.075   1.822  52.289  1.00  0.00     0.066 A 
HETATM   13  C11 UNL     1      20.533   3.095  52.292  1.00  0.00     0.073 A 
HETATM   14  C13 UNL     1      21.443   4.158  52.264  1.00  0.00     0.073 A 
HETATM   15  C14 UNL     1      22.796   3.878  52.235  1.00  0.00     0.073 A 
HETATM   16  C16 UNL     1      23.261   2.583  52.231  1.00  0.00     0.066 A 
BRANCH  13  17
HETATM   17  O4  UNL     1      19.172   3.339  52.318  1.00  0.00    -0.356 OA
HETATM   18  C12 UNL     1      18.505   3.860  51.190  1.00  0.00     0.210 C 
ENDBRANCH  13  17
BRANCH  15  19
HETATM   19  O5  UNL     1      23.554   5.038  52.213  1.00  0.00    -0.356 OA
HETATM   20  C15 UNL     1      24.084   5.551  51.034  1.00  0.00     0.210 C 
ENDBRANCH  15  19
ENDBRANCH   9  11
ENDBRANCH   7   9
BRANCH   1  21
HETATM   21  C2  UNL     1      26.596   0.747  51.654  1.00  0.00     0.209 C 
BRANCH  21  22
HETATM   22  O1  UNL     1      27.234   1.958  51.944  1.00  0.00    -0.391 OA
HETATM   23  C1  UNL     1      26.706   2.891  51.021  1.00  0.00     0.201 C 
ENDBRANCH  21  22
ENDBRANCH   1  21
BRANCH   2  24
HETATM   24  O2  UNL     1      28.141  -0.411  54.566  1.00  0.00    -0.323 OA
BRANCH  24  25
HETATM   25  C5  UNL     1      29.281  -0.424  53.721  1.00  0.00     0.341 C 
BRANCH  25  26
HETATM   26  O3  UNL     1      29.659   0.901  53.521  1.00  0.00    -0.377 OA
HETATM   27  H8  UNL     1      29.201   1.273  52.703  1.00  0.00     0.212 HD
ENDBRANCH  25  26
ENDBRANCH  24  25
ENDBRANCH   2  24
TORSDOF 9
ENDMDL
MODEL 3
REMARK VINA RESULT:      -6.8      2.297      3.393
REMARK  9 active torsions:
REMARK  status: ('A' for Active; 'I' for Inactive)
REMARK    1  A    between atoms: O1_2  and  C2_3 
REMARK    2  A    between atoms: C2_3  and  C3_4 
REMARK    3  A    between atoms: C4_5  and  O2_6 
REMARK    4  A    between atoms: O2_6  and  C5_7 
REMARK    5  A    between atoms: C5_7  and  O3_8 
REMARK    6  A    between atoms: C8_13  and  N3_14 
REMARK    7  A    between atoms: N3_14  and  C9_15 
REMARK    8  A    between atoms: C11_17  and  O4_18 
REMARK    9  A    between atoms: C14_21  and  O5_22 
ROOT
HETATM    1  C3  UNL     1      26.855   1.079  53.172  1.00  0.00     0.018 A 
HETATM    2  C4  UNL     1      26.771  -0.219  53.408  1.00  0.00     0.110 A 
HETATM    3  C6  UNL     1      25.323  -0.075  53.383  1.00  0.00     0.107 A 
HETATM    4  N1  UNL     1      24.119  -0.693  53.495  1.00  0.00    -0.238 NA
HETATM    5  C7  UNL     1      22.970  -0.010  53.371  1.00  0.00     0.236 A 
HETATM    6  N2  UNL     1      23.008   1.311  53.131  1.00  0.00    -0.223 NA
HETATM    7  C8  UNL     1      24.186   1.948  53.017  1.00  0.00     0.142 A 
HETATM    8  C17 UNL     1      25.412   1.301  53.132  1.00  0.00     0.053 A 
ENDROOT
BRANCH   7   9
HETATM    9  N3  UNL     1      24.364   3.344  52.802  1.00  0.00    -0.340 N 
HETATM   10  H10 UNL     1      24.461   4.005  53.593  1.00  0.00     0.167 HD
BRANCH   9  11
HETATM   11  C9  UNL     1      24.407   3.855  51.469  1.00  0.00     0.038 A 
HETATM   12  C10 UNL     1      25.571   3.992  50.742  1.00  0.00     0.066 A 
HETATM   13  C11 UNL     1      25.673   4.465  49.446  1.00  0.00     0.073 A 
HETATM   14  C13 UNL     1      24.476   4.834  48.822  1.00  0.00     0.073 A 
HETATM   15  C14 UNL     1      23.292   4.707  49.523  1.00  0.00     0.073 A 
HETATM   16  C16 UNL     1      23.268   4.231  50.814  1.00  0.00     0.066 A 
BRANCH  13  17
HETATM   17  O4  UNL     1      26.877   4.581  48.776  1.00  0.00    -0.356 OA
HETATM   18  C12 UNL     1      27.430   5.847  48.489  1.00  0.00     0.210 C 
ENDBRANCH  13  17
BRANCH  15  19
HETATM   19  O5  UNL     1      22.206   5.110  48.762  1.00  0.00    -0.356 OA
HETATM   20  C15 UNL     1      20.899   4.992  49.222  1.00  0.00     0.210 C 
ENDBRANCH  15  19
ENDBRANCH   9  11
ENDBRANCH   7   9
BRANCH   1  21
HETATM   21  C2  UNL     1      27.923   2.097  52.983  1.00  0.00     0.209 C 
BRANCH  21  22
HETATM   22  O1  UNL     1      28.247   2.582  54.256  1.00  0.00    -0.391 OA
HETATM   23  C1  UNL     1      29.477   1.970  54.588  1.00  0.00     0.201 C 
ENDBRANCH  21  22
ENDBRANCH   1  21
BRANCH   2  24
HETATM   24  O2  UNL     1      27.596  -1.324  53.609  1.00  0.00    -0.323 OA
BRANCH  24  25
HETATM   25  C5  UNL     1      27.568  -2.436  52.729  1.00  0.00     0.341 C 
BRANCH  25  26
HETATM   26  O3  UNL     1      28.448  -3.387  53.239  1.00  0.00    -0.377 OA
HETATM   27  H8  UNL     1      29.390  -3.025  53.233  1.00  0.00     0.212 HD
ENDBRANCH  25  26
ENDBRANCH  24  25
ENDBRANCH   2  24
TORSDOF 9
ENDMDL
MODEL 4
REMARK VINA RESULT:      -6.8      2.750      4.455
REMARK  9 active torsions:
REMARK  status: ('A' for Active; 'I' for Inactive)
REMARK    1  A    between atoms: O1_2  and  C2_3 
REMARK    2  A    between atoms: C2_3  and  C3_4 
REMARK    3  A    between atoms: C4_5  and  O2_6 
REMARK    4  A    between atoms: O2_6  and  C5_7 
REMARK    5  A    between atoms: C5_7  and  O3_8 
REMARK    6  A    between atoms: C8_13  and  N3_14 
REMARK    7  A    between atoms: N3_14  and  C9_15 
REMARK    8  A    between atoms: C11_17  and  O4_18 
REMARK    9  A    between atoms: C14_21  and  O5_22 
ROOT
HETATM    1  C3  UNL     1      25.329  -0.319  53.773  1.00  0.00     0.018 A 
HETATM    2  C4  UNL     1      26.589  -0.547  53.446  1.00  0.00     0.110 A 
HETATM    3  C6  UNL     1      26.543   0.665  52.641  1.00  0.00     0.107 A 
HETATM    4  N1  UNL     1      27.218   1.505  51.815  1.00  0.00    -0.238 NA
HETATM    5  C7  UNL     1      26.632   2.597  51.299  1.00  0.00     0.236 A 
HETATM    6  N2  UNL     1      25.351   2.867  51.604  1.00  0.00    -0.223 NA
HETATM    7  C8  UNL     1      24.660   2.051  52.419  1.00  0.00     0.142 A 
HETATM    8  C17 UNL     1      25.207   0.907  52.988  1.00  0.00     0.053 A 
ENDROOT
BRANCH   7   9
HETATM    9  N3  UNL     1      23.294   2.203  52.789  1.00  0.00    -0.340 N 
HETATM   10  H10 UNL     1      23.022   2.649  53.683  1.00  0.00     0.167 HD
BRANCH   9  11
HETATM   11  C9  UNL     1      22.266   1.731  51.916  1.00  0.00     0.038 A 
HETATM   12  C10 UNL     1      21.007   1.373  52.346  1.00  0.00     0.066 A 
HETATM   13  C11 UNL     1      19.968   0.925  51.548  1.00  0.00     0.073 A 
HETATM   14  C13 UNL     1      20.233   0.831  50.177  1.00  0.00     0.073 A 
HETATM   15  C14 UNL     1      21.486   1.185  49.714  1.00  0.00     0.073 A 
HETATM   16  C16 UNL     1      22.472   1.620  50.570  1.00  0.00     0.066 A 
BRANCH  13  17
HETATM   17  O4  UNL     1      18.727   0.576  52.046  1.00  0.00    -0.356 OA
HETATM   18  C12 UNL     1      17.856  -0.256  51.313  1.00  0.00     0.210 C 
ENDBRANCH  13  17
BRANCH  15  19
HETATM   19  O5  UNL     1      21.579   1.039  48.339  1.00  0.00    -0.356 OA
HETATM   20  C15 UNL     1      22.332   1.908  47.555  1.00  0.00     0.210 C 
ENDBRANCH  15  19
ENDBRANCH   9  11
ENDBRANCH   7   9
BRANCH   1  21
HETATM   21  C2  UNL     1      24.276  -0.955  54.610  1.00  0.00     0.209 C 
BRANCH  21  22
HETATM   22  O1  UNL     1      23.091  -0.914  53.866  1.00  0.00    -0.391 OA
HETATM   23  C1  UNL     1      22.061  -1.226  54.782  1.00  0.00     0.201 C 
ENDBRANCH  21  22
ENDBRANCH   1  21
BRANCH   2  24
HETATM   24  O2  UNL     1      27.604  -1.471  53.684  1.00  0.00    -0.323 OA
BRANCH  24  25
HETATM   25  C5  UNL     1      27.886  -2.512  52.763  1.00  0.00     0.341 C 
BRANCH  25  26
HETATM   26  O3  UNL     1      28.622  -3.477  53.445  1.00  0.00    -0.377 OA
HETATM   27  H8  UNL     1      29.589  -3.443  53.157  1.00  0.00     0.212 HD
ENDBRANCH  25  26
ENDBRANCH  24  25
ENDBRANCH   2  24
TORSDOF 9
ENDMDL
MODEL 5
REMARK VINA RESULT:      -6.7      2.435      3.843
REMARK  9 active torsions:
REMARK  status: ('A' for Active; 'I' for Inactive)
REMARK    1  A    between atoms: O1_2  and  C2_3 
REMARK    2  A    between atoms: C2_3  and  C3_4 
REMARK    3  A    between atoms: C4_5  and  O2_6 
REMARK    4  A    between atoms: O2_6  and  C5_7 
REMARK    5  A    between atoms: C5_7  and  O3_8 
REMARK    6  A    between atoms: C8_13  and  N3_14 
REMARK    7  A    between atoms: N3_14  and  C9_15 
REMARK    8  A    between atoms: C11_17  and  O4_18 
REMARK    9  A    between atoms: C14_21  and  O5_22 
ROOT
HETATM    1  C3  UNL     1      25.840   0.794  53.070  1.00  0.00     0.018 A 
HETATM    2  C4  UNL     1      25.856  -0.497  53.354  1.00  0.00     0.110 A 
HETATM    3  C6  UNL     1      24.403  -0.450  53.406  1.00  0.00     0.107 A 
HETATM    4  N1  UNL     1      23.251  -1.140  53.607  1.00  0.00    -0.238 NA
HETATM    5  C7  UNL     1      22.053  -0.539  53.525  1.00  0.00     0.236 A 
HETATM    6  N2  UNL     1      21.989   0.772  53.238  1.00  0.00    -0.223 NA
HETATM    7  C8  UNL     1      23.114   1.479  53.036  1.00  0.00     0.142 A 
HETATM    8  C17 UNL     1      24.385   0.919  53.104  1.00  0.00     0.053 A 
ENDROOT
BRANCH   7   9
HETATM    9  N3  UNL     1      23.185   2.875  52.764  1.00  0.00    -0.340 N 
HETATM   10  H10 UNL     1      22.971   3.580  53.492  1.00  0.00     0.167 HD
BRANCH   9  11
HETATM   11  C9  UNL     1      23.556   3.324  51.460  1.00  0.00     0.038 A 
HETATM   12  C10 UNL     1      23.033   2.802  50.296  1.00  0.00     0.066 A 
HETATM   13  C11 UNL     1      23.341   3.206  49.009  1.00  0.00     0.073 A 
HETATM   14  C13 UNL     1      24.270   4.245  48.889  1.00  0.00     0.073 A 
HETATM   15  C14 UNL     1      24.812   4.792  50.037  1.00  0.00     0.073 A 
HETATM   16  C16 UNL     1      24.459   4.335  51.286  1.00  0.00     0.066 A 
BRANCH  13  17
HETATM   17  O4  UNL     1      22.782   2.633  47.882  1.00  0.00    -0.356 OA
HETATM   18  C12 UNL     1      21.864   3.347  47.083  1.00  0.00     0.210 C 
ENDBRANCH  13  17
BRANCH  15  19
HETATM   19  O5  UNL     1      25.707   5.808  49.742  1.00  0.00    -0.356 OA
HETATM   20  C15 UNL     1      26.704   5.657  48.783  1.00  0.00     0.210 C 
ENDBRANCH  15  19
ENDBRANCH   9  11
ENDBRANCH   7   9
BRANCH   1  21
HETATM   21  C2  UNL     1      26.825   1.872  52.787  1.00  0.00     0.209 C 
BRANCH  21  22
HETATM   22  O1  UNL     1      27.394   2.231  54.014  1.00  0.00    -0.391 OA
HETATM   23  C1  UNL     1      28.765   1.906  53.902  1.00  0.00     0.201 C 
ENDBRANCH  21  22
ENDBRANCH   1  21
BRANCH   2  24
HETATM   24  O2  UNL     1      26.763  -1.537  53.546  1.00  0.00    -0.323 OA
BRANCH  24  25
HETATM   25  C5  UNL     1      27.195  -2.349  52.465  1.00  0.00     0.341 C 
BRANCH  25  26
HETATM   26  O3  UNL     1      28.206  -3.174  52.949  1.00  0.00    -0.377 OA
HETATM   27  H8  UNL     1      28.462  -2.897  53.885  1.00  0.00     0.212 HD
ENDBRANCH  25  26
ENDBRANCH  24  25
ENDBRANCH   2  24
TORSDOF 9
ENDMDL
MODEL 6
REMARK VINA RESULT:      -6.7      2.749      3.968
REMARK  9 active torsions:
REMARK  status: ('A' for Active; 'I' for Inactive)
REMARK    1  A    between atoms: O1_2  and  C2_3 
REMARK    2  A    between atoms: C2_3  and  C3_4 
REMARK    3  A    between atoms: C4_5  and  O2_6 
REMARK    4  A    between atoms: O2_6  and  C5_7 
REMARK    5  A    between atoms: C5_7  and  O3_8 
REMARK    6  A    between atoms: C8_13  and  N3_14 
REMARK    7  A    between atoms: N3_14  and  C9_15 
REMARK    8  A    between atoms: C11_17  and  O4_18 
REMARK    9  A    between atoms: C14_21  and  O5_22 
ROOT
HETATM    1  C3  UNL     1      25.507  -0.274  53.916  1.00  0.00     0.018 A 
HETATM    2  C4  UNL     1      26.775  -0.459  53.591  1.00  0.00     0.110 A 
HETATM    3  C6  UNL     1      26.663   0.696  52.712  1.00  0.00     0.107 A 
HETATM    4  N1  UNL     1      27.290   1.514  51.829  1.00  0.00    -0.238 NA
HETATM    5  C7  UNL     1      26.646   2.542  51.252  1.00  0.00     0.236 A 
HETATM    6  N2  UNL     1      25.357   2.767  51.551  1.00  0.00    -0.223 NA
HETATM    7  C8  UNL     1      24.712   1.971  52.422  1.00  0.00     0.142 A 
HETATM    8  C17 UNL     1      25.319   0.893  53.057  1.00  0.00     0.053 A 
ENDROOT
BRANCH   7   9
HETATM    9  N3  UNL     1      23.343   2.078  52.796  1.00  0.00    -0.340 N 
HETATM   10  H10 UNL     1      23.059   2.502  53.698  1.00  0.00     0.167 HD
BRANCH   9  11
HETATM   11  C9  UNL     1      22.328   1.591  51.916  1.00  0.00     0.038 A 
HETATM   12  C10 UNL     1      22.471   1.533  50.546  1.00  0.00     0.066 A 
HETATM   13  C11 UNL     1      21.533   1.058  49.647  1.00  0.00     0.073 A 
HETATM   14  C13 UNL     1      20.330   0.594  50.190  1.00  0.00     0.073 A 
HETATM   15  C14 UNL     1      20.156   0.638  51.560  1.00  0.00     0.073 A 
HETATM   16  C16 UNL     1      21.135   1.127  52.394  1.00  0.00     0.066 A 
BRANCH  13  17
HETATM   17  O4  UNL     1      21.739   1.032  48.280  1.00  0.00    -0.356 OA
HETATM   18  C12 UNL     1      22.412   2.086  47.627  1.00  0.00     0.210 C 
ENDBRANCH  13  17
BRANCH  15  19
HETATM   19  O5  UNL     1      18.917   0.139  51.931  1.00  0.00    -0.356 OA
HETATM   20  C15 UNL     1      17.908  -0.094  51.002  1.00  0.00     0.210 C 
ENDBRANCH  15  19
ENDBRANCH   9  11
ENDBRANCH   7   9
BRANCH   1  21
HETATM   21  C2  UNL     1      24.493  -0.906  54.801  1.00  0.00     0.209 C 
BRANCH  21  22
HETATM   22  O1  UNL     1      23.256  -0.768  54.160  1.00  0.00    -0.391 OA
HETATM   23  C1  UNL     1      22.327  -1.439  54.987  1.00  0.00     0.201 C 
ENDBRANCH  21  22
ENDBRANCH   1  21
BRANCH   2  24
HETATM   24  O2  UNL     1      27.837  -1.315  53.876  1.00  0.00    -0.323 OA
BRANCH  24  25
HETATM   25  C5  UNL     1      28.596  -1.921  52.842  1.00  0.00     0.341 C 
BRANCH  25  26
HETATM   26  O3  UNL     1      28.430  -3.298  52.962  1.00  0.00    -0.377 OA
HETATM   27  H8  UNL     1      27.454  -3.538  52.873  1.00  0.00     0.212 HD
ENDBRANCH  25  26
ENDBRANCH  24  25
ENDBRANCH   2  24
TORSDOF 9
ENDMDL
MODEL 7
REMARK VINA RESULT:      -6.6      2.732      4.487
REMARK  9 active torsions:
REMARK  status: ('A' for Active; 'I' for Inactive)
REMARK    1  A    between atoms: O1_2  and  C2_3 
REMARK    2  A    between atoms: C2_3  and  C3_4 
REMARK    3  A    between atoms: C4_5  and  O2_6 
REMARK    4  A    between atoms: O2_6  and  C5_7 
REMARK    5  A    between atoms: C5_7  and  O3_8 
REMARK    6  A    between atoms: C8_13  and  N3_14 
REMARK    7  A    between atoms: N3_14  and  C9_15 
REMARK    8  A    between atoms: C11_17  and  O4_18 
REMARK    9  A    between atoms: C14_21  and  O5_22 
ROOT
HETATM    1  C3  UNL     1      24.867   1.210  52.922  1.00  0.00     0.018 A 
HETATM    2  C4  UNL     1      25.538   2.216  53.456  1.00  0.00     0.110 A 
HETATM    3  C6  UNL     1      24.451   3.091  53.043  1.00  0.00     0.107 A 
HETATM    4  N1  UNL     1      23.960   4.356  53.016  1.00  0.00    -0.238 NA
HETATM    5  C7  UNL     1      22.777   4.635  52.446  1.00  0.00     0.236 A 
HETATM    6  N2  UNL     1      22.061   3.644  51.890  1.00  0.00    -0.223 NA
HETATM    7  C8  UNL     1      22.524   2.382  51.902  1.00  0.00     0.142 A 
HETATM    8  C17 UNL     1      23.738   2.025  52.477  1.00  0.00     0.053 A 
ENDROOT
BRANCH   7   9
HETATM    9  N3  UNL     1      21.883   1.252  51.318  1.00  0.00    -0.340 N 
HETATM   10  H10 UNL     1      21.989   1.031  50.312  1.00  0.00     0.167 HD
BRANCH   9  11
HETATM   11  C9  UNL     1      21.073   0.400  52.128  1.00  0.00     0.038 A 
HETATM   12  C10 UNL     1      21.562  -0.341  53.183  1.00  0.00     0.066 A 
HETATM   13  C11 UNL     1      20.826  -1.169  54.011  1.00  0.00     0.073 A 
HETATM   14  C13 UNL     1      19.454  -1.254  53.745  1.00  0.00     0.073 A 
HETATM   15  C14 UNL     1      18.932  -0.523  52.695  1.00  0.00     0.073 A 
HETATM   16  C16 UNL     1      19.729   0.280  51.912  1.00  0.00     0.066 A 
BRANCH  13  17
HETATM   17  O4  UNL     1      21.383  -1.889  55.051  1.00  0.00    -0.356 OA
HETATM   18  C12 UNL     1      22.722  -1.684  55.442  1.00  0.00     0.210 C 
ENDBRANCH  13  17
BRANCH  15  19
HETATM   19  O5  UNL     1      17.565  -0.716  52.573  1.00  0.00    -0.356 OA
HETATM   20  C15 UNL     1      16.791   0.028  51.688  1.00  0.00     0.210 C 
ENDBRANCH  15  19
ENDBRANCH   9  11
ENDBRANCH   7   9
BRANCH   1  21
HETATM   21  C2  UNL     1      25.034  -0.257  52.748  1.00  0.00     0.209 C 
BRANCH  21  22
HETATM   22  O1  UNL     1      26.030  -0.659  53.646  1.00  0.00    -0.391 OA
HETATM   23  C1  UNL     1      27.030  -1.266  52.852  1.00  0.00     0.201 C 
ENDBRANCH  21  22
ENDBRANCH   1  21
BRANCH   2  24
HETATM   24  O2  UNL     1      26.733   2.466  54.127  1.00  0.00    -0.323 OA
BRANCH  24  25
HETATM   25  C5  UNL     1      27.988   2.297  53.488  1.00  0.00     0.341 C 
BRANCH  25  26
HETATM   26  O3  UNL     1      27.864   2.801  52.197  1.00  0.00    -0.377 OA
HETATM   27  H8  UNL     1      28.732   2.688  51.695  1.00  0.00     0.212 HD
ENDBRANCH  25  26
ENDBRANCH  24  25
ENDBRANCH   2  24
TORSDOF 9
ENDMDL
MODEL 8
REMARK VINA RESULT:      -6.6      2.315      3.157
REMARK  9 active torsions:
REMARK  status: ('A' for Active; 'I' for Inactive)
REMARK    1  A    between atoms: O1_2  and  C2_3 
REMARK    2  A    between atoms: C2_3  and  C3_4 
REMARK    3  A    between atoms: C4_5  and  O2_6 
REMARK    4  A    between atoms: O2_6  and  C5_7 
REMARK    5  A    between atoms: C5_7  and  O3_8 
REMARK    6  A    between atoms: C8_13  and  N3_14 
REMARK    7  A    between atoms: N3_14  and  C9_15 
REMARK    8  A    between atoms: C11_17  and  O4_18 
REMARK    9  A    between atoms: C14_21  and  O5_22 
ROOT
HETATM    1  C3  UNL     1      26.523   0.999  53.049  1.00  0.00     0.018 A 
HETATM    2  C4  UNL     1      26.460  -0.299  53.292  1.00  0.00     0.110 A 
HETATM    3  C6  UNL     1      25.011  -0.167  53.331  1.00  0.00     0.107 A 
HETATM    4  N1  UNL     1      23.819  -0.794  53.498  1.00  0.00    -0.238 NA
HETATM    5  C7  UNL     1      22.659  -0.122  53.424  1.00  0.00     0.236 A 
HETATM    6  N2  UNL     1      22.675   1.199  53.181  1.00  0.00    -0.223 NA
HETATM    7  C8  UNL     1      23.842   1.845  53.012  1.00  0.00     0.142 A 
HETATM    8  C17 UNL     1      25.077   1.209  53.074  1.00  0.00     0.053 A 
ENDROOT
BRANCH   7   9
HETATM    9  N3  UNL     1      23.998   3.242  52.786  1.00  0.00    -0.340 N 
HETATM   10  H10 UNL     1      24.573   3.831  53.415  1.00  0.00     0.167 HD
BRANCH   9  11
HETATM   11  C9  UNL     1      23.348   3.857  51.672  1.00  0.00     0.038 A 
HETATM   12  C10 UNL     1      22.695   5.068  51.744  1.00  0.00     0.066 A 
HETATM   13  C11 UNL     1      22.063   5.719  50.699  1.00  0.00     0.073 A 
HETATM   14  C13 UNL     1      22.099   5.078  49.455  1.00  0.00     0.073 A 
HETATM   15  C14 UNL     1      22.747   3.862  49.349  1.00  0.00     0.073 A 
HETATM   16  C16 UNL     1      23.353   3.274  50.436  1.00  0.00     0.066 A 
BRANCH  13  17
HETATM   17  O4  UNL     1      21.420   6.934  50.842  1.00  0.00    -0.356 OA
HETATM   18  C12 UNL     1      21.825   8.063  50.100  1.00  0.00     0.210 C 
ENDBRANCH  13  17
BRANCH  15  19
HETATM   19  O5  UNL     1      22.693   3.369  48.055  1.00  0.00    -0.356 OA
HETATM   20  C15 UNL     1      22.410   2.034  47.787  1.00  0.00     0.210 C 
ENDBRANCH  15  19
ENDBRANCH   9  11
ENDBRANCH   7   9
BRANCH   1  21
HETATM   21  C2  UNL     1      27.572   2.026  52.810  1.00  0.00     0.209 C 
BRANCH  21  22
HETATM   22  O1  UNL     1      27.979   2.486  54.068  1.00  0.00    -0.391 OA
HETATM   23  C1  UNL     1      29.231   1.873  54.304  1.00  0.00     0.201 C 
ENDBRANCH  21  22
ENDBRANCH   1  21
BRANCH   2  24
HETATM   24  O2  UNL     1      27.302  -1.396  53.458  1.00  0.00    -0.323 OA
BRANCH  24  25
HETATM   25  C5  UNL     1      27.320  -2.462  52.521  1.00  0.00     0.341 C 
BRANCH  25  26
HETATM   26  O3  UNL     1      28.340  -3.328  52.903  1.00  0.00    -0.377 OA
HETATM   27  H8  UNL     1      28.883  -2.918  53.649  1.00  0.00     0.212 HD
ENDBRANCH  25  26
ENDBRANCH  24  25
ENDBRANCH   2  24
TORSDOF 9
ENDMDL
MODEL 9
REMARK VINA RESULT:      -6.5      2.308      3.714
REMARK  9 active torsions:
REMARK  status: ('A' for Active; 'I' for Inactive)
REMARK    1  A    between atoms: O1_2  and  C2_3 
REMARK    2  A    between atoms: C2_3  and  C3_4 
REMARK    3  A    between atoms: C4_5  and  O2_6 
REMARK    4  A    between atoms: O2_6  and  C5_7 
REMARK    5  A    between atoms: C5_7  and  O3_8 
REMARK    6  A    between atoms: C8_13  and  N3_14 
REMARK    7  A    between atoms: N3_14  and  C9_15 
REMARK    8  A    between atoms: C11_17  and  O4_18 
REMARK    9  A    between atoms: C14_21  and  O5_22 
ROOT
HETATM    1  C3  UNL     1      25.210   0.411  52.441  1.00  0.00     0.018 A 
HETATM    2  C4  UNL     1      24.857  -0.069  53.621  1.00  0.00     0.110 A 
HETATM    3  C6  UNL     1      23.505   0.393  53.343  1.00  0.00     0.107 A 
HETATM    4  N1  UNL     1      22.225   0.490  53.787  1.00  0.00    -0.238 NA
HETATM    5  C7  UNL     1      21.272   1.077  53.046  1.00  0.00     0.236 A 
HETATM    6  N2  UNL     1      21.586   1.580  51.841  1.00  0.00    -0.223 NA
HETATM    7  C8  UNL     1      22.846   1.498  51.378  1.00  0.00     0.142 A 
HETATM    8  C17 UNL     1      23.879   0.902  52.092  1.00  0.00     0.053 A 
ENDROOT
BRANCH   7   9
HETATM    9  N3  UNL     1      23.316   2.021  50.140  1.00  0.00    -0.340 N 
HETATM   10  H10 UNL     1      23.087   1.565  49.238  1.00  0.00     0.167 HD
BRANCH   9  11
HETATM   11  C9  UNL     1      24.125   3.198  50.130  1.00  0.00     0.038 A 
HETATM   12  C10 UNL     1      25.379   3.256  49.559  1.00  0.00     0.066 A 
HETATM   13  C11 UNL     1      26.200   4.368  49.504  1.00  0.00     0.073 A 
HETATM   14  C13 UNL     1      25.700   5.540  50.085  1.00  0.00     0.073 A 
HETATM   15  C14 UNL     1      24.446   5.515  50.664  1.00  0.00     0.073 A 
HETATM   16  C16 UNL     1      23.686   4.368  50.682  1.00  0.00     0.066 A 
BRANCH  13  17
HETATM   17  O4  UNL     1      27.453   4.356  48.919  1.00  0.00    -0.356 OA
HETATM   18  C12 UNL     1      28.033   5.540  48.420  1.00  0.00     0.210 C 
ENDBRANCH  13  17
BRANCH  15  19
HETATM   19  O5  UNL     1      24.103   6.752  51.185  1.00  0.00    -0.356 OA
HETATM   20  C15 UNL     1      23.852   7.852  50.370  1.00  0.00     0.210 C 
ENDBRANCH  15  19
ENDBRANCH   9  11
ENDBRANCH   7   9
BRANCH   1  21
HETATM   21  C2  UNL     1      26.443   0.505  51.614  1.00  0.00     0.209 C 
BRANCH  21  22
HETATM   22  O1  UNL     1      27.481   0.873  52.478  1.00  0.00    -0.391 OA
HETATM   23  C1  UNL     1      27.415   2.283  52.564  1.00  0.00     0.201 C 
ENDBRANCH  21  22
ENDBRANCH   1  21
BRANCH   2  24
HETATM   24  O2  UNL     1      25.411  -0.728  54.715  1.00  0.00    -0.323 OA
BRANCH  24  25
HETATM   25  C5  UNL     1      26.367  -0.096  55.552  1.00  0.00     0.341 C 
BRANCH  25  26
HETATM   26  O3  UNL     1      27.625  -0.376  55.025  1.00  0.00    -0.377 OA
HETATM   27  H8  UNL     1      28.300   0.292  55.366  1.00  0.00     0.212 HD
ENDBRANCH  25  26
ENDBRANCH  24  25
ENDBRANCH   2  24
TORSDOF 9
ENDMDL
