MODEL 1
REMARK VINA RESULT:      -7.4      0.000      0.000
REMARK  5 active torsions:
REMARK  status: ('A' for Active; 'I' for Inactive)
REMARK    1  A    between atoms: N1_2  and  C2_3 
REMARK    2  A    between atoms: C2_3  and  N2_5 
REMARK    3  A    between atoms: C3_6  and  C4_7 
REMARK    4  A    between atoms: C3_6  and  C11_15 
REMARK    5  A    between atoms: C4_7  and  C5_8 
ROOT
HETATM    1  N2  UNL     1      26.733   2.326  50.949  1.00  0.00    -0.224 NA
HETATM    2  C3  UNL     1      26.441   1.981  52.155  1.00  0.00     0.052 C 
ENDROOT
BRANCH   2   3
HETATM    3  C4  UNL     1      25.382   2.312  53.134  1.00  0.00     0.099 C 
BRANCH   3   4
HETATM    4  C5  UNL     1      24.135   1.563  52.982  1.00  0.00    -0.052 A 
HETATM    5  C6  UNL     1      23.053   2.311  52.501  1.00  0.00     0.010 A 
HETATM    6  C7  UNL     1      21.825   1.665  52.325  1.00  0.00     0.043 A 
HETATM    7  C8  UNL     1      21.671   0.324  52.614  1.00  0.00     0.116 A 
HETATM    8  F1  UNL     1      20.506  -0.348  52.461  1.00  0.00    -0.206 F 
HETATM    9  C9  UNL     1      22.738  -0.432  53.092  1.00  0.00     0.043 A 
HETATM   10  C10 UNL     1      23.939   0.225  53.259  1.00  0.00     0.010 A 
ENDBRANCH   3   4
ENDBRANCH   2   3
BRANCH   2  11
HETATM   11  C11 UNL     1      27.408   1.019  52.694  1.00  0.00    -0.011 A 
HETATM   12  C12 UNL     1      27.301  -0.366  52.587  1.00  0.00     0.013 A 
HETATM   13  C13 UNL     1      28.173  -1.298  53.070  1.00  0.00     0.001 A 
HETATM   14  C14 UNL     1      29.283  -0.830  53.738  1.00  0.00     0.000 A 
HETATM   15  C15 UNL     1      29.501   0.520  53.909  1.00  0.00     0.001 A 
HETATM   16  C16 UNL     1      28.559   1.372  53.382  1.00  0.00     0.013 A 
ENDBRANCH   2  11
BRANCH   1  17
HETATM   17  C2  UNL     1      26.035   3.217  50.144  1.00  0.00     0.193 C 
HETATM   18  S1  UNL     1      26.853   4.318  49.250  1.00  0.00    -0.039 SA
BRANCH  17  19
HETATM   19  N1  UNL     1      24.708   3.560  49.765  1.00  0.00    -0.370 N 
HETATM   20  C1  UNL     1      23.576   3.178  48.962  1.00  0.00     0.148 C 
HETATM   21  H4  UNL     1      24.589   4.443  50.334  1.00  0.00     0.161 HD
ENDBRANCH  17  19
ENDBRANCH   1  17
TORSDOF 5
ENDMDL
MODEL 2
REMARK VINA RESULT:      -7.3      2.742      5.353
REMARK  5 active torsions:
REMARK  status: ('A' for Active; 'I' for Inactive)
REMARK    1  A    between atoms: N1_2  and  C2_3 
REMARK    2  A    between atoms: C2_3  and  N2_5 
REMARK    3  A    between atoms: C3_6  and  C4_7 
REMARK    4  A    between atoms: C3_6  and  C11_15 
REMARK    5  A    between atoms: C4_7  and  C5_8 
ROOT
HETATM    1  N2  UNL     1      23.576   2.914  52.319  1.00  0.00    -0.224 NA
HETATM    2  C3  UNL     1      23.988   1.695  52.307  1.00  0.00     0.052 C 
ENDROOT
BRANCH   2   3
HETATM    3  C4  UNL     1      25.088   0.945  51.660  1.00  0.00     0.099 C 
BRANCH   3   4
HETATM    4  C5  UNL     1      26.369   0.981  52.367  1.00  0.00    -0.052 A 
HETATM    5  C6  UNL     1      26.998  -0.262  52.508  1.00  0.00     0.010 A 
HETATM    6  C7  UNL     1      28.230  -0.311  53.169  1.00  0.00     0.043 A 
HETATM    7  C8  UNL     1      28.821   0.831  53.673  1.00  0.00     0.116 A 
HETATM    8  F1  UNL     1      30.009   0.839  54.319  1.00  0.00    -0.206 F 
HETATM    9  C9  UNL     1      28.206   2.073  53.538  1.00  0.00     0.043 A 
HETATM   10  C10 UNL     1      26.992   2.098  52.884  1.00  0.00     0.010 A 
ENDBRANCH   3   4
ENDBRANCH   2   3
BRANCH   2  11
HETATM   11  C11 UNL     1      23.151   0.831  53.145  1.00  0.00    -0.011 A 
HETATM   12  C12 UNL     1      23.607  -0.278  53.855  1.00  0.00     0.013 A 
HETATM   13  C13 UNL     1      22.867  -1.109  54.646  1.00  0.00     0.001 A 
HETATM   14  C14 UNL     1      21.523  -0.831  54.762  1.00  0.00     0.000 A 
HETATM   15  C15 UNL     1      20.953   0.239  54.108  1.00  0.00     0.001 A 
HETATM   16  C16 UNL     1      21.790   1.012  53.337  1.00  0.00     0.013 A 
ENDBRANCH   2  11
BRANCH   1  17
HETATM   17  C2  UNL     1      24.132   3.990  51.637  1.00  0.00     0.193 C 
HETATM   18  S1  UNL     1      23.339   5.421  51.591  1.00  0.00    -0.039 SA
BRANCH  17  19
HETATM   19  N1  UNL     1      25.279   4.343  50.875  1.00  0.00    -0.370 N 
HETATM   20  C1  UNL     1      26.141   3.950  49.791  1.00  0.00     0.148 C 
HETATM   21  H4  UNL     1      25.532   5.251  51.355  1.00  0.00     0.161 HD
ENDBRANCH  17  19
ENDBRANCH   1  17
TORSDOF 5
ENDMDL
MODEL 3
REMARK VINA RESULT:      -7.2      3.156      4.320
REMARK  5 active torsions:
REMARK  status: ('A' for Active; 'I' for Inactive)
REMARK    1  A    between atoms: N1_2  and  C2_3 
REMARK    2  A    between atoms: C2_3  and  N2_5 
REMARK    3  A    between atoms: C3_6  and  C4_7 
REMARK    4  A    between atoms: C3_6  and  C11_15 
REMARK    5  A    between atoms: C4_7  and  C5_8 
ROOT
HETATM    1  N2  UNL     1      24.889  -0.660  53.388  1.00  0.00    -0.224 NA
HETATM    2  C3  UNL     1      25.793   0.252  53.465  1.00  0.00     0.052 C 
ENDROOT
BRANCH   2   3
HETATM    3  C4  UNL     1      25.816   1.729  53.560  1.00  0.00     0.099 C 
BRANCH   3   4
HETATM    4  C5  UNL     1      25.699   2.439  52.286  1.00  0.00    -0.052 A 
HETATM    5  C6  UNL     1      24.495   3.133  52.108  1.00  0.00     0.010 A 
HETATM    6  C7  UNL     1      24.309   3.841  50.915  1.00  0.00     0.043 A 
HETATM    7  C8  UNL     1      25.279   3.864  49.934  1.00  0.00     0.116 A 
HETATM    8  F1  UNL     1      25.149   4.532  48.765  1.00  0.00    -0.206 F 
HETATM    9  C9  UNL     1      26.480   3.179  50.100  1.00  0.00     0.043 A 
HETATM   10  C10 UNL     1      26.643   2.487  51.282  1.00  0.00     0.010 A 
ENDBRANCH   3   4
ENDBRANCH   2   3
BRANCH   2  11
HETATM   11  C11 UNL     1      27.144  -0.319  53.453  1.00  0.00    -0.011 A 
HETATM   12  C12 UNL     1      28.295   0.342  53.874  1.00  0.00     0.013 A 
HETATM   13  C13 UNL     1      29.570  -0.148  53.880  1.00  0.00     0.001 A 
HETATM   14  C14 UNL     1      29.748  -1.435  53.423  1.00  0.00     0.000 A 
HETATM   15  C15 UNL     1      28.685  -2.192  52.980  1.00  0.00     0.001 A 
HETATM   16  C16 UNL     1      27.444  -1.601  53.017  1.00  0.00     0.013 A 
ENDBRANCH   2  11
BRANCH   1  17
HETATM   17  C2  UNL     1      23.512  -0.472  53.372  1.00  0.00     0.193 C 
HETATM   18  S1  UNL     1      22.600  -1.034  54.609  1.00  0.00    -0.039 SA
BRANCH  17  19
HETATM   19  N1  UNL     1      22.484   0.104  52.578  1.00  0.00    -0.370 N 
HETATM   20  C1  UNL     1      21.139   0.619  52.583  1.00  0.00     0.148 C 
HETATM   21  H4  UNL     1      22.978   0.125  51.644  1.00  0.00     0.161 HD
ENDBRANCH  17  19
ENDBRANCH   1  17
TORSDOF 5
ENDMDL
MODEL 4
REMARK VINA RESULT:      -7.2      3.158      6.034
REMARK  5 active torsions:
REMARK  status: ('A' for Active; 'I' for Inactive)
REMARK    1  A    between atoms: N1_2  and  C2_3 
REMARK    2  A    between atoms: C2_3  and  N2_5 
REMARK    3  A    between atoms: C3_6  and  C4_7 
REMARK    4  A    between atoms: C3_6  and  C11_15 
REMARK    5  A    between atoms: C4_7  and  C5_8 
ROOT
HETATM    1  N2  UNL     1      24.736  -0.441  53.328  1.00  0.00    -0.224 NA
HETATM    2  C3  UNL     1      24.121   0.685  53.214  1.00  0.00     0.052 C 
ENDROOT
BRANCH   2   3
HETATM    3  C4  UNL     1      24.485   2.115  53.315  1.00  0.00     0.099 C 
BRANCH   3   4
HETATM    4  C5  UNL     1      25.021   2.713  52.092  1.00  0.00    -0.052 A 
HETATM    5  C6  UNL     1      24.273   3.782  51.583  1.00  0.00     0.010 A 
HETATM    6  C7  UNL     1      24.721   4.410  50.416  1.00  0.00     0.043 A 
HETATM    7  C8  UNL     1      25.871   3.996  49.774  1.00  0.00     0.116 A 
HETATM    8  F1  UNL     1      26.348   4.568  48.645  1.00  0.00    -0.206 F 
HETATM    9  C9  UNL     1      26.624   2.934  50.270  1.00  0.00     0.043 A 
HETATM   10  C10 UNL     1      26.163   2.329  51.420  1.00  0.00     0.010 A 
ENDBRANCH   3   4
ENDBRANCH   2   3
BRANCH   2  11
HETATM   11  C11 UNL     1      22.699   0.498  52.908  1.00  0.00    -0.011 A 
HETATM   12  C12 UNL     1      22.141   0.563  51.634  1.00  0.00     0.013 A 
HETATM   13  C13 UNL     1      20.827   0.397  51.302  1.00  0.00     0.001 A 
HETATM   14  C14 UNL     1      19.949   0.136  52.331  1.00  0.00     0.000 A 
HETATM   15  C15 UNL     1      20.381   0.048  53.636  1.00  0.00     0.001 A 
HETATM   16  C16 UNL     1      21.726   0.232  53.859  1.00  0.00     0.013 A 
ENDBRANCH   2  11
BRANCH   1  17
HETATM   17  C2  UNL     1      26.082  -0.632  53.614  1.00  0.00     0.193 C 
HETATM   18  S1  UNL     1      27.008  -1.533  52.609  1.00  0.00    -0.039 SA
BRANCH  17  19
HETATM   19  N1  UNL     1      27.068  -0.284  54.578  1.00  0.00    -0.370 N 
HETATM   20  C1  UNL     1      28.448   0.075  54.775  1.00  0.00     0.148 C 
HETATM   21  H4  UNL     1      26.478  -0.333  55.454  1.00  0.00     0.161 HD
ENDBRANCH  17  19
ENDBRANCH   1  17
TORSDOF 5
ENDMDL
MODEL 5
REMARK VINA RESULT:      -7.0      2.581      5.157
REMARK  5 active torsions:
REMARK  status: ('A' for Active; 'I' for Inactive)
REMARK    1  A    between atoms: N1_2  and  C2_3 
REMARK    2  A    between atoms: C2_3  and  N2_5 
REMARK    3  A    between atoms: C3_6  and  C4_7 
REMARK    4  A    between atoms: C3_6  and  C11_15 
REMARK    5  A    between atoms: C4_7  and  C5_8 
ROOT
HETATM    1  N2  UNL     1      23.616   3.951  50.821  1.00  0.00    -0.224 NA
HETATM    2  C3  UNL     1      23.602   3.071  51.761  1.00  0.00     0.052 C 
ENDROOT
BRANCH   2   3
HETATM    3  C4  UNL     1      24.439   2.752  52.938  1.00  0.00     0.099 C 
BRANCH   3   4
HETATM    4  C5  UNL     1      25.081   1.438  52.911  1.00  0.00    -0.052 A 
HETATM    5  C6  UNL     1      26.085   1.293  51.944  1.00  0.00     0.010 A 
HETATM    6  C7  UNL     1      26.750   0.066  51.857  1.00  0.00     0.043 A 
HETATM    7  C8  UNL     1      26.435  -0.983  52.696  1.00  0.00     0.116 A 
HETATM    8  F1  UNL     1      27.047  -2.189  52.654  1.00  0.00    -0.206 F 
HETATM    9  C9  UNL     1      25.440  -0.853  53.662  1.00  0.00     0.043 A 
HETATM   10  C10 UNL     1      24.797   0.365  53.730  1.00  0.00     0.010 A 
ENDBRANCH   3   4
ENDBRANCH   2   3
BRANCH   2  11
HETATM   11  C11 UNL     1      22.467   2.152  51.626  1.00  0.00    -0.011 A 
HETATM   12  C12 UNL     1      21.490   1.940  52.596  1.00  0.00     0.013 A 
HETATM   13  C13 UNL     1      20.420   1.097  52.516  1.00  0.00     0.001 A 
HETATM   14  C14 UNL     1      20.280   0.372  51.353  1.00  0.00     0.000 A 
HETATM   15  C15 UNL     1      21.182   0.494  50.319  1.00  0.00     0.001 A 
HETATM   16  C16 UNL     1      22.224   1.373  50.505  1.00  0.00     0.013 A 
ENDBRANCH   2  11
BRANCH   1  17
HETATM   17  C2  UNL     1      24.547   4.967  50.643  1.00  0.00     0.193 C 
HETATM   18  S1  UNL     1      24.191   6.490  51.124  1.00  0.00    -0.039 SA
BRANCH  17  19
HETATM   19  N1  UNL     1      25.857   5.191  50.138  1.00  0.00    -0.370 N 
HETATM   20  C1  UNL     1      26.622   5.648  49.007  1.00  0.00     0.148 C 
HETATM   21  H4  UNL     1      26.421   4.874  50.974  1.00  0.00     0.161 HD
ENDBRANCH  17  19
ENDBRANCH   1  17
TORSDOF 5
ENDMDL
MODEL 6
REMARK VINA RESULT:      -7.0      2.570      5.331
REMARK  5 active torsions:
REMARK  status: ('A' for Active; 'I' for Inactive)
REMARK    1  A    between atoms: N1_2  and  C2_3 
REMARK    2  A    between atoms: C2_3  and  N2_5 
REMARK    3  A    between atoms: C3_6  and  C4_7 
REMARK    4  A    between atoms: C3_6  and  C11_15 
REMARK    5  A    between atoms: C4_7  and  C5_8 
ROOT
HETATM    1  N2  UNL     1      23.098   1.651  51.209  1.00  0.00    -0.224 NA
HETATM    2  C3  UNL     1      23.389   1.401  52.438  1.00  0.00     0.052 C 
ENDROOT
BRANCH   2   3
HETATM    3  C4  UNL     1      24.437   1.820  53.394  1.00  0.00     0.099 C 
BRANCH   3   4
HETATM    4  C5  UNL     1      25.717   1.121  53.266  1.00  0.00    -0.052 A 
HETATM    5  C6  UNL     1      26.814   1.797  53.814  1.00  0.00     0.010 A 
HETATM    6  C7  UNL     1      28.073   1.192  53.735  1.00  0.00     0.043 A 
HETATM    7  C8  UNL     1      28.242  -0.040  53.136  1.00  0.00     0.116 A 
HETATM    8  F1  UNL     1      29.436  -0.668  53.033  1.00  0.00    -0.206 F 
HETATM    9  C9  UNL     1      27.158  -0.723  52.588  1.00  0.00     0.043 A 
HETATM   10  C10 UNL     1      25.927  -0.108  52.676  1.00  0.00     0.010 A 
ENDBRANCH   3   4
ENDBRANCH   2   3
BRANCH   2  11
HETATM   11  C11 UNL     1      22.441   0.457  53.039  1.00  0.00    -0.011 A 
HETATM   12  C12 UNL     1      21.080   0.396  52.746  1.00  0.00     0.013 A 
HETATM   13  C13 UNL     1      20.162  -0.462  53.279  1.00  0.00     0.001 A 
HETATM   14  C14 UNL     1      20.618  -1.371  54.208  1.00  0.00     0.000 A 
HETATM   15  C15 UNL     1      21.944  -1.409  54.581  1.00  0.00     0.001 A 
HETATM   16  C16 UNL     1      22.784  -0.500  53.982  1.00  0.00     0.013 A 
ENDBRANCH   2  11
BRANCH   1  17
HETATM   17  C2  UNL     1      23.784   2.494  50.344  1.00  0.00     0.193 C 
HETATM   18  S1  UNL     1      23.078   2.977  48.949  1.00  0.00    -0.039 SA
BRANCH  17  19
HETATM   19  N1  UNL     1      25.025   3.175  50.216  1.00  0.00    -0.370 N 
HETATM   20  C1  UNL     1      26.458   3.028  50.228  1.00  0.00     0.148 C 
HETATM   21  H4  UNL     1      24.668   4.157  50.053  1.00  0.00     0.161 HD
ENDBRANCH  17  19
ENDBRANCH   1  17
TORSDOF 5
ENDMDL
MODEL 7
REMARK VINA RESULT:      -7.0      3.590      5.355
REMARK  5 active torsions:
REMARK  status: ('A' for Active; 'I' for Inactive)
REMARK    1  A    between atoms: N1_2  and  C2_3 
REMARK    2  A    between atoms: C2_3  and  N2_5 
REMARK    3  A    between atoms: C3_6  and  C4_7 
REMARK    4  A    between atoms: C3_6  and  C11_15 
REMARK    5  A    between atoms: C4_7  and  C5_8 
ROOT
HETATM    1  N2  UNL     1      22.764   3.721  52.289  1.00  0.00    -0.224 NA
HETATM    2  C3  UNL     1      23.525   2.950  51.593  1.00  0.00     0.052 C 
ENDROOT
BRANCH   2   3
HETATM    3  C4  UNL     1      23.860   2.791  50.160  1.00  0.00     0.099 C 
BRANCH   3   4
HETATM    4  C5  UNL     1      24.928   3.663  49.668  1.00  0.00    -0.052 A 
HETATM    5  C6  UNL     1      24.511   4.943  49.282  1.00  0.00     0.010 A 
HETATM    6  C7  UNL     1      25.474   5.837  48.803  1.00  0.00     0.043 A 
HETATM    7  C8  UNL     1      26.803   5.480  48.709  1.00  0.00     0.116 A 
HETATM    8  F1  UNL     1      27.773   6.306  48.253  1.00  0.00    -0.206 F 
HETATM    9  C9  UNL     1      27.231   4.210  49.090  1.00  0.00     0.043 A 
HETATM   10  C10 UNL     1      26.265   3.344  49.559  1.00  0.00     0.010 A 
ENDBRANCH   3   4
ENDBRANCH   2   3
BRANCH   2  11
HETATM   11  C11 UNL     1      24.236   1.983  52.436  1.00  0.00    -0.011 A 
HETATM   12  C12 UNL     1      23.799   0.689  52.708  1.00  0.00     0.013 A 
HETATM   13  C13 UNL     1      24.425  -0.244  53.485  1.00  0.00     0.001 A 
HETATM   14  C14 UNL     1      25.618   0.124  54.067  1.00  0.00     0.000 A 
HETATM   15  C15 UNL     1      26.154   1.378  53.871  1.00  0.00     0.001 A 
HETATM   16  C16 UNL     1      25.441   2.240  53.071  1.00  0.00     0.013 A 
ENDBRANCH   2  11
BRANCH   1  17
HETATM   17  C2  UNL     1      21.951   4.742  51.814  1.00  0.00     0.193 C 
HETATM   18  S1  UNL     1      20.481   4.387  51.189  1.00  0.00    -0.039 SA
BRANCH  17  19
HETATM   19  N1  UNL     1      21.927   6.155  51.658  1.00  0.00    -0.370 N 
HETATM   20  C1  UNL     1      21.565   7.238  50.780  1.00  0.00     0.148 C 
HETATM   21  H4  UNL     1      22.355   6.438  52.582  1.00  0.00     0.161 HD
ENDBRANCH  17  19
ENDBRANCH   1  17
TORSDOF 5
ENDMDL
MODEL 8
REMARK VINA RESULT:      -6.9      2.171      5.081
REMARK  5 active torsions:
REMARK  status: ('A' for Active; 'I' for Inactive)
REMARK    1  A    between atoms: N1_2  and  C2_3 
REMARK    2  A    between atoms: C2_3  and  N2_5 
REMARK    3  A    between atoms: C3_6  and  C4_7 
REMARK    4  A    between atoms: C3_6  and  C11_15 
REMARK    5  A    between atoms: C4_7  and  C5_8 
ROOT
HETATM    1  N2  UNL     1      25.248   1.930  51.084  1.00  0.00    -0.224 NA
HETATM    2  C3  UNL     1      24.020   2.210  51.350  1.00  0.00     0.052 C 
ENDROOT
BRANCH   2   3
HETATM    3  C4  UNL     1      23.211   2.415  52.572  1.00  0.00     0.099 C 
BRANCH   3   4
HETATM    4  C5  UNL     1      22.564   1.214  53.102  1.00  0.00    -0.052 A 
HETATM    5  C6  UNL     1      21.170   1.294  53.207  1.00  0.00     0.010 A 
HETATM    6  C7  UNL     1      20.477   0.185  53.703  1.00  0.00     0.043 A 
HETATM    7  C8  UNL     1      21.140  -0.966  54.081  1.00  0.00     0.116 A 
HETATM    8  F1  UNL     1      20.518  -2.065  54.566  1.00  0.00    -0.206 F 
HETATM    9  C9  UNL     1      22.526  -1.058  53.981  1.00  0.00     0.043 A 
HETATM   10  C10 UNL     1      23.189   0.047  53.491  1.00  0.00     0.010 A 
ENDBRANCH   3   4
ENDBRANCH   2   3
BRANCH   2  11
HETATM   11  C11 UNL     1      23.221   2.359  50.129  1.00  0.00    -0.011 A 
HETATM   12  C12 UNL     1      22.243   1.464  49.700  1.00  0.00     0.013 A 
HETATM   13  C13 UNL     1      21.477   1.561  48.574  1.00  0.00     0.001 A 
HETATM   14  C14 UNL     1      21.684   2.658  47.767  1.00  0.00     0.000 A 
HETATM   15  C15 UNL     1      22.625   3.614  48.085  1.00  0.00     0.001 A 
HETATM   16  C16 UNL     1      23.342   3.418  49.243  1.00  0.00     0.013 A 
ENDBRANCH   2  11
BRANCH   1  17
HETATM   17  C2  UNL     1      26.273   1.721  51.999  1.00  0.00     0.193 C 
HETATM   18  S1  UNL     1      26.760   0.196  52.340  1.00  0.00    -0.039 SA
BRANCH  17  19
HETATM   19  N1  UNL     1      27.163   2.436  52.845  1.00  0.00    -0.370 N 
HETATM   20  C1  UNL     1      28.420   2.385  53.546  1.00  0.00     0.148 C 
HETATM   21  H4  UNL     1      26.617   3.335  52.952  1.00  0.00     0.161 HD
ENDBRANCH  17  19
ENDBRANCH   1  17
TORSDOF 5
ENDMDL
MODEL 9
REMARK VINA RESULT:      -6.8      2.225      4.789
REMARK  5 active torsions:
REMARK  status: ('A' for Active; 'I' for Inactive)
REMARK    1  A    between atoms: N1_2  and  C2_3 
REMARK    2  A    between atoms: C2_3  and  N2_5 
REMARK    3  A    between atoms: C3_6  and  C4_7 
REMARK    4  A    between atoms: C3_6  and  C11_15 
REMARK    5  A    between atoms: C4_7  and  C5_8 
ROOT
HETATM    1  N2  UNL     1      26.791   0.577  51.833  1.00  0.00    -0.224 NA
HETATM    2  C3  UNL     1      25.864   1.407  52.163  1.00  0.00     0.052 C 
ENDROOT
BRANCH   2   3
HETATM    3  C4  UNL     1      24.974   1.608  53.329  1.00  0.00     0.099 C 
BRANCH   3   4
HETATM    4  C5  UNL     1      23.872   0.652  53.445  1.00  0.00    -0.052 A 
HETATM    5  C6  UNL     1      24.011  -0.283  54.479  1.00  0.00     0.010 A 
HETATM    6  C7  UNL     1      22.996  -1.229  54.658  1.00  0.00     0.043 A 
HETATM    7  C8  UNL     1      21.881  -1.249  53.844  1.00  0.00     0.116 A 
HETATM    8  F1  UNL     1      20.872  -2.141  53.975  1.00  0.00    -0.206 F 
HETATM    9  C9  UNL     1      21.730  -0.324  52.814  1.00  0.00     0.043 A 
HETATM   10  C10 UNL     1      22.743   0.598  52.655  1.00  0.00     0.010 A 
ENDBRANCH   3   4
ENDBRANCH   2   3
BRANCH   2  11
HETATM   11  C11 UNL     1      25.631   2.405  51.114  1.00  0.00    -0.011 A 
HETATM   12  C12 UNL     1      26.628   3.125  50.461  1.00  0.00     0.013 A 
HETATM   13  C13 UNL     1      26.460   4.061  49.481  1.00  0.00     0.001 A 
HETATM   14  C14 UNL     1      25.167   4.332  49.089  1.00  0.00     0.000 A 
HETATM   15  C15 UNL     1      24.094   3.684  49.662  1.00  0.00     0.001 A 
HETATM   16  C16 UNL     1      24.377   2.759  50.639  1.00  0.00     0.013 A 
ENDBRANCH   2  11
BRANCH   1  17
HETATM   17  C2  UNL     1      27.261  -0.491  52.587  1.00  0.00     0.193 C 
HETATM   18  S1  UNL     1      26.645  -1.989  52.348  1.00  0.00    -0.039 SA
BRANCH  17  19
HETATM   19  N1  UNL     1      28.200  -0.794  53.611  1.00  0.00    -0.370 N 
HETATM   20  C1  UNL     1      29.599  -0.892  53.936  1.00  0.00     0.148 C 
HETATM   21  H4  UNL     1      27.530  -1.027  54.395  1.00  0.00     0.161 HD
ENDBRANCH  17  19
ENDBRANCH   1  17
TORSDOF 5
ENDMDL
