MODEL 1
REMARK VINA RESULT:      -8.8      0.000      0.000
REMARK  3 active torsions:
REMARK  status: ('A' for Active; 'I' for Inactive)
REMARK    1  A    between atoms: O1_1  and  C1_2 
REMARK    2  A    between atoms: C9_13  and  N3_14 
REMARK    3  A    between atoms: N3_14  and  C10_15 
ROOT
HETATM    1  C1  UNL     1      21.313  -0.773  53.905  1.00  0.00     0.068 A 
HETATM    2  C2  UNL     1      20.718  -0.630  52.647  1.00  0.00     0.037 A 
HETATM    3  C3  UNL     1      21.343   0.187  51.735  1.00  0.00     0.014 A 
HETATM    4  C4  UNL     1      22.524   0.873  51.991  1.00  0.00    -0.006 A 
HETATM    5  C5  UNL     1      23.050   0.687  53.242  1.00  0.00     0.088 A 
HETATM    6  C6  UNL     1      22.485  -0.117  54.218  1.00  0.00     0.074 A 
HETATM    7  O2  UNL     1      24.221   1.269  53.729  1.00  0.00    -0.289 OA
HETATM    8  C7  UNL     1      25.290   1.731  52.936  1.00  0.00     0.202 A 
HETATM    9  N1  UNL     1      26.481   1.666  53.580  1.00  0.00    -0.215 NA
HETATM   10  C8  UNL     1      27.573   2.074  52.936  1.00  0.00     0.238 A 
HETATM   11  N2  UNL     1      27.508   2.536  51.691  1.00  0.00    -0.222 NA
HETATM   12  C9  UNL     1      26.394   2.644  50.962  1.00  0.00     0.160 A 
HETATM   13  C16 UNL     1      25.269   2.224  51.630  1.00  0.00     0.129 A 
HETATM   14  N4  UNL     1      24.100   2.366  50.850  1.00  0.00    -0.379 N 
HETATM   15  C17 UNL     1      22.868   1.627  50.783  1.00  0.00     0.161 C 
HETATM   16  H11 UNL     1      24.158   3.191  50.193  1.00  0.00     0.160 HD
ENDROOT
BRANCH  12  17
HETATM   17  N3  UNL     1      26.372   3.137  49.637  1.00  0.00    -0.339 N 
HETATM   18  H6  UNL     1      26.198   2.630  48.751  1.00  0.00     0.167 HD
BRANCH  17  19
HETATM   19  C10 UNL     1      26.616   4.499  49.315  1.00  0.00     0.035 A 
HETATM   20  C11 UNL     1      27.700   4.935  48.584  1.00  0.00     0.029 A 
HETATM   21  C12 UNL     1      27.947   6.248  48.238  1.00  0.00     0.004 A 
HETATM   22  C13 UNL     1      27.057   7.219  48.645  1.00  0.00     0.019 A 
HETATM   23  C14 UNL     1      25.947   6.875  49.381  1.00  0.00     0.013 A 
HETATM   24 BR1  UNL     1      24.725   8.219  49.939  1.00  0.00    -0.051 Br
HETATM   25  C15 UNL     1      25.778   5.546  49.679  1.00  0.00     0.048 A 
ENDBRANCH  17  19
ENDBRANCH  12  17
BRANCH   1  26
HETATM   26  O1  UNL     1      20.767  -1.576  54.909  1.00  0.00    -0.361 OA
HETATM   27  H1  UNL     1      21.213  -2.476  55.147  1.00  0.00     0.217 HD
ENDBRANCH   1  26
TORSDOF 3
ENDMDL
MODEL 2
REMARK VINA RESULT:      -8.7      4.201      5.440
REMARK  3 active torsions:
REMARK  status: ('A' for Active; 'I' for Inactive)
REMARK    1  A    between atoms: O1_1  and  C1_2 
REMARK    2  A    between atoms: C9_13  and  N3_14 
REMARK    3  A    between atoms: N3_14  and  C10_15 
ROOT
HETATM    1  C1  UNL     1      17.415  -1.002  52.451  1.00  0.00     0.068 A 
HETATM    2  C2  UNL     1      17.705  -0.370  51.237  1.00  0.00     0.037 A 
HETATM    3  C3  UNL     1      18.956   0.180  51.088  1.00  0.00     0.014 A 
HETATM    4  C4  UNL     1      19.940   0.144  52.068  1.00  0.00    -0.006 A 
HETATM    5  C5  UNL     1      19.587  -0.490  53.231  1.00  0.00     0.088 A 
HETATM    6  C6  UNL     1      18.351  -1.069  53.462  1.00  0.00     0.074 A 
HETATM    7  O2  UNL     1      20.401  -0.650  54.352  1.00  0.00    -0.289 OA
HETATM    8  C7  UNL     1      21.810  -0.641  54.342  1.00  0.00     0.202 A 
HETATM    9  N1  UNL     1      22.343  -1.391  55.337  1.00  0.00    -0.215 NA
HETATM   10  C8  UNL     1      23.668  -1.465  55.436  1.00  0.00     0.238 A 
HETATM   11  N2  UNL     1      24.462  -0.822  54.584  1.00  0.00    -0.222 NA
HETATM   12  C9  UNL     1      24.049  -0.058  53.568  1.00  0.00     0.160 A 
HETATM   13  C16 UNL     1      22.681   0.017  53.470  1.00  0.00     0.129 A 
HETATM   14  N4  UNL     1      22.266   0.846  52.404  1.00  0.00    -0.379 N 
HETATM   15  C17 UNL     1      21.121   0.829  51.535  1.00  0.00     0.161 C 
HETATM   16  H11 UNL     1      22.944   1.637  52.228  1.00  0.00     0.160 HD
ENDROOT
BRANCH  12  17
HETATM   17  N3  UNL     1      24.929   0.603  52.682  1.00  0.00    -0.339 N 
HETATM   18  H6  UNL     1      24.742   0.996  51.742  1.00  0.00     0.167 HD
BRANCH  17  19
HETATM   19  C10 UNL     1      26.300   0.827  52.978  1.00  0.00     0.035 A 
HETATM   20  C11 UNL     1      26.841   2.071  53.224  1.00  0.00     0.029 A 
HETATM   21  C12 UNL     1      28.163   2.313  53.537  1.00  0.00     0.004 A 
HETATM   22  C13 UNL     1      29.032   1.245  53.613  1.00  0.00     0.019 A 
HETATM   23  C14 UNL     1      28.580  -0.032  53.380  1.00  0.00     0.013 A 
HETATM   24 BR1  UNL     1      29.784  -1.499  53.486  1.00  0.00    -0.051 Br
HETATM   25  C15 UNL     1      27.250  -0.183  53.077  1.00  0.00     0.048 A 
ENDBRANCH  17  19
ENDBRANCH  12  17
BRANCH   1  26
HETATM   26  O1  UNL     1      16.178  -1.594  52.714  1.00  0.00    -0.361 OA
HETATM   27  H1  UNL     1      15.693  -2.123  51.971  1.00  0.00     0.217 HD
ENDBRANCH   1  26
TORSDOF 3
ENDMDL
MODEL 3
REMARK VINA RESULT:      -8.2      3.561      5.274
REMARK  3 active torsions:
REMARK  status: ('A' for Active; 'I' for Inactive)
REMARK    1  A    between atoms: O1_1  and  C1_2 
REMARK    2  A    between atoms: C9_13  and  N3_14 
REMARK    3  A    between atoms: N3_14  and  C10_15 
ROOT
HETATM    1  C1  UNL     1      18.791  -0.318  52.036  1.00  0.00     0.068 A 
HETATM    2  C2  UNL     1      19.030  -0.791  53.331  1.00  0.00     0.037 A 
HETATM    3  C3  UNL     1      20.309  -0.686  53.822  1.00  0.00     0.014 A 
HETATM    4  C4  UNL     1      21.370  -0.140  53.110  1.00  0.00    -0.006 A 
HETATM    5  C5  UNL     1      21.064   0.302  51.849  1.00  0.00     0.088 A 
HETATM    6  C6  UNL     1      19.804   0.233  51.280  1.00  0.00     0.074 A 
HETATM    7  O2  UNL     1      21.959   0.882  50.949  1.00  0.00    -0.289 OA
HETATM    8  C7  UNL     1      23.152   1.543  51.301  1.00  0.00     0.202 A 
HETATM    9  N1  UNL     1      23.498   2.502  50.406  1.00  0.00    -0.215 NA
HETATM   10  C8  UNL     1      24.609   3.202  50.626  1.00  0.00     0.238 A 
HETATM   11  N2  UNL     1      25.369   2.975  51.694  1.00  0.00    -0.222 NA
HETATM   12  C9  UNL     1      25.125   2.061  52.637  1.00  0.00     0.160 A 
HETATM   13  C16 UNL     1      23.979   1.339  52.407  1.00  0.00     0.129 A 
HETATM   14  N4  UNL     1      23.752   0.365  53.403  1.00  0.00    -0.379 N 
HETATM   15  C17 UNL     1      22.557  -0.205  53.965  1.00  0.00     0.161 C 
HETATM   16  H11 UNL     1      24.654  -0.015  53.801  1.00  0.00     0.160 HD
ENDROOT
BRANCH  12  17
HETATM   17  N3  UNL     1      25.959   1.858  53.760  1.00  0.00    -0.339 N 
HETATM   18  H6  UNL     1      25.806   2.128  54.749  1.00  0.00     0.167 HD
BRANCH  17  19
HETATM   19  C10 UNL     1      27.224   1.216  53.678  1.00  0.00     0.035 A 
HETATM   20  C11 UNL     1      28.429   1.866  53.833  1.00  0.00     0.029 A 
HETATM   21  C12 UNL     1      29.669   1.262  53.781  1.00  0.00     0.004 A 
HETATM   22  C13 UNL     1      29.735  -0.096  53.557  1.00  0.00     0.019 A 
HETATM   23  C14 UNL     1      28.582  -0.826  53.389  1.00  0.00     0.013 A 
HETATM   24 BR1  UNL     1      28.680  -2.699  53.080  1.00  0.00    -0.051 Br
HETATM   25  C15 UNL     1      27.392  -0.146  53.458  1.00  0.00     0.048 A 
ENDBRANCH  17  19
ENDBRANCH  12  17
BRANCH   1  26
HETATM   26  O1  UNL     1      17.531  -0.374  51.435  1.00  0.00    -0.361 OA
HETATM   27  H1  UNL     1      16.763   0.214  51.797  1.00  0.00     0.217 HD
ENDBRANCH   1  26
TORSDOF 3
ENDMDL
MODEL 4
REMARK VINA RESULT:      -8.1      4.309      7.270
REMARK  3 active torsions:
REMARK  status: ('A' for Active; 'I' for Inactive)
REMARK    1  A    between atoms: O1_1  and  C1_2 
REMARK    2  A    between atoms: C9_13  and  N3_14 
REMARK    3  A    between atoms: N3_14  and  C10_15 
ROOT
HETATM    1  C1  UNL     1      28.943   1.460  54.020  1.00  0.00     0.068 A 
HETATM    2  C2  UNL     1      28.869   0.157  53.515  1.00  0.00     0.037 A 
HETATM    3  C3  UNL     1      27.640  -0.297  53.100  1.00  0.00     0.014 A 
HETATM    4  C4  UNL     1      26.476   0.460  53.152  1.00  0.00    -0.006 A 
HETATM    5  C5  UNL     1      26.622   1.725  53.657  1.00  0.00     0.088 A 
HETATM    6  C6  UNL     1      27.821   2.259  54.097  1.00  0.00     0.074 A 
HETATM    7  O2  UNL     1      25.602   2.665  53.809  1.00  0.00    -0.289 OA
HETATM    8  C7  UNL     1      24.403   2.691  53.069  1.00  0.00     0.202 A 
HETATM    9  N1  UNL     1      23.900   3.943  52.939  1.00  0.00    -0.215 NA
HETATM   10  C8  UNL     1      22.767   4.102  52.258  1.00  0.00     0.238 A 
HETATM   11  N2  UNL     1      22.135   3.066  51.714  1.00  0.00    -0.222 NA
HETATM   12  C9  UNL     1      22.539   1.794  51.779  1.00  0.00     0.160 A 
HETATM   13  C16 UNL     1      23.707   1.632  52.483  1.00  0.00     0.129 A 
HETATM   14  N4  UNL     1      24.104   0.279  52.556  1.00  0.00    -0.379 N 
HETATM   15  C17 UNL     1      25.388  -0.366  52.623  1.00  0.00     0.161 C 
HETATM   16  H11 UNL     1      23.277  -0.378  52.570  1.00  0.00     0.160 HD
ENDROOT
BRANCH  12  17
HETATM   17  N3  UNL     1      21.838   0.722  51.180  1.00  0.00    -0.339 N 
HETATM   18  H6  UNL     1      22.094   0.149  50.356  1.00  0.00     0.167 HD
BRANCH  17  19
HETATM   19  C10 UNL     1      20.584   0.256  51.658  1.00  0.00     0.035 A 
HETATM   20  C11 UNL     1      20.391  -0.285  52.911  1.00  0.00     0.029 A 
HETATM   21  C12 UNL     1      19.180  -0.724  53.407  1.00  0.00     0.004 A 
HETATM   22  C13 UNL     1      18.062  -0.627  52.608  1.00  0.00     0.019 A 
HETATM   23  C14 UNL     1      18.161  -0.101  51.341  1.00  0.00     0.013 A 
HETATM   24 BR1  UNL     1      16.615   0.030  50.243  1.00  0.00    -0.051 Br
HETATM   25  C15 UNL     1      19.403   0.313  50.928  1.00  0.00     0.048 A 
ENDBRANCH  17  19
ENDBRANCH  12  17
BRANCH   1  26
HETATM   26  O1  UNL     1      30.137   2.026  54.471  1.00  0.00    -0.361 OA
HETATM   27  H1  UNL     1      30.729   2.565  53.818  1.00  0.00     0.217 HD
ENDBRANCH   1  26
TORSDOF 3
ENDMDL
MODEL 5
REMARK VINA RESULT:      -8.0      3.351      7.653
REMARK  3 active torsions:
REMARK  status: ('A' for Active; 'I' for Inactive)
REMARK    1  A    between atoms: O1_1  and  C1_2 
REMARK    2  A    between atoms: C9_13  and  N3_14 
REMARK    3  A    between atoms: N3_14  and  C10_15 
ROOT
HETATM    1  C1  UNL     1      27.513   6.278  48.135  1.00  0.00     0.068 A 
HETATM    2  C2  UNL     1      26.246   6.870  48.097  1.00  0.00     0.037 A 
HETATM    3  C3  UNL     1      25.207   6.188  48.685  1.00  0.00     0.014 A 
HETATM    4  C4  UNL     1      25.344   4.955  49.310  1.00  0.00    -0.006 A 
HETATM    5  C5  UNL     1      26.612   4.435  49.309  1.00  0.00     0.088 A 
HETATM    6  C6  UNL     1      27.712   5.055  48.740  1.00  0.00     0.074 A 
HETATM    7  O2  UNL     1      26.994   3.216  49.870  1.00  0.00    -0.289 OA
HETATM    8  C7  UNL     1      26.316   2.552  50.911  1.00  0.00     0.202 A 
HETATM    9  N1  UNL     1      27.143   1.789  51.667  1.00  0.00    -0.215 NA
HETATM   10  C8  UNL     1      26.623   1.109  52.687  1.00  0.00     0.238 A 
HETATM   11  N2  UNL     1      25.324   1.170  52.967  1.00  0.00    -0.222 NA
HETATM   12  C9  UNL     1      24.420   1.887  52.294  1.00  0.00     0.160 A 
HETATM   13  C16 UNL     1      24.959   2.586  51.241  1.00  0.00     0.129 A 
HETATM   14  N4  UNL     1      23.984   3.320  50.531  1.00  0.00    -0.379 N 
HETATM   15  C17 UNL     1      24.023   4.561  49.807  1.00  0.00     0.161 C 
HETATM   16  H11 UNL     1      23.042   2.841  50.539  1.00  0.00     0.160 HD
ENDROOT
BRANCH  12  17
HETATM   17  N3  UNL     1      23.048   1.926  52.631  1.00  0.00    -0.339 N 
HETATM   18  H6  UNL     1      22.383   2.719  52.582  1.00  0.00     0.167 HD
BRANCH  17  19
HETATM   19  C10 UNL     1      22.342   0.800  53.131  1.00  0.00     0.035 A 
HETATM   20  C11 UNL     1      22.902  -0.158  53.950  1.00  0.00     0.029 A 
HETATM   21  C12 UNL     1      22.233  -1.248  54.468  1.00  0.00     0.004 A 
HETATM   22  C13 UNL     1      20.901  -1.417  54.156  1.00  0.00     0.019 A 
HETATM   23  C14 UNL     1      20.260  -0.512  53.343  1.00  0.00     0.013 A 
HETATM   24 BR1  UNL     1      18.424  -0.752  52.915  1.00  0.00    -0.051 Br
HETATM   25  C15 UNL     1      21.001   0.544  52.873  1.00  0.00     0.048 A 
ENDBRANCH  17  19
ENDBRANCH  12  17
BRANCH   1  26
HETATM   26  O1  UNL     1      28.641   6.879  47.571  1.00  0.00    -0.361 OA
HETATM   27  H1  UNL     1      29.396   7.230  48.182  1.00  0.00     0.217 HD
ENDBRANCH   1  26
TORSDOF 3
ENDMDL
MODEL 6
REMARK VINA RESULT:      -8.0      3.525      7.886
REMARK  3 active torsions:
REMARK  status: ('A' for Active; 'I' for Inactive)
REMARK    1  A    between atoms: O1_1  and  C1_2 
REMARK    2  A    between atoms: C9_13  and  N3_14 
REMARK    3  A    between atoms: N3_14  and  C10_15 
ROOT
HETATM    1  C1  UNL     1      27.509   7.440  48.590  1.00  0.00     0.068 A 
HETATM    2  C2  UNL     1      28.127   6.260  48.162  1.00  0.00     0.037 A 
HETATM    3  C3  UNL     1      27.586   5.068  48.582  1.00  0.00     0.014 A 
HETATM    4  C4  UNL     1      26.469   4.971  49.403  1.00  0.00    -0.006 A 
HETATM    5  C5  UNL     1      25.916   6.166  49.784  1.00  0.00     0.088 A 
HETATM    6  C6  UNL     1      26.398   7.407  49.406  1.00  0.00     0.074 A 
HETATM    7  O2  UNL     1      24.798   6.322  50.604  1.00  0.00    -0.289 OA
HETATM    8  C7  UNL     1      23.782   5.363  50.785  1.00  0.00     0.202 A 
HETATM    9  N1  UNL     1      22.584   5.923  51.081  1.00  0.00    -0.215 NA
HETATM   10  C8  UNL     1      21.540   5.121  51.276  1.00  0.00     0.238 A 
HETATM   11  N2  UNL     1      21.657   3.800  51.184  1.00  0.00    -0.222 NA
HETATM   12  C9  UNL     1      22.784   3.141  50.899  1.00  0.00     0.160 A 
HETATM   13  C16 UNL     1      23.860   3.971  50.700  1.00  0.00     0.129 A 
HETATM   14  N4  UNL     1      25.044   3.254  50.420  1.00  0.00    -0.379 N 
HETATM   15  C17 UNL     1      26.205   3.547  49.624  1.00  0.00     0.161 C 
HETATM   16  H11 UNL     1      25.066   2.317  50.908  1.00  0.00     0.160 HD
ENDROOT
BRANCH  12  17
HETATM   17  N3  UNL     1      22.861   1.732  50.806  1.00  0.00    -0.339 N 
HETATM   18  H6  UNL     1      22.918   1.132  49.964  1.00  0.00     0.167 HD
BRANCH  17  19
HETATM   19  C10 UNL     1      22.862   0.882  51.944  1.00  0.00     0.035 A 
HETATM   20  C11 UNL     1      21.748   0.213  52.406  1.00  0.00     0.029 A 
HETATM   21  C12 UNL     1      21.727  -0.636  53.493  1.00  0.00     0.004 A 
HETATM   22  C13 UNL     1      22.897  -0.848  54.190  1.00  0.00     0.019 A 
HETATM   23  C14 UNL     1      24.058  -0.221  53.802  1.00  0.00     0.013 A 
HETATM   24 BR1  UNL     1      25.667  -0.518  54.768  1.00  0.00    -0.051 Br
HETATM   25  C15 UNL     1      23.989   0.605  52.708  1.00  0.00     0.048 A 
ENDBRANCH  17  19
ENDBRANCH  12  17
BRANCH   1  26
HETATM   26  O1  UNL     1      27.972   8.706  48.226  1.00  0.00    -0.361 OA
HETATM   27  H1  UNL     1      27.359   9.344  47.693  1.00  0.00     0.217 HD
ENDBRANCH   1  26
TORSDOF 3
ENDMDL
MODEL 7
REMARK VINA RESULT:      -7.9      2.208      3.544
REMARK  3 active torsions:
REMARK  status: ('A' for Active; 'I' for Inactive)
REMARK    1  A    between atoms: O1_1  and  C1_2 
REMARK    2  A    between atoms: C9_13  and  N3_14 
REMARK    3  A    between atoms: N3_14  and  C10_15 
ROOT
HETATM    1  C1  UNL     1      19.970  -1.198  53.831  1.00  0.00     0.068 A 
HETATM    2  C2  UNL     1      21.220  -1.387  54.428  1.00  0.00     0.037 A 
HETATM    3  C3  UNL     1      22.233  -0.528  54.073  1.00  0.00     0.014 A 
HETATM    4  C4  UNL     1      22.084   0.511  53.162  1.00  0.00    -0.006 A 
HETATM    5  C5  UNL     1      20.833   0.637  52.617  1.00  0.00     0.088 A 
HETATM    6  C6  UNL     1      19.761  -0.185  52.918  1.00  0.00     0.074 A 
HETATM    7  O2  UNL     1      20.444   1.598  51.683  1.00  0.00    -0.289 OA
HETATM    8  C7  UNL     1      21.064   2.849  51.497  1.00  0.00     0.202 A 
HETATM    9  N1  UNL     1      20.205   3.791  51.035  1.00  0.00    -0.215 NA
HETATM   10  C8  UNL     1      20.669   5.020  50.819  1.00  0.00     0.238 A 
HETATM   11  N2  UNL     1      21.943   5.329  51.048  1.00  0.00    -0.222 NA
HETATM   12  C9  UNL     1      22.873   4.484  51.502  1.00  0.00     0.160 A 
HETATM   13  C16 UNL     1      22.392   3.217  51.723  1.00  0.00     0.129 A 
HETATM   14  N4  UNL     1      23.396   2.336  52.182  1.00  0.00    -0.379 N 
HETATM   15  C17 UNL     1      23.376   1.193  53.054  1.00  0.00     0.161 C 
HETATM   16  H11 UNL     1      24.347   2.578  51.791  1.00  0.00     0.160 HD
ENDROOT
BRANCH  12  17
HETATM   17  N3  UNL     1      24.217   4.857  51.736  1.00  0.00    -0.339 N 
HETATM   18  H6  UNL     1      24.677   5.131  52.623  1.00  0.00     0.167 HD
BRANCH  17  19
HETATM   19  C10 UNL     1      25.192   4.922  50.706  1.00  0.00     0.035 A 
HETATM   20  C11 UNL     1      25.960   3.850  50.304  1.00  0.00     0.029 A 
HETATM   21  C12 UNL     1      26.897   3.880  49.292  1.00  0.00     0.004 A 
HETATM   22  C13 UNL     1      27.101   5.063  48.614  1.00  0.00     0.019 A 
HETATM   23  C14 UNL     1      26.380   6.185  48.948  1.00  0.00     0.013 A 
HETATM   24 BR1  UNL     1      26.668   7.813  48.010  1.00  0.00    -0.051 Br
HETATM   25  C15 UNL     1      25.468   6.066  49.967  1.00  0.00     0.048 A 
ENDBRANCH  17  19
ENDBRANCH  12  17
BRANCH   1  26
HETATM   26  O1  UNL     1      18.869  -2.011  54.115  1.00  0.00    -0.361 OA
HETATM   27  H1  UNL     1      17.940  -1.584  54.263  1.00  0.00     0.217 HD
ENDBRANCH   1  26
TORSDOF 3
ENDMDL
MODEL 8
REMARK VINA RESULT:      -7.9      5.662      9.849
REMARK  3 active torsions:
REMARK  status: ('A' for Active; 'I' for Inactive)
REMARK    1  A    between atoms: O1_1  and  C1_2 
REMARK    2  A    between atoms: C9_13  and  N3_14 
REMARK    3  A    between atoms: N3_14  and  C10_15 
ROOT
HETATM    1  C1  UNL     1      25.120   0.524  52.892  1.00  0.00     0.068 A 
HETATM    2  C2  UNL     1      25.124  -0.364  53.973  1.00  0.00     0.037 A 
HETATM    3  C3  UNL     1      23.908  -0.778  54.463  1.00  0.00     0.014 A 
HETATM    4  C4  UNL     1      22.685  -0.368  53.948  1.00  0.00    -0.006 A 
HETATM    5  C5  UNL     1      22.756   0.501  52.890  1.00  0.00     0.088 A 
HETATM    6  C6  UNL     1      23.937   0.967  52.338  1.00  0.00     0.074 A 
HETATM    7  O2  UNL     1      21.668   1.049  52.211  1.00  0.00    -0.289 OA
HETATM    8  C7  UNL     1      20.380   0.482  52.146  1.00  0.00     0.202 A 
HETATM    9  N1  UNL     1      19.722   0.813  51.008  1.00  0.00    -0.215 NA
HETATM   10  C8  UNL     1      18.492   0.338  50.825  1.00  0.00     0.238 A 
HETATM   11  N2  UNL     1      17.912  -0.445  51.731  1.00  0.00    -0.222 NA
HETATM   12  C9  UNL     1      18.464  -0.835  52.883  1.00  0.00     0.160 A 
HETATM   13  C16 UNL     1      19.732  -0.342  53.070  1.00  0.00     0.129 A 
HETATM   14  N4  UNL     1      20.289  -0.748  54.302  1.00  0.00    -0.379 N 
HETATM   15  C17 UNL     1      21.634  -1.022  54.730  1.00  0.00     0.161 C 
HETATM   16  H11 UNL     1      19.553  -0.865  55.052  1.00  0.00     0.160 HD
ENDROOT
BRANCH  12  17
HETATM   17  N3  UNL     1      17.811  -1.674  53.816  1.00  0.00    -0.339 N 
HETATM   18  H6  UNL     1      17.844  -1.655  54.851  1.00  0.00     0.167 HD
BRANCH  17  19
HETATM   19  C10 UNL     1      16.964  -2.746  53.430  1.00  0.00     0.035 A 
HETATM   20  C11 UNL     1      17.122  -4.046  53.860  1.00  0.00     0.029 A 
HETATM   21  C12 UNL     1      16.300  -5.101  53.519  1.00  0.00     0.004 A 
HETATM   22  C13 UNL     1      15.231  -4.863  52.682  1.00  0.00     0.019 A 
HETATM   23  C14 UNL     1      14.997  -3.596  52.202  1.00  0.00     0.013 A 
HETATM   24 BR1  UNL     1      13.521  -3.275  51.047  1.00  0.00    -0.051 Br
HETATM   25  C15 UNL     1      15.863  -2.606  52.593  1.00  0.00     0.048 A 
ENDBRANCH  17  19
ENDBRANCH  12  17
BRANCH   1  26
HETATM   26  O1  UNL     1      26.294   1.011  52.313  1.00  0.00    -0.361 OA
HETATM   27  H1  UNL     1      27.046   1.386  52.914  1.00  0.00     0.217 HD
ENDBRANCH   1  26
TORSDOF 3
ENDMDL
MODEL 9
REMARK VINA RESULT:      -7.7      2.014      2.772
REMARK  3 active torsions:
REMARK  status: ('A' for Active; 'I' for Inactive)
REMARK    1  A    between atoms: O1_1  and  C1_2 
REMARK    2  A    between atoms: C9_13  and  N3_14 
REMARK    3  A    between atoms: N3_14  and  C10_15 
ROOT
HETATM    1  C1  UNL     1      18.402  -1.023  53.141  1.00  0.00     0.068 A 
HETATM    2  C2  UNL     1      17.889  -0.478  51.959  1.00  0.00     0.037 A 
HETATM    3  C3  UNL     1      18.679   0.413  51.272  1.00  0.00     0.014 A 
HETATM    4  C4  UNL     1      19.949   0.799  51.683  1.00  0.00    -0.006 A 
HETATM    5  C5  UNL     1      20.387   0.227  52.849  1.00  0.00     0.088 A 
HETATM    6  C6  UNL     1      19.656  -0.677  53.600  1.00  0.00     0.074 A 
HETATM    7  O2  UNL     1      21.620   0.460  53.458  1.00  0.00    -0.289 OA
HETATM    8  C7  UNL     1      22.782   0.906  52.798  1.00  0.00     0.202 A 
HETATM    9  N1  UNL     1      23.919   0.480  53.402  1.00  0.00    -0.215 NA
HETATM   10  C8  UNL     1      25.088   0.834  52.873  1.00  0.00     0.238 A 
HETATM   11  N2  UNL     1      25.152   1.588  51.779  1.00  0.00    -0.222 NA
HETATM   12  C9  UNL     1      24.101   2.062  51.104  1.00  0.00     0.160 A 
HETATM   13  C16 UNL     1      22.896   1.696  51.652  1.00  0.00     0.129 A 
HETATM   14  N4  UNL     1      21.799   2.224  50.936  1.00  0.00    -0.379 N 
HETATM   15  C17 UNL     1      20.464   1.750  50.695  1.00  0.00     0.161 C 
HETATM   16  H11 UNL     1      22.023   3.161  50.500  1.00  0.00     0.160 HD
ENDROOT
BRANCH  12  17
HETATM   17  N3  UNL     1      24.216   2.856  49.940  1.00  0.00    -0.339 N 
HETATM   18  H6  UNL     1      24.009   2.611  48.955  1.00  0.00     0.167 HD
BRANCH  17  19
HETATM   19  C10 UNL     1      24.675   4.200  49.963  1.00  0.00     0.035 A 
HETATM   20  C11 UNL     1      24.076   5.205  50.692  1.00  0.00     0.029 A 
HETATM   21  C12 UNL     1      24.516   6.512  50.750  1.00  0.00     0.004 A 
HETATM   22  C13 UNL     1      25.638   6.867  50.032  1.00  0.00     0.019 A 
HETATM   23  C14 UNL     1      26.299   5.928  49.275  1.00  0.00     0.013 A 
HETATM   24 BR1  UNL     1      27.845   6.423  48.286  1.00  0.00    -0.051 Br
HETATM   25  C15 UNL     1      25.794   4.652  49.275  1.00  0.00     0.048 A 
ENDBRANCH  17  19
ENDBRANCH  12  17
BRANCH   1  26
HETATM   26  O1  UNL     1      17.688  -1.936  53.920  1.00  0.00    -0.361 OA
HETATM   27  H1  UNL     1      17.054  -1.595  54.660  1.00  0.00     0.217 HD
ENDBRANCH   1  26
TORSDOF 3
ENDMDL
