MODEL 1
REMARK VINA RESULT:      -9.6      0.000      0.000
REMARK  1 active torsions:
REMARK  status: ('A' for Active; 'I' for Inactive)
REMARK    1  A    between atoms: N1_1  and  C1_2 
ROOT
HETATM    1  C1  UNL     1      21.855   5.319  51.368  1.00  0.00     0.027 A 
HETATM    2  C2  UNL     1      23.174   4.909  51.435  1.00  0.00     0.040 A 
HETATM    3  C3  UNL     1      23.408   3.568  51.241  1.00  0.00    -0.033 A 
HETATM    4  C4  UNL     1      22.410   2.665  50.993  1.00  0.00     0.025 A 
HETATM    5  C5  UNL     1      21.077   3.086  50.929  1.00  0.00    -0.004 A 
HETATM    6  C6  UNL     1      20.790   4.443  51.119  1.00  0.00     0.042 A 
HETATM    7  C7  UNL     1      19.833   2.364  50.721  1.00  0.00     0.081 A 
HETATM    8  N2  UNL     1      18.960   2.653  49.765  1.00  0.00    -0.240 NA
HETATM    9  C8  UNL     1      17.805   1.935  49.614  1.00  0.00     0.234 A 
HETATM   10  N3  UNL     1      17.477   0.884  50.426  1.00  0.00    -0.241 NA
HETATM   11  C9  UNL     1      18.339   0.561  51.409  1.00  0.00     0.070 A 
HETATM   12  C10 UNL     1      18.038  -0.494  52.244  1.00  0.00     0.035 A 
HETATM   13  C11 UNL     1      18.878  -0.874  53.263  1.00  0.00     0.043 A 
HETATM   14  C12 UNL     1      20.030  -0.189  53.447  1.00  0.00     0.171 A 
HETATM   15  C13 UNL     1      20.276   0.886  52.553  1.00  0.00     0.056 A 
HETATM   16  C14 UNL     1      19.483   1.318  51.514  1.00  0.00     0.025 A 
HETATM   17  N4  UNL     1      21.152  -0.225  54.322  1.00  0.00     0.120 N 
HETATM   18  C15 UNL     1      22.507  -0.548  54.094  1.00  0.00     0.380 A 
HETATM   19  O1  UNL     1      21.800  -0.685  53.062  1.00  0.00    -0.143 OA
HETATM   20  C16 UNL     1      23.847  -0.930  53.627  1.00  0.00     0.255 C 
HETATM   21  O2  UNL     1      24.789  -0.798  54.683  1.00  0.00    -0.358 OA
HETATM   22  C17 UNL     1      25.894   0.029  54.349  1.00  0.00     0.133 C 
HETATM   23  C18 UNL     1      26.572   1.199  54.316  1.00  0.00     0.023 C 
HETATM   24  C19 UNL     1      27.894   1.389  53.705  1.00  0.00     0.197 C 
HETATM   25  O3  UNL     1      27.935   2.310  52.699  1.00  0.00    -0.384 OA
HETATM   26  C20 UNL     1      27.115   2.104  51.629  1.00  0.00     0.195 C 
HETATM   27  C21 UNL     1      25.664   2.218  51.904  1.00  0.00    -0.000 C 
HETATM   28  C22 UNL     1      24.783   3.074  51.339  1.00  0.00     0.009 C 
HETATM   29  H10 UNL     1      20.630   0.042  55.159  1.00  0.00     0.329 HD
ENDROOT
BRANCH   1  30
HETATM   30  N1  UNL     1      21.644   6.722  51.574  1.00  0.00    -0.399 N 
HETATM   31  H1  UNL     1      22.128   7.242  50.812  1.00  0.00     0.156 HD
HETATM   32  H2  UNL     1      21.095   7.143  52.357  1.00  0.00     0.156 HD
ENDBRANCH   1  30
TORSDOF 1
ENDMDL
MODEL 2
REMARK VINA RESULT:      -9.4      2.971      6.957
REMARK  1 active torsions:
REMARK  status: ('A' for Active; 'I' for Inactive)
REMARK    1  A    between atoms: N1_1  and  C1_2 
ROOT
HETATM    1  C1  UNL     1      27.453   1.615  53.206  1.00  0.00     0.027 A 
HETATM    2  C2  UNL     1      26.464   0.673  53.418  1.00  0.00     0.040 A 
HETATM    3  C3  UNL     1      25.396   0.701  52.552  1.00  0.00    -0.033 A 
HETATM    4  C4  UNL     1      25.293   1.601  51.525  1.00  0.00     0.025 A 
HETATM    5  C5  UNL     1      26.297   2.553  51.317  1.00  0.00    -0.004 A 
HETATM    6  C6  UNL     1      27.404   2.562  52.173  1.00  0.00     0.042 A 
HETATM    7  C7  UNL     1      26.436   3.630  50.352  1.00  0.00     0.081 A 
HETATM    8  N2  UNL     1      27.478   3.769  49.542  1.00  0.00    -0.240 NA
HETATM    9  C8  UNL     1      27.554   4.803  48.649  1.00  0.00     0.234 A 
HETATM   10  N3  UNL     1      26.574   5.750  48.531  1.00  0.00    -0.241 NA
HETATM   11  C9  UNL     1      25.501   5.643  49.336  1.00  0.00     0.070 A 
HETATM   12  C10 UNL     1      24.495   6.581  49.241  1.00  0.00     0.035 A 
HETATM   13  C11 UNL     1      23.373   6.524  50.033  1.00  0.00     0.043 A 
HETATM   14  C12 UNL     1      23.260   5.518  50.930  1.00  0.00     0.171 A 
HETATM   15  C13 UNL     1      24.332   4.588  50.977  1.00  0.00     0.056 A 
HETATM   16  C14 UNL     1      25.479   4.584  50.215  1.00  0.00     0.025 A 
HETATM   17  N4  UNL     1      22.324   5.072  51.905  1.00  0.00     0.120 N 
HETATM   18  C15 UNL     1      21.504   3.925  51.962  1.00  0.00     0.380 A 
HETATM   19  O1  UNL     1      22.168   3.991  50.894  1.00  0.00    -0.143 OA
HETATM   20  C16 UNL     1      20.744   2.678  51.800  1.00  0.00     0.255 C 
HETATM   21  O2  UNL     1      19.951   2.435  52.954  1.00  0.00    -0.358 OA
HETATM   22  C17 UNL     1      20.183   1.160  53.535  1.00  0.00     0.133 C 
HETATM   23  C18 UNL     1      20.764   0.309  54.412  1.00  0.00     0.023 C 
HETATM   24  C19 UNL     1      20.512  -1.136  54.476  1.00  0.00     0.197 C 
HETATM   25  O3  UNL     1      21.611  -1.920  54.285  1.00  0.00    -0.384 OA
HETATM   26  C20 UNL     1      22.293  -1.766  53.114  1.00  0.00     0.195 C 
HETATM   27  C21 UNL     1      22.980  -0.465  52.940  1.00  0.00    -0.000 C 
HETATM   28  C22 UNL     1      24.302  -0.250  52.755  1.00  0.00     0.009 C 
HETATM   29  H10 UNL     1      22.443   5.876  52.527  1.00  0.00     0.329 HD
ENDROOT
BRANCH   1  30
HETATM   30  N1  UNL     1      28.552   1.560  54.125  1.00  0.00    -0.399 N 
HETATM   31  H1  UNL     1      28.253   1.019  54.963  1.00  0.00     0.156 HD
HETATM   32  H2  UNL     1      29.492   1.991  53.971  1.00  0.00     0.156 HD
ENDBRANCH   1  30
TORSDOF 1
ENDMDL
MODEL 3
REMARK VINA RESULT:      -9.2      3.175      6.396
REMARK  1 active torsions:
REMARK  status: ('A' for Active; 'I' for Inactive)
REMARK    1  A    between atoms: N1_1  and  C1_2 
ROOT
HETATM    1  C1  UNL     1      26.141   3.867  49.958  1.00  0.00     0.027 A 
HETATM    2  C2  UNL     1      25.194   4.869  49.856  1.00  0.00     0.040 A 
HETATM    3  C3  UNL     1      24.197   4.867  50.803  1.00  0.00    -0.033 A 
HETATM    4  C4  UNL     1      24.121   3.937  51.804  1.00  0.00     0.025 A 
HETATM    5  C5  UNL     1      25.082   2.924  51.900  1.00  0.00    -0.004 A 
HETATM    6  C6  UNL     1      26.117   2.886  50.959  1.00  0.00     0.042 A 
HETATM    7  C7  UNL     1      25.232   1.805  52.816  1.00  0.00     0.081 A 
HETATM    8  N2  UNL     1      26.324   1.579  53.535  1.00  0.00    -0.240 NA
HETATM    9  C8  UNL     1      26.409   0.510  54.385  1.00  0.00     0.234 A 
HETATM   10  N3  UNL     1      25.388  -0.386  54.548  1.00  0.00    -0.241 NA
HETATM   11  C9  UNL     1      24.264  -0.190  53.834  1.00  0.00     0.070 A 
HETATM   12  C10 UNL     1      23.216  -1.074  53.978  1.00  0.00     0.035 A 
HETATM   13  C11 UNL     1      22.041  -0.926  53.279  1.00  0.00     0.043 A 
HETATM   14  C12 UNL     1      21.917   0.118  52.427  1.00  0.00     0.171 A 
HETATM   15  C13 UNL     1      23.034   0.988  52.327  1.00  0.00     0.056 A 
HETATM   16  C14 UNL     1      24.235   0.901  52.995  1.00  0.00     0.025 A 
HETATM   17  N4  UNL     1      20.936   0.650  51.545  1.00  0.00     0.120 N 
HETATM   18  C15 UNL     1      20.182   1.842  51.591  1.00  0.00     0.380 A 
HETATM   19  O1  UNL     1      20.921   1.700  52.601  1.00  0.00    -0.143 OA
HETATM   20  C16 UNL     1      19.510   3.122  51.854  1.00  0.00     0.255 C 
HETATM   21  O2  UNL     1      18.646   3.451  50.775  1.00  0.00    -0.358 OA
HETATM   22  C17 UNL     1      18.905   4.733  50.220  1.00  0.00     0.133 C 
HETATM   23  C18 UNL     1      19.465   5.582  49.328  1.00  0.00     0.023 C 
HETATM   24  C19 UNL     1      19.293   7.041  49.332  1.00  0.00     0.197 C 
HETATM   25  O3  UNL     1      20.447   7.756  49.462  1.00  0.00    -0.384 OA
HETATM   26  C20 UNL     1      21.207   7.520  50.569  1.00  0.00     0.195 C 
HETATM   27  C21 UNL     1      21.829   6.178  50.646  1.00  0.00    -0.000 C 
HETATM   28  C22 UNL     1      23.147   5.884  50.718  1.00  0.00     0.009 C 
HETATM   29  H10 UNL     1      20.960  -0.135  50.889  1.00  0.00     0.329 HD
ENDROOT
BRANCH   1  30
HETATM   30  N1  UNL     1      27.168   3.896  48.958  1.00  0.00    -0.399 N 
HETATM   31  H1  UNL     1      27.735   4.758  49.095  1.00  0.00     0.156 HD
HETATM   32  H2  UNL     1      27.314   3.170  48.220  1.00  0.00     0.156 HD
ENDBRANCH   1  30
TORSDOF 1
ENDMDL
MODEL 4
REMARK VINA RESULT:      -9.0      2.671      6.195
REMARK  1 active torsions:
REMARK  status: ('A' for Active; 'I' for Inactive)
REMARK    1  A    between atoms: N1_1  and  C1_2 
ROOT
HETATM    1  C1  UNL     1      20.257   2.875  48.534  1.00  0.00     0.027 A 
HETATM    2  C2  UNL     1      20.103   2.215  49.739  1.00  0.00     0.040 A 
HETATM    3  C3  UNL     1      20.957   2.584  50.752  1.00  0.00    -0.033 A 
HETATM    4  C4  UNL     1      21.917   3.548  50.604  1.00  0.00     0.025 A 
HETATM    5  C5  UNL     1      22.069   4.210  49.380  1.00  0.00    -0.004 A 
HETATM    6  C6  UNL     1      21.222   3.869  48.320  1.00  0.00     0.042 A 
HETATM    7  C7  UNL     1      23.004   5.229  48.931  1.00  0.00     0.081 A 
HETATM    8  N2  UNL     1      22.636   6.395  48.415  1.00  0.00    -0.240 NA
HETATM    9  C8  UNL     1      23.561   7.319  48.012  1.00  0.00     0.234 A 
HETATM   10  N3  UNL     1      24.909   7.106  48.112  1.00  0.00    -0.241 NA
HETATM   11  C9  UNL     1      25.320   5.935  48.630  1.00  0.00     0.070 A 
HETATM   12  C10 UNL     1      26.672   5.691  48.746  1.00  0.00     0.035 A 
HETATM   13  C11 UNL     1      27.155   4.515  49.270  1.00  0.00     0.043 A 
HETATM   14  C12 UNL     1      26.273   3.574  49.679  1.00  0.00     0.171 A 
HETATM   15  C13 UNL     1      24.897   3.890  49.530  1.00  0.00     0.056 A 
HETATM   16  C14 UNL     1      24.346   5.043  49.018  1.00  0.00     0.025 A 
HETATM   17  N4  UNL     1      26.308   2.277  50.262  1.00  0.00     0.120 N 
HETATM   18  C15 UNL     1      25.925   1.812  51.539  1.00  0.00     0.380 A 
HETATM   19  O1  UNL     1      25.786   3.058  51.418  1.00  0.00    -0.143 OA
HETATM   20  C16 UNL     1      25.473   1.563  52.915  1.00  0.00     0.255 C 
HETATM   21  O2  UNL     1      25.538   0.174  53.206  1.00  0.00    -0.358 OA
HETATM   22  C17 UNL     1      24.304  -0.360  53.665  1.00  0.00     0.133 C 
HETATM   23  C18 UNL     1      23.119  -0.994  53.509  1.00  0.00     0.023 C 
HETATM   24  C19 UNL     1      22.159  -1.261  54.587  1.00  0.00     0.197 C 
HETATM   25  O3  UNL     1      20.925  -0.707  54.409  1.00  0.00    -0.384 OA
HETATM   26  C20 UNL     1      20.865   0.647  54.255  1.00  0.00     0.195 C 
HETATM   27  C21 UNL     1      21.471   1.178  53.012  1.00  0.00    -0.000 C 
HETATM   28  C22 UNL     1      20.862   1.890  52.037  1.00  0.00     0.009 C 
HETATM   29  H10 UNL     1      26.720   1.816  49.447  1.00  0.00     0.329 HD
ENDROOT
BRANCH   1  30
HETATM   30  N1  UNL     1      19.352   2.469  47.499  1.00  0.00    -0.399 N 
HETATM   31  H1  UNL     1      18.428   2.915  47.678  1.00  0.00     0.156 HD
HETATM   32  H2  UNL     1      19.588   1.834  46.703  1.00  0.00     0.156 HD
ENDBRANCH   1  30
TORSDOF 1
ENDMDL
MODEL 5
REMARK VINA RESULT:      -8.7      3.020      7.736
REMARK  1 active torsions:
REMARK  status: ('A' for Active; 'I' for Inactive)
REMARK    1  A    between atoms: N1_1  and  C1_2 
ROOT
HETATM    1  C1  UNL     1      22.371  -0.372  54.024  1.00  0.00     0.027 A 
HETATM    2  C2  UNL     1      21.114  -0.560  53.481  1.00  0.00     0.040 A 
HETATM    3  C3  UNL     1      20.886   0.013  52.252  1.00  0.00    -0.033 A 
HETATM    4  C4  UNL     1      21.834   0.737  51.580  1.00  0.00     0.025 A 
HETATM    5  C5  UNL     1      23.104   0.925  52.136  1.00  0.00    -0.004 A 
HETATM    6  C6  UNL     1      23.383   0.359  53.385  1.00  0.00     0.042 A 
HETATM    7  C7  UNL     1      24.271   1.659  51.678  1.00  0.00     0.081 A 
HETATM    8  N2  UNL     1      25.475   1.119  51.534  1.00  0.00    -0.240 NA
HETATM    9  C8  UNL     1      26.539   1.859  51.094  1.00  0.00     0.234 A 
HETATM   10  N3  UNL     1      26.435   3.186  50.777  1.00  0.00    -0.241 NA
HETATM   11  C9  UNL     1      25.230   3.768  50.911  1.00  0.00     0.070 A 
HETATM   12  C10 UNL     1      25.092   5.104  50.597  1.00  0.00     0.035 A 
HETATM   13  C11 UNL     1      23.887   5.754  50.710  1.00  0.00     0.043 A 
HETATM   14  C12 UNL     1      22.809   5.060  51.143  1.00  0.00     0.171 A 
HETATM   15  C13 UNL     1      23.022   3.690  51.449  1.00  0.00     0.056 A 
HETATM   16  C14 UNL     1      24.196   2.977  51.358  1.00  0.00     0.025 A 
HETATM   17  N4  UNL     1      21.430   5.299  51.395  1.00  0.00     0.120 N 
HETATM   18  C15 UNL     1      20.264   4.835  50.748  1.00  0.00     0.380 A 
HETATM   19  O1  UNL     1      21.318   4.434  50.188  1.00  0.00    -0.143 OA
HETATM   20  C16 UNL     1      19.206   4.239  49.921  1.00  0.00     0.255 C 
HETATM   21  O2  UNL     1      17.929   4.575  50.446  1.00  0.00    -0.358 OA
HETATM   22  C17 UNL     1      17.114   3.440  50.707  1.00  0.00     0.133 C 
HETATM   23  C18 UNL     1      16.591   2.474  51.495  1.00  0.00     0.023 C 
HETATM   24  C19 UNL     1      15.647   1.441  51.047  1.00  0.00     0.197 C 
HETATM   25  O3  UNL     1      16.081   0.158  51.205  1.00  0.00    -0.384 OA
HETATM   26  C20 UNL     1      17.248  -0.188  50.591  1.00  0.00     0.195 C 
HETATM   27  C21 UNL     1      18.468   0.470  51.116  1.00  0.00    -0.000 C 
HETATM   28  C22 UNL     1      19.559  -0.123  51.650  1.00  0.00     0.009 C 
HETATM   29  H10 UNL     1      21.584   5.930  52.185  1.00  0.00     0.329 HD
ENDROOT
BRANCH   1  30
HETATM   30  N1  UNL     1      22.578  -0.983  55.305  1.00  0.00    -0.399 N 
HETATM   31  H1  UNL     1      23.099  -0.313  55.908  1.00  0.00     0.156 HD
HETATM   32  H2  UNL     1      22.255  -1.939  55.578  1.00  0.00     0.156 HD
ENDBRANCH   1  30
TORSDOF 1
ENDMDL
MODEL 6
REMARK VINA RESULT:      -8.7      3.683      8.070
REMARK  1 active torsions:
REMARK  status: ('A' for Active; 'I' for Inactive)
REMARK    1  A    between atoms: N1_1  and  C1_2 
ROOT
HETATM    1  C1  UNL     1      26.031   1.823  51.965  1.00  0.00     0.027 A 
HETATM    2  C2  UNL     1      24.761   1.301  51.800  1.00  0.00     0.040 A 
HETATM    3  C3  UNL     1      23.987   1.875  50.819  1.00  0.00    -0.033 A 
HETATM    4  C4  UNL     1      24.423   2.907  50.033  1.00  0.00     0.025 A 
HETATM    5  C5  UNL     1      25.709   3.432  50.207  1.00  0.00    -0.004 A 
HETATM    6  C6  UNL     1      26.534   2.879  51.193  1.00  0.00     0.042 A 
HETATM    7  C7  UNL     1      26.414   4.524  49.557  1.00  0.00     0.081 A 
HETATM    8  N2  UNL     1      27.594   4.395  48.965  1.00  0.00    -0.240 NA
HETATM    9  C8  UNL     1      28.211   5.460  48.366  1.00  0.00     0.234 A 
HETATM   10  N3  UNL     1      27.659   6.711  48.336  1.00  0.00    -0.241 NA
HETATM   11  C9  UNL     1      26.462   6.881  48.927  1.00  0.00     0.070 A 
HETATM   12  C10 UNL     1      25.879   8.131  48.912  1.00  0.00     0.035 A 
HETATM   13  C11 UNL     1      24.657   8.367  49.496  1.00  0.00     0.043 A 
HETATM   14  C12 UNL     1      24.014   7.341  50.101  1.00  0.00     0.171 A 
HETATM   15  C13 UNL     1      24.672   6.083  50.080  1.00  0.00     0.056 A 
HETATM   16  C14 UNL     1      25.890   5.776  49.515  1.00  0.00     0.025 A 
HETATM   17  N4  UNL     1      22.791   7.123  50.794  1.00  0.00     0.120 N 
HETATM   18  C15 UNL     1      21.642   6.376  50.455  1.00  0.00     0.380 A 
HETATM   19  O1  UNL     1      22.509   6.367  49.542  1.00  0.00    -0.143 OA
HETATM   20  C16 UNL     1      20.563   5.554  49.891  1.00  0.00     0.255 C 
HETATM   21  O2  UNL     1      19.499   5.436  50.826  1.00  0.00    -0.358 OA
HETATM   22  C17 UNL     1      19.152   4.088  51.113  1.00  0.00     0.133 C 
HETATM   23  C18 UNL     1      19.202   2.947  51.837  1.00  0.00     0.023 C 
HETATM   24  C19 UNL     1      18.471   1.714  51.516  1.00  0.00     0.197 C 
HETATM   25  O3  UNL     1      19.256   0.618  51.306  1.00  0.00    -0.384 OA
HETATM   26  C20 UNL     1      20.192   0.700  50.318  1.00  0.00     0.195 C 
HETATM   27  C21 UNL     1      21.297   1.656  50.561  1.00  0.00    -0.000 C 
HETATM   28  C22 UNL     1      22.620   1.386  50.628  1.00  0.00     0.009 C 
HETATM   29  H10 UNL     1      23.032   7.704  51.600  1.00  0.00     0.329 HD
ENDROOT
BRANCH   1  30
HETATM   30  N1  UNL     1      26.813   1.203  52.994  1.00  0.00    -0.399 N 
HETATM   31  H1  UNL     1      27.816   1.426  52.824  1.00  0.00     0.156 HD
HETATM   32  H2  UNL     1      26.433   0.626  53.779  1.00  0.00     0.156 HD
ENDBRANCH   1  30
TORSDOF 1
ENDMDL
MODEL 7
REMARK VINA RESULT:      -8.5      3.631      5.750
REMARK  1 active torsions:
REMARK  status: ('A' for Active; 'I' for Inactive)
REMARK    1  A    between atoms: N1_1  and  C1_2 
ROOT
HETATM    1  C1  UNL     1      14.673   3.398  52.986  1.00  0.00     0.027 A 
HETATM    2  C2  UNL     1      15.761   4.043  52.428  1.00  0.00     0.040 A 
HETATM    3  C3  UNL     1      16.627   3.263  51.699  1.00  0.00    -0.033 A 
HETATM    4  C4  UNL     1      16.447   1.918  51.518  1.00  0.00     0.025 A 
HETATM    5  C5  UNL     1      15.344   1.271  52.087  1.00  0.00    -0.004 A 
HETATM    6  C6  UNL     1      14.435   2.025  52.837  1.00  0.00     0.042 A 
HETATM    7  C7  UNL     1      14.924  -0.120  52.092  1.00  0.00     0.081 A 
HETATM    8  N2  UNL     1      13.733  -0.535  51.680  1.00  0.00    -0.240 NA
HETATM    9  C8  UNL     1      13.393  -1.861  51.704  1.00  0.00     0.234 A 
HETATM   10  N3  UNL     1      14.246  -2.834  52.147  1.00  0.00    -0.241 NA
HETATM   11  C9  UNL     1      15.463  -2.451  52.574  1.00  0.00     0.070 A 
HETATM   12  C10 UNL     1      16.347  -3.408  53.026  1.00  0.00     0.035 A 
HETATM   13  C11 UNL     1      17.605  -3.081  53.471  1.00  0.00     0.043 A 
HETATM   14  C12 UNL     1      17.981  -1.781  53.466  1.00  0.00     0.171 A 
HETATM   15  C13 UNL     1      17.022  -0.848  52.989  1.00  0.00     0.056 A 
HETATM   16  C14 UNL     1      15.750  -1.106  52.528  1.00  0.00     0.025 A 
HETATM   17  N4  UNL     1      19.127  -1.011  53.809  1.00  0.00     0.120 N 
HETATM   18  C15 UNL     1      20.036  -0.278  53.015  1.00  0.00     0.380 A 
HETATM   19  O1  UNL     1      19.168  -0.877  52.326  1.00  0.00    -0.143 OA
HETATM   20  C16 UNL     1      20.851   0.401  51.999  1.00  0.00     0.255 C 
HETATM   21  O2  UNL     1      21.876   1.162  52.624  1.00  0.00    -0.358 OA
HETATM   22  C17 UNL     1      21.874   2.529  52.237  1.00  0.00     0.133 C 
HETATM   23  C18 UNL     1      21.555   3.835  52.384  1.00  0.00     0.023 C 
HETATM   24  C19 UNL     1      21.936   4.906  51.454  1.00  0.00     0.197 C 
HETATM   25  O3  UNL     1      20.890   5.584  50.899  1.00  0.00    -0.384 OA
HETATM   26  C20 UNL     1      19.977   4.857  50.194  1.00  0.00     0.195 C 
HETATM   27  C21 UNL     1      19.162   3.909  50.988  1.00  0.00    -0.000 C 
HETATM   28  C22 UNL     1      17.816   3.889  51.119  1.00  0.00     0.009 C 
HETATM   29  H10 UNL     1      19.067  -1.192  54.814  1.00  0.00     0.329 HD
ENDROOT
BRANCH   1  30
HETATM   30  N1  UNL     1      13.789   4.239  53.740  1.00  0.00    -0.399 N 
HETATM   31  H1  UNL     1      14.091   4.225  54.736  1.00  0.00     0.156 HD
HETATM   32  H2  UNL     1      12.980   4.772  53.346  1.00  0.00     0.156 HD
ENDBRANCH   1  30
TORSDOF 1
ENDMDL
MODEL 8
REMARK VINA RESULT:      -8.3      5.598      8.065
REMARK  1 active torsions:
REMARK  status: ('A' for Active; 'I' for Inactive)
REMARK    1  A    between atoms: N1_1  and  C1_2 
ROOT
HETATM    1  C1  UNL     1      27.240   5.537  48.846  1.00  0.00     0.027 A 
HETATM    2  C2  UNL     1      26.720   6.606  48.140  1.00  0.00     0.040 A 
HETATM    3  C3  UNL     1      25.353   6.752  48.170  1.00  0.00    -0.033 A 
HETATM    4  C4  UNL     1      24.527   5.901  48.854  1.00  0.00     0.025 A 
HETATM    5  C5  UNL     1      25.061   4.820  49.565  1.00  0.00    -0.004 A 
HETATM    6  C6  UNL     1      26.447   4.632  49.564  1.00  0.00     0.042 A 
HETATM    7  C7  UNL     1      24.439   3.757  50.337  1.00  0.00     0.081 A 
HETATM    8  N2  UNL     1      24.736   3.490  51.602  1.00  0.00    -0.240 NA
HETATM    9  C8  UNL     1      24.115   2.477  52.281  1.00  0.00     0.234 A 
HETATM   10  N3  UNL     1      23.158   1.684  51.710  1.00  0.00    -0.241 NA
HETATM   11  C9  UNL     1      22.831   1.924  50.427  1.00  0.00     0.070 A 
HETATM   12  C10 UNL     1      21.868   1.142  49.823  1.00  0.00     0.035 A 
HETATM   13  C11 UNL     1      21.488   1.341  48.517  1.00  0.00     0.043 A 
HETATM   14  C12 UNL     1      22.079   2.331  47.810  1.00  0.00     0.171 A 
HETATM   15  C13 UNL     1      23.061   3.096  48.492  1.00  0.00     0.056 A 
HETATM   16  C14 UNL     1      23.488   2.954  49.794  1.00  0.00     0.025 A 
HETATM   17  N4  UNL     1      22.006   2.883  46.500  1.00  0.00     0.120 N 
HETATM   18  C15 UNL     1      21.548   4.134  46.035  1.00  0.00     0.380 A 
HETATM   19  O1  UNL     1      21.401   3.999  47.278  1.00  0.00    -0.143 OA
HETATM   20  C16 UNL     1      21.016   5.481  45.785  1.00  0.00     0.255 C 
HETATM   21  O2  UNL     1      21.138   5.807  44.408  1.00  0.00    -0.358 OA
HETATM   22  C17 UNL     1      21.838   7.022  44.179  1.00  0.00     0.133 C 
HETATM   23  C18 UNL     1      22.937   7.760  43.901  1.00  0.00     0.023 C 
HETATM   24  C19 UNL     1      22.964   9.224  43.797  1.00  0.00     0.197 C 
HETATM   25  O3  UNL     1      23.803   9.847  44.674  1.00  0.00    -0.384 OA
HETATM   26  C20 UNL     1      23.597   9.624  46.003  1.00  0.00     0.195 C 
HETATM   27  C21 UNL     1      23.858   8.243  46.470  1.00  0.00    -0.000 C 
HETATM   28  C22 UNL     1      24.748   7.845  47.407  1.00  0.00     0.009 C 
HETATM   29  H10 UNL     1      22.377   2.056  46.026  1.00  0.00     0.329 HD
ENDROOT
BRANCH   1  30
HETATM   30  N1  UNL     1      28.668   5.413  48.795  1.00  0.00    -0.399 N 
HETATM   31  H1  UNL     1      28.987   4.939  49.666  1.00  0.00     0.156 HD
HETATM   32  H2  UNL     1      29.277   5.744  48.013  1.00  0.00     0.156 HD
ENDBRANCH   1  30
TORSDOF 1
ENDMDL
MODEL 9
REMARK VINA RESULT:      -8.2      2.332      6.023
REMARK  1 active torsions:
REMARK  status: ('A' for Active; 'I' for Inactive)
REMARK    1  A    between atoms: N1_1  and  C1_2 
ROOT
HETATM    1  C1  UNL     1      18.985   3.140  48.903  1.00  0.00     0.027 A 
HETATM    2  C2  UNL     1      19.067   2.207  49.919  1.00  0.00     0.040 A 
HETATM    3  C3  UNL     1      19.749   2.591  51.049  1.00  0.00    -0.033 A 
HETATM    4  C4  UNL     1      20.325   3.825  51.189  1.00  0.00     0.025 A 
HETATM    5  C5  UNL     1      20.240   4.765  50.156  1.00  0.00    -0.004 A 
HETATM    6  C6  UNL     1      19.555   4.419  48.986  1.00  0.00     0.042 A 
HETATM    7  C7  UNL     1      20.773   6.109  50.012  1.00  0.00     0.081 A 
HETATM    8  N2  UNL     1      20.030   7.174  49.738  1.00  0.00    -0.240 NA
HETATM    9  C8  UNL     1      20.587   8.419  49.618  1.00  0.00     0.234 A 
HETATM   10  N3  UNL     1      21.927   8.646  49.771  1.00  0.00    -0.241 NA
HETATM   11  C9  UNL     1      22.713   7.589  50.049  1.00  0.00     0.070 A 
HETATM   12  C10 UNL     1      24.068   7.786  50.211  1.00  0.00     0.035 A 
HETATM   13  C11 UNL     1      24.922   6.748  50.499  1.00  0.00     0.043 A 
HETATM   14  C12 UNL     1      24.412   5.501  50.624  1.00  0.00     0.171 A 
HETATM   15  C13 UNL     1      23.010   5.370  50.444  1.00  0.00     0.056 A 
HETATM   16  C14 UNL     1      22.099   6.362  50.157  1.00  0.00     0.025 A 
HETATM   17  N4  UNL     1      24.886   4.190  50.909  1.00  0.00     0.120 N 
HETATM   18  C15 UNL     1      24.687   3.342  52.021  1.00  0.00     0.380 A 
HETATM   19  O1  UNL     1      24.135   4.465  52.165  1.00  0.00    -0.143 OA
HETATM   20  C16 UNL     1      24.351   2.647  53.270  1.00  0.00     0.255 C 
HETATM   21  O2  UNL     1      24.883   1.329  53.255  1.00  0.00    -0.358 OA
HETATM   22  C17 UNL     1      23.905   0.327  53.491  1.00  0.00     0.133 C 
HETATM   23  C18 UNL     1      23.004  -0.608  53.111  1.00  0.00     0.023 C 
HETATM   24  C19 UNL     1      22.194  -1.420  54.028  1.00  0.00     0.197 C 
HETATM   25  O3  UNL     1      20.845  -1.278  53.883  1.00  0.00    -0.384 OA
HETATM   26  C20 UNL     1      20.330  -0.024  54.025  1.00  0.00     0.195 C 
HETATM   27  C21 UNL     1      20.716   0.950  52.979  1.00  0.00    -0.000 C 
HETATM   28  C22 UNL     1      19.898   1.627  52.140  1.00  0.00     0.009 C 
HETATM   29  H10 UNL     1      25.427   4.093  50.047  1.00  0.00     0.329 HD
ENDROOT
BRANCH   1  30
HETATM   30  N1  UNL     1      18.266   2.710  47.739  1.00  0.00    -0.399 N 
HETATM   31  H1  UNL     1      18.195   3.514  47.082  1.00  0.00     0.156 HD
HETATM   32  H2  UNL     1      17.884   1.749  47.585  1.00  0.00     0.156 HD
ENDBRANCH   1  30
TORSDOF 1
ENDMDL
