MODEL 1
REMARK VINA RESULT:      -6.4      0.000      0.000
REMARK  6 active torsions:
REMARK  status: ('A' for Active; 'I' for Inactive)
REMARK    1  A    between atoms: C4_5  and  N2_6 
REMARK    2  A    between atoms: C7_9  and  O1_10 
REMARK    3  A    between atoms: O1_10  and  C8_11 
REMARK    4  A    between atoms: C8_11  and  C9_12 
REMARK    5  A    between atoms: C9_12  and  C10_13 
REMARK    6  A    between atoms: C10_13  and  N3_14 
ROOT
HETATM    1  C1  UNL     1      26.493   2.371  50.789  1.00  0.00     0.073 C 
HETATM    2  C2  UNL     1      25.461   3.447  50.831  1.00  0.00     0.058 C 
HETATM    3  N1  UNL     1      25.568   4.567  50.207  1.00  0.00    -0.286 NA
HETATM    4  C3  UNL     1      24.733   5.742  50.087  1.00  0.00     0.205 C 
HETATM    5  C4  UNL     1      24.048   6.113  51.352  1.00  0.00     0.022 C 
HETATM    6  C5  UNL     1      23.501   5.375  52.330  1.00  0.00     0.029 C 
HETATM    7  C6  UNL     1      23.490   3.894  52.308  1.00  0.00     0.041 C 
HETATM    8  C7  UNL     1      24.331   3.062  51.665  1.00  0.00     0.092 C 
ENDROOT
BRANCH   8   9
HETATM    9  O1  UNL     1      23.970   1.760  51.906  1.00  0.00    -0.349 OA
BRANCH   9  10
HETATM   10  C8  UNL     1      23.410   1.228  53.062  1.00  0.00     0.177 C 
BRANCH  10  11
HETATM   11  C9  UNL     1      23.665  -0.286  53.166  1.00  0.00     0.057 C 
BRANCH  11  12
HETATM   12  C10 UNL     1      24.444  -0.536  54.424  1.00  0.00     0.274 C 
BRANCH  12  13
HETATM   13  N3  UNL     1      25.864  -0.629  54.200  1.00  0.00     0.091 N 
HETATM   14  C11 UNL     1      26.234  -0.860  52.844  1.00  0.00     0.302 C 
HETATM   15  C12 UNL     1      27.716  -1.159  52.776  1.00  0.00     0.302 C 
HETATM   16  N4  UNL     1      28.530  -0.193  53.458  1.00  0.00     0.087 N 
HETATM   17  C13 UNL     1      29.851  -0.806  53.662  1.00  0.00     0.310 C 
HETATM   18  C14 UNL     1      28.063   0.180  54.758  1.00  0.00     0.302 C 
HETATM   19  C15 UNL     1      26.591   0.422  54.850  1.00  0.00     0.302 C 
ENDBRANCH  12  13
ENDBRANCH  11  12
ENDBRANCH  10  11
ENDBRANCH   9  10
ENDBRANCH   8   9
BRANCH   5  20
HETATM   20  N2  UNL     1      23.940   7.514  51.592  1.00  0.00    -0.401 N 
HETATM   21  H6  UNL     1      23.021   8.023  51.447  1.00  0.00     0.156 HD
HETATM   22  H7  UNL     1      24.736   8.111  51.918  1.00  0.00     0.156 HD
ENDBRANCH   5  20
TORSDOF 6
ENDMDL
MODEL 2
REMARK VINA RESULT:      -6.4      3.423      6.724
REMARK  6 active torsions:
REMARK  status: ('A' for Active; 'I' for Inactive)
REMARK    1  A    between atoms: C4_5  and  N2_6 
REMARK    2  A    between atoms: C7_9  and  O1_10 
REMARK    3  A    between atoms: O1_10  and  C8_11 
REMARK    4  A    between atoms: C8_11  and  C9_12 
REMARK    5  A    between atoms: C9_12  and  C10_13 
REMARK    6  A    between atoms: C10_13  and  N3_14 
ROOT
HETATM    1  C1  UNL     1      24.950  -0.657  54.369  1.00  0.00     0.073 C 
HETATM    2  C2  UNL     1      26.267  -0.048  54.021  1.00  0.00     0.058 C 
HETATM    3  N1  UNL     1      27.366  -0.319  54.632  1.00  0.00    -0.286 NA
HETATM    4  C3  UNL     1      28.737   0.121  54.493  1.00  0.00     0.205 C 
HETATM    5  C4  UNL     1      28.864   1.567  54.174  1.00  0.00     0.022 C 
HETATM    6  C5  UNL     1      28.136   2.386  53.398  1.00  0.00     0.029 C 
HETATM    7  C6  UNL     1      26.945   1.930  52.644  1.00  0.00     0.041 C 
HETATM    8  C7  UNL     1      26.140   0.885  52.910  1.00  0.00     0.092 C 
ENDROOT
BRANCH   8   9
HETATM    9  O1  UNL     1      25.149   0.811  51.962  1.00  0.00    -0.349 OA
BRANCH   9  10
HETATM   10  C8  UNL     1      24.356   1.842  51.472  1.00  0.00     0.177 C 
BRANCH  10  11
HETATM   11  C9  UNL     1      22.900   1.386  51.274  1.00  0.00     0.057 C 
BRANCH  11  12
HETATM   12  C10 UNL     1      22.207   1.472  52.601  1.00  0.00     0.274 C 
BRANCH  12  13
HETATM   13  N3  UNL     1      20.869   0.936  52.577  1.00  0.00     0.091 N 
HETATM   14  C11 UNL     1      20.253   0.947  51.292  1.00  0.00     0.302 C 
HETATM   15  C12 UNL     1      18.794   0.573  51.437  1.00  0.00     0.302 C 
HETATM   16  N4  UNL     1      18.579  -0.631  52.189  1.00  0.00     0.087 N 
HETATM   17  C13 UNL     1      17.166  -0.644  52.593  1.00  0.00     0.310 C 
HETATM   18  C14 UNL     1      19.336  -0.729  53.399  1.00  0.00     0.302 C 
HETATM   19  C15 UNL     1      20.765  -0.307  53.282  1.00  0.00     0.302 C 
ENDBRANCH  12  13
ENDBRANCH  11  12
ENDBRANCH  10  11
ENDBRANCH   9  10
ENDBRANCH   8   9
BRANCH   5  20
HETATM   20  N2  UNL     1      29.960   2.229  54.799  1.00  0.00    -0.401 N 
HETATM   21  H6  UNL     1      30.086   3.279  54.710  1.00  0.00     0.156 HD
HETATM   22  H7  UNL     1      30.687   1.738  55.370  1.00  0.00     0.156 HD
ENDBRANCH   5  20
TORSDOF 6
ENDMDL
MODEL 3
REMARK VINA RESULT:      -6.3      2.554      6.766
REMARK  6 active torsions:
REMARK  status: ('A' for Active; 'I' for Inactive)
REMARK    1  A    between atoms: C4_5  and  N2_6 
REMARK    2  A    between atoms: C7_9  and  O1_10 
REMARK    3  A    between atoms: O1_10  and  C8_11 
REMARK    4  A    between atoms: C8_11  and  C9_12 
REMARK    5  A    between atoms: C9_12  and  C10_13 
REMARK    6  A    between atoms: C10_13  and  N3_14 
ROOT
HETATM    1  C1  UNL     1      25.327   2.396  53.644  1.00  0.00     0.073 C 
HETATM    2  C2  UNL     1      26.229   1.229  53.869  1.00  0.00     0.058 C 
HETATM    3  N1  UNL     1      27.339   1.295  54.514  1.00  0.00    -0.286 NA
HETATM    4  C3  UNL     1      28.366   0.338  54.862  1.00  0.00     0.205 C 
HETATM    5  C4  UNL     1      28.649  -0.644  53.784  1.00  0.00     0.022 C 
HETATM    6  C5  UNL     1      27.853  -1.267  52.902  1.00  0.00     0.029 C 
HETATM    7  C6  UNL     1      26.388  -1.053  52.850  1.00  0.00     0.041 C 
HETATM    8  C7  UNL     1      25.687   0.019  53.265  1.00  0.00     0.092 C 
ENDROOT
BRANCH   8   9
HETATM    9  O1  UNL     1      24.348  -0.185  53.035  1.00  0.00    -0.349 OA
BRANCH   9  10
HETATM   10  C8  UNL     1      23.385  -0.627  53.934  1.00  0.00     0.177 C 
BRANCH  10  11
HETATM   11  C9  UNL     1      22.057   0.127  53.751  1.00  0.00     0.057 C 
BRANCH  11  12
HETATM   12  C10 UNL     1      21.724   0.124  52.288  1.00  0.00     0.274 C 
BRANCH  12  13
HETATM   13  N3  UNL     1      21.310   1.415  51.800  1.00  0.00     0.091 N 
HETATM   14  C11 UNL     1      20.398   2.103  52.652  1.00  0.00     0.302 C 
HETATM   15  C12 UNL     1      19.872   3.326  51.934  1.00  0.00     0.302 C 
HETATM   16  N4  UNL     1      20.903   4.154  51.374  1.00  0.00     0.087 N 
HETATM   17  C13 UNL     1      20.263   5.039  50.390  1.00  0.00     0.310 C 
HETATM   18  C14 UNL     1      21.925   3.448  50.666  1.00  0.00     0.302 C 
HETATM   19  C15 UNL     1      22.412   2.206  51.338  1.00  0.00     0.302 C 
ENDBRANCH  12  13
ENDBRANCH  11  12
ENDBRANCH  10  11
ENDBRANCH   9  10
ENDBRANCH   8   9
BRANCH   5  20
HETATM   20  N2  UNL     1      30.020  -1.009  53.643  1.00  0.00    -0.401 N 
HETATM   21  H6  UNL     1      30.410  -1.865  54.132  1.00  0.00     0.156 HD
HETATM   22  H7  UNL     1      30.707  -0.472  53.064  1.00  0.00     0.156 HD
ENDBRANCH   5  20
TORSDOF 6
ENDMDL
MODEL 4
REMARK VINA RESULT:      -6.3      1.703      6.644
REMARK  6 active torsions:
REMARK  status: ('A' for Active; 'I' for Inactive)
REMARK    1  A    between atoms: C4_5  and  N2_6 
REMARK    2  A    between atoms: C7_9  and  O1_10 
REMARK    3  A    between atoms: O1_10  and  C8_11 
REMARK    4  A    between atoms: C8_11  and  C9_12 
REMARK    5  A    between atoms: C9_12  and  C10_13 
REMARK    6  A    between atoms: C10_13  and  N3_14 
ROOT
HETATM    1  C1  UNL     1      27.791   2.545  52.568  1.00  0.00     0.073 C 
HETATM    2  C2  UNL     1      27.686   1.127  53.020  1.00  0.00     0.058 C 
HETATM    3  N1  UNL     1      28.673   0.452  53.493  1.00  0.00    -0.286 NA
HETATM    4  C3  UNL     1      28.831  -0.899  53.988  1.00  0.00     0.205 C 
HETATM    5  C4  UNL     1      28.059  -1.905  53.215  1.00  0.00     0.022 C 
HETATM    6  C5  UNL     1      26.846  -1.865  52.643  1.00  0.00     0.029 C 
HETATM    7  C6  UNL     1      25.973  -0.669  52.692  1.00  0.00     0.041 C 
HETATM    8  C7  UNL     1      26.332   0.619  52.854  1.00  0.00     0.092 C 
ENDROOT
BRANCH   8   9
HETATM    9  O1  UNL     1      25.214   1.416  52.841  1.00  0.00    -0.349 OA
BRANCH   9  10
HETATM   10  C8  UNL     1      24.059   1.258  52.084  1.00  0.00     0.177 C 
BRANCH  10  11
HETATM   11  C9  UNL     1      24.014   2.253  50.912  1.00  0.00     0.057 C 
BRANCH  11  12
HETATM   12  C10 UNL     1      24.308   3.619  51.458  1.00  0.00     0.274 C 
BRANCH  12  13
HETATM   13  N3  UNL     1      25.258   4.354  50.661  1.00  0.00     0.091 N 
HETATM   14  C11 UNL     1      25.870   3.594  49.623  1.00  0.00     0.302 C 
HETATM   15  C12 UNL     1      26.995   4.401  49.012  1.00  0.00     0.302 C 
HETATM   16  N4  UNL     1      26.608   5.730  48.628  1.00  0.00     0.087 N 
HETATM   17  C13 UNL     1      27.844   6.506  48.448  1.00  0.00     0.310 C 
HETATM   18  C14 UNL     1      25.835   6.438  49.602  1.00  0.00     0.302 C 
HETATM   19  C15 UNL     1      24.758   5.633  50.254  1.00  0.00     0.302 C 
ENDBRANCH  12  13
ENDBRANCH  11  12
ENDBRANCH  10  11
ENDBRANCH   9  10
ENDBRANCH   8   9
BRANCH   5  20
HETATM   20  N2  UNL     1      28.712  -3.160  53.036  1.00  0.00    -0.401 N 
HETATM   21  H6  UNL     1      29.354  -3.327  52.208  1.00  0.00     0.156 HD
HETATM   22  H7  UNL     1      28.604  -3.970  53.690  1.00  0.00     0.156 HD
ENDBRANCH   5  20
TORSDOF 6
ENDMDL
MODEL 5
REMARK VINA RESULT:      -6.2      1.661      6.150
REMARK  6 active torsions:
REMARK  status: ('A' for Active; 'I' for Inactive)
REMARK    1  A    between atoms: C4_5  and  N2_6 
REMARK    2  A    between atoms: C7_9  and  O1_10 
REMARK    3  A    between atoms: O1_10  and  C8_11 
REMARK    4  A    between atoms: C8_11  and  C9_12 
REMARK    5  A    between atoms: C9_12  and  C10_13 
REMARK    6  A    between atoms: C10_13  and  N3_14 
ROOT
HETATM    1  C1  UNL     1      26.546   2.879  51.025  1.00  0.00     0.073 C 
HETATM    2  C2  UNL     1      27.041   1.912  52.048  1.00  0.00     0.058 C 
HETATM    3  N1  UNL     1      28.135   2.063  52.706  1.00  0.00    -0.286 NA
HETATM    4  C3  UNL     1      28.819   1.294  53.723  1.00  0.00     0.205 C 
HETATM    5  C4  UNL     1      28.745  -0.174  53.505  1.00  0.00     0.022 C 
HETATM    6  C5  UNL     1      27.766  -0.967  53.043  1.00  0.00     0.029 C 
HETATM    7  C6  UNL     1      26.442  -0.450  52.625  1.00  0.00     0.041 C 
HETATM    8  C7  UNL     1      26.127   0.787  52.196  1.00  0.00     0.092 C 
ENDROOT
BRANCH   8   9
HETATM    9  O1  UNL     1      24.786   0.850  51.908  1.00  0.00    -0.349 OA
BRANCH   9  10
HETATM   10  C8  UNL     1      23.717   0.776  52.794  1.00  0.00     0.177 C 
BRANCH  10  11
HETATM   11  C9  UNL     1      22.372   0.929  52.064  1.00  0.00     0.057 C 
BRANCH  11  12
HETATM   12  C10 UNL     1      21.878   2.327  52.296  1.00  0.00     0.274 C 
BRANCH  12  13
HETATM   13  N3  UNL     1      22.673   3.325  51.626  1.00  0.00     0.091 N 
HETATM   14  C11 UNL     1      22.424   3.434  50.227  1.00  0.00     0.302 C 
HETATM   15  C12 UNL     1      23.463   4.344  49.607  1.00  0.00     0.302 C 
HETATM   16  N4  UNL     1      23.607   5.601  50.285  1.00  0.00     0.087 N 
HETATM   17  C13 UNL     1      24.885   6.184  49.852  1.00  0.00     0.310 C 
HETATM   18  C14 UNL     1      23.677   5.512  51.711  1.00  0.00     0.302 C 
HETATM   19  C15 UNL     1      22.694   4.572  52.331  1.00  0.00     0.302 C 
ENDBRANCH  12  13
ENDBRANCH  11  12
ENDBRANCH  10  11
ENDBRANCH   9  10
ENDBRANCH   8   9
BRANCH   5  20
HETATM   20  N2  UNL     1      29.926  -0.896  53.844  1.00  0.00    -0.401 N 
HETATM   21  H6  UNL     1      30.274  -0.933  54.845  1.00  0.00     0.156 HD
HETATM   22  H7  UNL     1      30.506  -1.421  53.148  1.00  0.00     0.156 HD
ENDBRANCH   5  20
TORSDOF 6
ENDMDL
MODEL 6
REMARK VINA RESULT:      -6.2      3.954      7.289
REMARK  6 active torsions:
REMARK  status: ('A' for Active; 'I' for Inactive)
REMARK    1  A    between atoms: C4_5  and  N2_6 
REMARK    2  A    between atoms: C7_9  and  O1_10 
REMARK    3  A    between atoms: O1_10  and  C8_11 
REMARK    4  A    between atoms: C8_11  and  C9_12 
REMARK    5  A    between atoms: C9_12  and  C10_13 
REMARK    6  A    between atoms: C10_13  and  N3_14 
ROOT
HETATM    1  C1  UNL     1      24.995   2.776  53.409  1.00  0.00     0.073 C 
HETATM    2  C2  UNL     1      25.855   1.592  53.698  1.00  0.00     0.058 C 
HETATM    3  N1  UNL     1      27.052   1.672  54.160  1.00  0.00    -0.286 NA
HETATM    4  C3  UNL     1      28.066   0.704  54.517  1.00  0.00     0.205 C 
HETATM    5  C4  UNL     1      28.127  -0.457  53.591  1.00  0.00     0.022 C 
HETATM    6  C5  UNL     1      27.173  -1.147  52.948  1.00  0.00     0.029 C 
HETATM    7  C6  UNL     1      25.731  -0.828  53.068  1.00  0.00     0.041 C 
HETATM    8  C7  UNL     1      25.162   0.348  53.390  1.00  0.00     0.092 C 
ENDROOT
BRANCH   8   9
HETATM    9  O1  UNL     1      23.795   0.217  53.389  1.00  0.00    -0.349 OA
BRANCH   9  10
HETATM   10  C8  UNL     1      23.042  -0.887  53.773  1.00  0.00     0.177 C 
BRANCH  10  11
HETATM   11  C9  UNL     1      21.671  -0.466  54.330  1.00  0.00     0.057 C 
BRANCH  11  12
HETATM   12  C10 UNL     1      21.119   0.603  53.434  1.00  0.00     0.274 C 
BRANCH  12  13
HETATM   13  N3  UNL     1      19.795   0.304  52.948  1.00  0.00     0.091 N 
HETATM   14  C11 UNL     1      19.633   0.466  51.542  1.00  0.00     0.302 C 
HETATM   15  C12 UNL     1      18.165   0.343  51.193  1.00  0.00     0.302 C 
HETATM   16  N4  UNL     1      17.540  -0.832  51.733  1.00  0.00     0.087 N 
HETATM   17  C13 UNL     1      16.088  -0.616  51.675  1.00  0.00     0.310 C 
HETATM   18  C14 UNL     1      17.845  -1.100  53.105  1.00  0.00     0.302 C 
HETATM   19  C15 UNL     1      19.283  -0.926  53.474  1.00  0.00     0.302 C 
ENDBRANCH  12  13
ENDBRANCH  11  12
ENDBRANCH  10  11
ENDBRANCH   9  10
ENDBRANCH   8   9
BRANCH   5  20
HETATM   20  N2  UNL     1      29.438  -0.947  53.322  1.00  0.00    -0.401 N 
HETATM   21  H6  UNL     1      30.293  -0.473  53.734  1.00  0.00     0.156 HD
HETATM   22  H7  UNL     1      29.635  -1.780  52.720  1.00  0.00     0.156 HD
ENDBRANCH   5  20
TORSDOF 6
ENDMDL
MODEL 7
REMARK VINA RESULT:      -6.2      2.632      6.512
REMARK  6 active torsions:
REMARK  status: ('A' for Active; 'I' for Inactive)
REMARK    1  A    between atoms: C4_5  and  N2_6 
REMARK    2  A    between atoms: C7_9  and  O1_10 
REMARK    3  A    between atoms: O1_10  and  C8_11 
REMARK    4  A    between atoms: C8_11  and  C9_12 
REMARK    5  A    between atoms: C9_12  and  C10_13 
REMARK    6  A    between atoms: C10_13  and  N3_14 
ROOT
HETATM    1  C1  UNL     1      26.464   2.884  51.006  1.00  0.00     0.073 C 
HETATM    2  C2  UNL     1      26.998   1.936  52.027  1.00  0.00     0.058 C 
HETATM    3  N1  UNL     1      28.119   2.096  52.636  1.00  0.00    -0.286 NA
HETATM    4  C3  UNL     1      28.842   1.346  53.640  1.00  0.00     0.205 C 
HETATM    5  C4  UNL     1      28.754  -0.126  53.455  1.00  0.00     0.022 C 
HETATM    6  C5  UNL     1      27.754  -0.924  53.051  1.00  0.00     0.029 C 
HETATM    7  C6  UNL     1      26.416  -0.411  52.677  1.00  0.00     0.041 C 
HETATM    8  C7  UNL     1      26.088   0.819  52.237  1.00  0.00     0.092 C 
ENDROOT
BRANCH   8   9
HETATM    9  O1  UNL     1      24.736   0.882  52.004  1.00  0.00    -0.349 OA
BRANCH   9  10
HETATM   10  C8  UNL     1      23.706   0.872  52.937  1.00  0.00     0.177 C 
BRANCH  10  11
HETATM   11  C9  UNL     1      22.342   0.634  52.267  1.00  0.00     0.057 C 
BRANCH  11  12
HETATM   12  C10 UNL     1      21.724   1.974  51.995  1.00  0.00     0.274 C 
BRANCH  12  13
HETATM   13  N3  UNL     1      21.782   2.352  50.605  1.00  0.00     0.091 N 
HETATM   14  C11 UNL     1      22.746   3.359  50.309  1.00  0.00     0.302 C 
HETATM   15  C12 UNL     1      22.557   3.823  48.881  1.00  0.00     0.302 C 
HETATM   16  N4  UNL     1      22.505   2.750  47.928  1.00  0.00     0.087 N 
HETATM   17  C13 UNL     1      21.922   3.295  46.693  1.00  0.00     0.310 C 
HETATM   18  C14 UNL     1      21.673   1.649  48.305  1.00  0.00     0.302 C 
HETATM   19  C15 UNL     1      21.809   1.219  49.730  1.00  0.00     0.302 C 
ENDBRANCH  12  13
ENDBRANCH  11  12
ENDBRANCH  10  11
ENDBRANCH   9  10
ENDBRANCH   8   9
BRANCH   5  20
HETATM   20  N2  UNL     1      29.946  -0.845  53.759  1.00  0.00    -0.401 N 
HETATM   21  H6  UNL     1      29.904  -1.807  54.206  1.00  0.00     0.156 HD
HETATM   22  H7  UNL     1      30.909  -0.483  53.567  1.00  0.00     0.156 HD
ENDBRANCH   5  20
TORSDOF 6
ENDMDL
MODEL 8
REMARK VINA RESULT:      -6.2      1.971      6.563
REMARK  6 active torsions:
REMARK  status: ('A' for Active; 'I' for Inactive)
REMARK    1  A    between atoms: C4_5  and  N2_6 
REMARK    2  A    between atoms: C7_9  and  O1_10 
REMARK    3  A    between atoms: O1_10  and  C8_11 
REMARK    4  A    between atoms: C8_11  and  C9_12 
REMARK    5  A    between atoms: C9_12  and  C10_13 
REMARK    6  A    between atoms: C10_13  and  N3_14 
ROOT
HETATM    1  C1  UNL     1      24.670  -0.438  53.990  1.00  0.00     0.073 C 
HETATM    2  C2  UNL     1      26.048   0.083  53.760  1.00  0.00     0.058 C 
HETATM    3  N1  UNL     1      27.077  -0.286  54.437  1.00  0.00    -0.286 NA
HETATM    4  C3  UNL     1      28.482   0.057  54.413  1.00  0.00     0.205 C 
HETATM    5  C4  UNL     1      28.735   1.498  54.155  1.00  0.00     0.022 C 
HETATM    6  C5  UNL     1      28.126   2.391  53.360  1.00  0.00     0.029 C 
HETATM    7  C6  UNL     1      26.965   2.047  52.506  1.00  0.00     0.041 C 
HETATM    8  C7  UNL     1      26.070   1.056  52.676  1.00  0.00     0.092 C 
ENDROOT
BRANCH   8   9
HETATM    9  O1  UNL     1      25.149   1.084  51.657  1.00  0.00    -0.349 OA
BRANCH   9  10
HETATM   10  C8  UNL     1      24.031   1.901  51.538  1.00  0.00     0.177 C 
BRANCH  10  11
HETATM   11  C9  UNL     1      24.102   2.769  50.270  1.00  0.00     0.057 C 
BRANCH  11  12
HETATM   12  C10 UNL     1      24.181   4.205  50.700  1.00  0.00     0.274 C 
BRANCH  12  13
HETATM   13  N3  UNL     1      25.078   4.989  49.889  1.00  0.00     0.091 N 
HETATM   14  C11 UNL     1      25.130   6.370  50.235  1.00  0.00     0.302 C 
HETATM   15  C12 UNL     1      25.923   7.117  49.184  1.00  0.00     0.302 C 
HETATM   16  N4  UNL     1      27.201   6.526  48.898  1.00  0.00     0.087 N 
HETATM   17  C13 UNL     1      27.659   7.085  47.618  1.00  0.00     0.310 C 
HETATM   18  C14 UNL     1      27.183   5.107  48.726  1.00  0.00     0.302 C 
HETATM   19  C15 UNL     1      26.357   4.363  49.724  1.00  0.00     0.302 C 
ENDBRANCH  12  13
ENDBRANCH  11  12
ENDBRANCH  10  11
ENDBRANCH   9  10
ENDBRANCH   8   9
BRANCH   5  20
HETATM   20  N2  UNL     1      29.826   2.059  54.881  1.00  0.00    -0.401 N 
HETATM   21  H6  UNL     1      30.633   2.527  54.376  1.00  0.00     0.156 HD
HETATM   22  H7  UNL     1      29.897   2.047  55.925  1.00  0.00     0.156 HD
ENDBRANCH   5  20
TORSDOF 6
ENDMDL
MODEL 9
REMARK VINA RESULT:      -6.1      3.324      6.937
REMARK  6 active torsions:
REMARK  status: ('A' for Active; 'I' for Inactive)
REMARK    1  A    between atoms: C4_5  and  N2_6 
REMARK    2  A    between atoms: C7_9  and  O1_10 
REMARK    3  A    between atoms: O1_10  and  C8_11 
REMARK    4  A    between atoms: C8_11  and  C9_12 
REMARK    5  A    between atoms: C9_12  and  C10_13 
REMARK    6  A    between atoms: C10_13  and  N3_14 
ROOT
HETATM    1  C1  UNL     1      26.445   2.766  51.118  1.00  0.00     0.073 C 
HETATM    2  C2  UNL     1      27.024   1.826  52.121  1.00  0.00     0.058 C 
HETATM    3  N1  UNL     1      28.153   2.010  52.708  1.00  0.00    -0.286 NA
HETATM    4  C3  UNL     1      28.916   1.271  53.690  1.00  0.00     0.205 C 
HETATM    5  C4  UNL     1      28.861  -0.201  53.497  1.00  0.00     0.022 C 
HETATM    6  C5  UNL     1      27.873  -1.022  53.108  1.00  0.00     0.029 C 
HETATM    7  C6  UNL     1      26.515  -0.539  52.766  1.00  0.00     0.041 C 
HETATM    8  C7  UNL     1      26.147   0.684  52.341  1.00  0.00     0.092 C 
ENDROOT
BRANCH   8   9
HETATM    9  O1  UNL     1      24.789   0.715  52.137  1.00  0.00    -0.349 OA
BRANCH   9  10
HETATM   10  C8  UNL     1      23.791   0.993  53.063  1.00  0.00     0.177 C 
BRANCH  10  11
HETATM   11  C9  UNL     1      22.637  -0.019  52.966  1.00  0.00     0.057 C 
BRANCH  11  12
HETATM   12  C10 UNL     1      21.459   0.556  53.697  1.00  0.00     0.274 C 
BRANCH  12  13
HETATM   13  N3  UNL     1      20.419   1.023  52.815  1.00  0.00     0.091 N 
HETATM   14  C11 UNL     1      20.418   2.431  52.600  1.00  0.00     0.302 C 
HETATM   15  C12 UNL     1      19.162   2.818  51.849  1.00  0.00     0.302 C 
HETATM   16  N4  UNL     1      18.932   2.035  50.667  1.00  0.00     0.087 N 
HETATM   17  C13 UNL     1      17.525   2.226  50.288  1.00  0.00     0.310 C 
HETATM   18  C14 UNL     1      19.108   0.625  50.835  1.00  0.00     0.302 C 
HETATM   19  C15 UNL     1      20.315   0.233  51.625  1.00  0.00     0.302 C 
ENDBRANCH  12  13
ENDBRANCH  11  12
ENDBRANCH  10  11
ENDBRANCH   9  10
ENDBRANCH   8   9
BRANCH   5  20
HETATM   20  N2  UNL     1      30.077  -0.892  53.771  1.00  0.00    -0.401 N 
HETATM   21  H6  UNL     1      30.529  -1.513  53.039  1.00  0.00     0.156 HD
HETATM   22  H7  UNL     1      30.586  -0.833  54.684  1.00  0.00     0.156 HD
ENDBRANCH   5  20
TORSDOF 6
ENDMDL
