MODEL 1
REMARK VINA RESULT:      -9.5      0.000      0.000
REMARK  7 active torsions:
REMARK  status: ('A' for Active; 'I' for Inactive)
REMARK    1  A    between atoms: N1_2  and  C2_3 
REMARK    2  A    between atoms: C2_3  and  C3_4 
REMARK    3  A    between atoms: C3_4  and  C4_5 
REMARK    4  A    between atoms: C4_5  and  C5_6 
REMARK    5  A    between atoms: C5_6  and  C6_8 
REMARK    6  A    between atoms: C13_17  and  N4_18 
REMARK    7  A    between atoms: N4_18  and  C14_19 
ROOT
HETATM    1  C6  UNL     1      23.838   2.666  49.959  1.00  0.00    -0.011 C 
HETATM    2  C7  UNL     1      23.715   2.003  51.075  1.00  0.00     0.027 C 
HETATM    3  C8  UNL     1      22.646   1.153  51.584  1.00  0.00     0.021 A 
HETATM    4  C9  UNL     1      21.365   0.830  51.126  1.00  0.00     0.068 A 
HETATM    5  N2  UNL     1      20.546  -0.003  51.795  1.00  0.00    -0.259 NA
HETATM    6  C10 UNL     1      21.005  -0.528  52.946  1.00  0.00     0.142 A 
HETATM    7  C11 UNL     1      22.251  -0.240  53.432  1.00  0.00     0.089 A 
HETATM    8  C12 UNL     1      22.647  -0.857  54.682  1.00  0.00     0.103 C 
HETATM    9  N3  UNL     1      22.962  -1.343  55.695  1.00  0.00    -0.191 NA
HETATM   10  C13 UNL     1      23.101   0.610  52.757  1.00  0.00     0.067 A 
HETATM   11  C20 UNL     1      20.621   1.242  49.934  1.00  0.00     0.028 C 
HETATM   12  C21 UNL     1      21.047   1.643  48.732  1.00  0.00    -0.024 C 
HETATM   13  C22 UNL     1      22.376   1.840  48.099  1.00  0.00     0.032 C 
HETATM   14  C23 UNL     1      23.163   2.980  48.690  1.00  0.00     0.046 C 
ENDROOT
BRANCH  10  15
HETATM   15  N4  UNL     1      24.373   0.895  53.273  1.00  0.00    -0.354 N 
HETATM   16  H11 UNL     1      24.174   1.786  53.780  1.00  0.00     0.166 HD
BRANCH  15  17
HETATM   17  C14 UNL     1      25.643   0.253  53.206  1.00  0.00     0.034 A 
HETATM   18  C15 UNL     1      25.686  -1.002  52.636  1.00  0.00     0.032 A 
HETATM   19  C16 UNL     1      26.955  -1.587  52.596  1.00  0.00     0.046 A 
HETATM   20  C17 UNL     1      28.062  -0.905  53.109  1.00  0.00     0.138 A 
HETATM   21  F1  UNL     1      29.302  -1.486  53.066  1.00  0.00    -0.204 F 
HETATM   22  C18 UNL     1      27.935   0.369  53.672  1.00  0.00     0.074 A 
HETATM   23 CL1  UNL     1      29.328   1.215  54.311  1.00  0.00    -0.081 Cl
HETATM   24  C19 UNL     1      26.697   0.975  53.728  1.00  0.00     0.056 A 
ENDBRANCH  15  17
ENDBRANCH  10  15
BRANCH   1  25
HETATM   25  C5  UNL     1      25.135   3.307  50.072  1.00  0.00     0.161 C 
HETATM   26  O1  UNL     1      25.911   3.315  51.090  1.00  0.00    -0.292 OA
BRANCH  25  27
HETATM   27  C4  UNL     1      26.204   4.084  49.536  1.00  0.00     0.078 C 
BRANCH  27  28
HETATM   28  C3  UNL     1      26.710   5.104  48.908  1.00  0.00     0.032 C 
BRANCH  28  29
HETATM   29  C2  UNL     1      27.147   6.440  48.463  1.00  0.00     0.275 C 
BRANCH  29  30
HETATM   30  N1  UNL     1      27.300   7.340  49.608  1.00  0.00     0.079 N 
HETATM   31  C1  UNL     1      25.966   7.688  50.011  1.00  0.00     0.306 C 
HETATM   32  H4  UNL     1      27.830   6.848  50.353  1.00  0.00     0.315 HD
ENDBRANCH  29  30
ENDBRANCH  28  29
ENDBRANCH  27  28
ENDBRANCH  25  27
ENDBRANCH   1  25
TORSDOF 7
ENDMDL
MODEL 2
REMARK VINA RESULT:      -9.0      3.322      5.743
REMARK  7 active torsions:
REMARK  status: ('A' for Active; 'I' for Inactive)
REMARK    1  A    between atoms: N1_2  and  C2_3 
REMARK    2  A    between atoms: C2_3  and  C3_4 
REMARK    3  A    between atoms: C3_4  and  C4_5 
REMARK    4  A    between atoms: C4_5  and  C5_6 
REMARK    5  A    between atoms: C5_6  and  C6_8 
REMARK    6  A    between atoms: C13_17  and  N4_18 
REMARK    7  A    between atoms: N4_18  and  C14_19 
ROOT
HETATM    1  C6  UNL     1      23.298   0.200  53.401  1.00  0.00    -0.011 C 
HETATM    2  C7  UNL     1      23.075   1.374  52.881  1.00  0.00     0.027 C 
HETATM    3  C8  UNL     1      21.841   2.031  52.469  1.00  0.00     0.021 A 
HETATM    4  C9  UNL     1      20.506   1.622  52.387  1.00  0.00     0.068 A 
HETATM    5  N2  UNL     1      19.524   2.438  51.963  1.00  0.00    -0.259 NA
HETATM    6  C10 UNL     1      19.870   3.690  51.609  1.00  0.00     0.142 A 
HETATM    7  C11 UNL     1      21.163   4.134  51.673  1.00  0.00     0.089 A 
HETATM    8  C12 UNL     1      21.428   5.499  51.268  1.00  0.00     0.103 C 
HETATM    9  N3  UNL     1      21.646   6.595  50.929  1.00  0.00    -0.191 NA
HETATM   10  C13 UNL     1      22.179   3.309  52.107  1.00  0.00     0.067 A 
HETATM   11  C20 UNL     1      19.854   0.349  52.699  1.00  0.00     0.028 C 
HETATM   12  C21 UNL     1      20.194  -0.621  53.555  1.00  0.00    -0.024 C 
HETATM   13  C22 UNL     1      21.307  -0.835  54.514  1.00  0.00     0.032 C 
HETATM   14  C23 UNL     1      22.644  -1.038  53.851  1.00  0.00     0.046 C 
ENDROOT
BRANCH  10  15
HETATM   15  N4  UNL     1      23.498   3.782  52.161  1.00  0.00    -0.354 N 
HETATM   16  H11 UNL     1      23.537   4.111  53.151  1.00  0.00     0.166 HD
BRANCH  15  17
HETATM   17  C14 UNL     1      24.571   3.856  51.226  1.00  0.00     0.034 A 
HETATM   18  C15 UNL     1      25.415   2.768  51.148  1.00  0.00     0.032 A 
HETATM   19  C16 UNL     1      26.450   2.893  50.217  1.00  0.00     0.046 A 
HETATM   20  C17 UNL     1      26.571   4.054  49.449  1.00  0.00     0.138 A 
HETATM   21  F1  UNL     1      27.588   4.168  48.538  1.00  0.00    -0.204 F 
HETATM   22  C18 UNL     1      25.671   5.116  49.587  1.00  0.00     0.074 A 
HETATM   23 CL1  UNL     1      25.830   6.566  48.621  1.00  0.00    -0.081 Cl
HETATM   24  C19 UNL     1      24.638   5.026  50.497  1.00  0.00     0.056 A 
ENDBRANCH  15  17
ENDBRANCH  10  15
BRANCH   1  25
HETATM   25  C5  UNL     1      24.739   0.161  53.575  1.00  0.00     0.161 C 
HETATM   26  O1  UNL     1      25.603  -0.352  52.782  1.00  0.00    -0.292 OA
BRANCH  25  27
HETATM   27  C4  UNL     1      25.924   0.452  54.313  1.00  0.00     0.078 C 
BRANCH  27  28
HETATM   28  C3  UNL     1      27.195   0.359  54.572  1.00  0.00     0.032 C 
BRANCH  28  29
HETATM   29  C2  UNL     1      28.669   0.336  54.528  1.00  0.00     0.275 C 
BRANCH  29  30
HETATM   30  N1  UNL     1      29.211   1.683  54.714  1.00  0.00     0.079 N 
HETATM   31  C1  UNL     1      28.683   2.469  53.633  1.00  0.00     0.306 C 
HETATM   32  H4  UNL     1      28.921   2.036  55.646  1.00  0.00     0.315 HD
ENDBRANCH  29  30
ENDBRANCH  28  29
ENDBRANCH  27  28
ENDBRANCH  25  27
ENDBRANCH   1  25
TORSDOF 7
ENDMDL
MODEL 3
REMARK VINA RESULT:      -8.9      3.248      5.482
REMARK  7 active torsions:
REMARK  status: ('A' for Active; 'I' for Inactive)
REMARK    1  A    between atoms: N1_2  and  C2_3 
REMARK    2  A    between atoms: C2_3  and  C3_4 
REMARK    3  A    between atoms: C3_4  and  C4_5 
REMARK    4  A    between atoms: C4_5  and  C5_6 
REMARK    5  A    between atoms: C5_6  and  C6_8 
REMARK    6  A    between atoms: C13_17  and  N4_18 
REMARK    7  A    between atoms: N4_18  and  C14_19 
ROOT
HETATM    1  C6  UNL     1      25.602   1.277  52.334  1.00  0.00    -0.011 C 
HETATM    2  C7  UNL     1      24.354   1.611  52.162  1.00  0.00     0.027 C 
HETATM    3  C8  UNL     1      23.128   1.126  52.783  1.00  0.00     0.021 A 
HETATM    4  C9  UNL     1      22.840   0.095  53.682  1.00  0.00     0.068 A 
HETATM    5  N2  UNL     1      21.591  -0.159  54.116  1.00  0.00    -0.259 NA
HETATM    6  C10 UNL     1      20.603   0.627  53.649  1.00  0.00     0.142 A 
HETATM    7  C11 UNL     1      20.838   1.647  52.769  1.00  0.00     0.089 A 
HETATM    8  C12 UNL     1      19.703   2.431  52.327  1.00  0.00     0.103 C 
HETATM    9  N3  UNL     1      18.787   3.056  51.960  1.00  0.00    -0.191 NA
HETATM   10  C13 UNL     1      22.112   1.919  52.316  1.00  0.00     0.067 A 
HETATM   11  C20 UNL     1      23.695  -0.894  54.341  1.00  0.00     0.028 C 
HETATM   12  C21 UNL     1      24.991  -0.850  54.666  1.00  0.00    -0.024 C 
HETATM   13  C22 UNL     1      26.079   0.149  54.519  1.00  0.00     0.032 C 
HETATM   14  C23 UNL     1      26.494   0.385  53.091  1.00  0.00     0.046 C 
ENDROOT
BRANCH  10  15
HETATM   15  N4  UNL     1      22.331   2.967  51.412  1.00  0.00    -0.354 N 
HETATM   16  H11 UNL     1      22.534   3.747  52.075  1.00  0.00     0.166 HD
BRANCH  15  17
HETATM   17  C14 UNL     1      22.314   3.079  49.991  1.00  0.00     0.034 A 
HETATM   18  C15 UNL     1      21.975   1.950  49.274  1.00  0.00     0.032 A 
HETATM   19  C16 UNL     1      21.975   2.114  47.886  1.00  0.00     0.046 A 
HETATM   20  C17 UNL     1      22.300   3.350  47.321  1.00  0.00     0.138 A 
HETATM   21  F1  UNL     1      22.296   3.502  45.960  1.00  0.00    -0.204 F 
HETATM   22  C18 UNL     1      22.632   4.450  48.119  1.00  0.00     0.074 A 
HETATM   23 CL1  UNL     1      23.038   5.994  47.403  1.00  0.00    -0.081 Cl
HETATM   24  C19 UNL     1      22.643   4.323  49.493  1.00  0.00     0.056 A 
ENDBRANCH  15  17
ENDBRANCH  10  15
BRANCH   1  25
HETATM   25  C5  UNL     1      26.325   2.134  51.412  1.00  0.00     0.161 C 
HETATM   26  O1  UNL     1      27.498   2.625  51.566  1.00  0.00    -0.292 OA
BRANCH  25  27
HETATM   27  C4  UNL     1      26.431   2.857  50.187  1.00  0.00     0.078 C 
BRANCH  27  28
HETATM   28  C3  UNL     1      26.508   3.937  49.468  1.00  0.00     0.032 C 
BRANCH  28  29
HETATM   29  C2  UNL     1      26.541   5.321  48.959  1.00  0.00     0.275 C 
BRANCH  29  30
HETATM   30  N1  UNL     1      27.911   5.836  48.954  1.00  0.00     0.079 N 
HETATM   31  C1  UNL     1      27.854   7.090  48.256  1.00  0.00     0.306 C 
HETATM   32  H4  UNL     1      28.235   5.937  49.935  1.00  0.00     0.315 HD
ENDBRANCH  29  30
ENDBRANCH  28  29
ENDBRANCH  27  28
ENDBRANCH  25  27
ENDBRANCH   1  25
TORSDOF 7
ENDMDL
MODEL 4
REMARK VINA RESULT:      -8.8      3.140      6.010
REMARK  7 active torsions:
REMARK  status: ('A' for Active; 'I' for Inactive)
REMARK    1  A    between atoms: N1_2  and  C2_3 
REMARK    2  A    between atoms: C2_3  and  C3_4 
REMARK    3  A    between atoms: C3_4  and  C4_5 
REMARK    4  A    between atoms: C4_5  and  C5_6 
REMARK    5  A    between atoms: C5_6  and  C6_8 
REMARK    6  A    between atoms: C13_17  and  N4_18 
REMARK    7  A    between atoms: N4_18  and  C14_19 
ROOT
HETATM    1  C6  UNL     1      23.123   0.238  53.174  1.00  0.00    -0.011 C 
HETATM    2  C7  UNL     1      22.958   0.799  52.009  1.00  0.00     0.027 C 
HETATM    3  C8  UNL     1      21.769   0.999  51.191  1.00  0.00     0.021 A 
HETATM    4  C9  UNL     1      20.436   0.589  51.302  1.00  0.00     0.068 A 
HETATM    5  N2  UNL     1      19.502   0.912  50.389  1.00  0.00    -0.259 NA
HETATM    6  C10 UNL     1      19.894   1.658  49.340  1.00  0.00     0.142 A 
HETATM    7  C11 UNL     1      21.186   2.082  49.190  1.00  0.00     0.089 A 
HETATM    8  C12 UNL     1      21.503   2.879  48.023  1.00  0.00     0.103 C 
HETATM    9  N3  UNL     1      21.764   3.510  47.076  1.00  0.00    -0.191 NA
HETATM   10  C13 UNL     1      22.154   1.759  50.118  1.00  0.00     0.067 A 
HETATM   11  C20 UNL     1      19.742  -0.210  52.314  1.00  0.00     0.028 C 
HETATM   12  C21 UNL     1      20.002  -0.395  53.611  1.00  0.00    -0.024 C 
HETATM   13  C22 UNL     1      21.039   0.091  54.556  1.00  0.00     0.032 C 
HETATM   14  C23 UNL     1      22.417  -0.445  54.268  1.00  0.00     0.046 C 
ENDROOT
BRANCH  10  15
HETATM   15  N4  UNL     1      23.473   2.200  49.944  1.00  0.00    -0.354 N 
HETATM   16  H11 UNL     1      23.940   1.300  49.695  1.00  0.00     0.166 HD
BRANCH  15  17
HETATM   17  C14 UNL     1      24.124   3.465  50.045  1.00  0.00     0.034 A 
HETATM   18  C15 UNL     1      23.496   4.439  50.793  1.00  0.00     0.032 A 
HETATM   19  C16 UNL     1      24.176   5.658  50.859  1.00  0.00     0.046 A 
HETATM   20  C17 UNL     1      25.396   5.823  50.197  1.00  0.00     0.138 A 
HETATM   21  F1  UNL     1      26.055   7.021  50.267  1.00  0.00    -0.204 F 
HETATM   22  C18 UNL     1      25.968   4.783  49.458  1.00  0.00     0.074 A 
HETATM   23 CL1  UNL     1      27.497   4.997  48.633  1.00  0.00    -0.081 Cl
HETATM   24  C19 UNL     1      25.324   3.565  49.371  1.00  0.00     0.056 A 
ENDBRANCH  15  17
ENDBRANCH  10  15
BRANCH   1  25
HETATM   25  C5  UNL     1      24.547   0.367  53.427  1.00  0.00     0.161 C 
HETATM   26  O1  UNL     1      25.420   0.931  52.680  1.00  0.00    -0.292 OA
BRANCH  25  27
HETATM   27  C4  UNL     1      25.706   0.150  54.230  1.00  0.00     0.078 C 
BRANCH  27  28
HETATM   28  C3  UNL     1      26.958   0.302  54.544  1.00  0.00     0.032 C 
BRANCH  28  29
HETATM   29  C2  UNL     1      28.429   0.254  54.633  1.00  0.00     0.275 C 
BRANCH  29  30
HETATM   30  N1  UNL     1      28.977   1.597  54.834  1.00  0.00     0.079 N 
HETATM   31  C1  UNL     1      28.655   2.332  53.642  1.00  0.00     0.306 C 
HETATM   32  H4  UNL     1      28.553   2.009  55.687  1.00  0.00     0.315 HD
ENDBRANCH  29  30
ENDBRANCH  28  29
ENDBRANCH  27  28
ENDBRANCH  25  27
ENDBRANCH   1  25
TORSDOF 7
ENDMDL
MODEL 5
REMARK VINA RESULT:      -8.4      3.307      5.489
REMARK  7 active torsions:
REMARK  status: ('A' for Active; 'I' for Inactive)
REMARK    1  A    between atoms: N1_2  and  C2_3 
REMARK    2  A    between atoms: C2_3  and  C3_4 
REMARK    3  A    between atoms: C3_4  and  C4_5 
REMARK    4  A    between atoms: C4_5  and  C5_6 
REMARK    5  A    between atoms: C5_6  and  C6_8 
REMARK    6  A    between atoms: C13_17  and  N4_18 
REMARK    7  A    between atoms: N4_18  and  C14_19 
ROOT
HETATM    1  C6  UNL     1      26.174   2.001  51.694  1.00  0.00    -0.011 C 
HETATM    2  C7  UNL     1      24.923   1.634  51.693  1.00  0.00     0.027 C 
HETATM    3  C8  UNL     1      24.170   0.758  52.582  1.00  0.00     0.021 A 
HETATM    4  C9  UNL     1      24.521  -0.060  53.660  1.00  0.00     0.068 A 
HETATM    5  N2  UNL     1      23.617  -0.793  54.337  1.00  0.00    -0.259 NA
HETATM    6  C10 UNL     1      22.334  -0.714  53.937  1.00  0.00     0.142 A 
HETATM    7  C11 UNL     1      21.945   0.072  52.888  1.00  0.00     0.089 A 
HETATM    8  C12 UNL     1      20.539   0.083  52.538  1.00  0.00     0.103 C 
HETATM    9  N3  UNL     1      19.409   0.083  52.246  1.00  0.00    -0.191 NA
HETATM   10  C13 UNL     1      22.860   0.829  52.186  1.00  0.00     0.067 A 
HETATM   11  C20 UNL     1      25.810  -0.334  54.300  1.00  0.00     0.028 C 
HETATM   12  C21 UNL     1      26.918   0.408  54.386  1.00  0.00    -0.024 C 
HETATM   13  C22 UNL     1      27.322   1.754  53.907  1.00  0.00     0.032 C 
HETATM   14  C23 UNL     1      27.450   1.848  52.409  1.00  0.00     0.046 C 
ENDROOT
BRANCH  10  15
HETATM   15  N4  UNL     1      22.442   1.626  51.112  1.00  0.00    -0.354 N 
HETATM   16  H11 UNL     1      22.251   0.890  50.396  1.00  0.00     0.166 HD
BRANCH  15  17
HETATM   17  C14 UNL     1      22.279   3.028  50.914  1.00  0.00     0.034 A 
HETATM   18  C15 UNL     1      22.086   3.805  52.038  1.00  0.00     0.032 A 
HETATM   19  C16 UNL     1      21.932   5.171  51.788  1.00  0.00     0.046 A 
HETATM   20  C17 UNL     1      21.978   5.659  50.479  1.00  0.00     0.138 A 
HETATM   21  F1  UNL     1      21.826   6.999  50.243  1.00  0.00    -0.204 F 
HETATM   22  C18 UNL     1      22.179   4.804  49.391  1.00  0.00     0.074 A 
HETATM   23 CL1  UNL     1      22.236   5.423  47.755  1.00  0.00    -0.081 Cl
HETATM   24  C19 UNL     1      22.335   3.449  49.601  1.00  0.00     0.056 A 
ENDBRANCH  15  17
ENDBRANCH  10  15
BRANCH   1  25
HETATM   25  C5  UNL     1      26.282   2.880  50.544  1.00  0.00     0.161 C 
HETATM   26  O1  UNL     1      27.089   2.770  49.556  1.00  0.00    -0.292 OA
BRANCH  25  27
HETATM   27  C4  UNL     1      25.883   4.028  49.797  1.00  0.00     0.078 C 
BRANCH  27  28
HETATM   28  C3  UNL     1      25.851   5.300  49.533  1.00  0.00     0.032 C 
BRANCH  28  29
HETATM   29  C2  UNL     1      26.151   6.693  49.154  1.00  0.00     0.275 C 
BRANCH  29  30
HETATM   30  N1  UNL     1      27.583   6.966  49.284  1.00  0.00     0.079 N 
HETATM   31  C1  UNL     1      28.195   6.403  48.111  1.00  0.00     0.306 C 
HETATM   32  H4  UNL     1      27.725   7.991  49.358  1.00  0.00     0.315 HD
ENDBRANCH  29  30
ENDBRANCH  28  29
ENDBRANCH  27  28
ENDBRANCH  25  27
ENDBRANCH   1  25
TORSDOF 7
ENDMDL
MODEL 6
REMARK VINA RESULT:      -8.1      3.309      6.001
REMARK  7 active torsions:
REMARK  status: ('A' for Active; 'I' for Inactive)
REMARK    1  A    between atoms: N1_2  and  C2_3 
REMARK    2  A    between atoms: C2_3  and  C3_4 
REMARK    3  A    between atoms: C3_4  and  C4_5 
REMARK    4  A    between atoms: C4_5  and  C5_6 
REMARK    5  A    between atoms: C5_6  and  C6_8 
REMARK    6  A    between atoms: C13_17  and  N4_18 
REMARK    7  A    between atoms: N4_18  and  C14_19 
ROOT
HETATM    1  C6  UNL     1      21.941  -0.064  52.667  1.00  0.00    -0.011 C 
HETATM    2  C7  UNL     1      23.149   0.424  52.650  1.00  0.00     0.027 C 
HETATM    3  C8  UNL     1      24.286   0.224  53.541  1.00  0.00     0.021 A 
HETATM    4  C9  UNL     1      24.461  -0.457  54.749  1.00  0.00     0.068 A 
HETATM    5  N2  UNL     1      25.642  -0.494  55.395  1.00  0.00    -0.259 NA
HETATM    6  C10 UNL     1      26.675   0.160  54.831  1.00  0.00     0.142 A 
HETATM    7  C11 UNL     1      26.550   0.839  53.650  1.00  0.00     0.089 A 
HETATM    8  C12 UNL     1      27.724   1.510  53.130  1.00  0.00     0.103 C 
HETATM    9  N3  UNL     1      28.665   2.063  52.717  1.00  0.00    -0.191 NA
HETATM   10  C13 UNL     1      25.346   0.884  52.978  1.00  0.00     0.067 A 
HETATM   11  C20 UNL     1      23.536  -1.238  55.574  1.00  0.00     0.028 C 
HETATM   12  C21 UNL     1      22.435  -1.920  55.245  1.00  0.00    -0.024 C 
HETATM   13  C22 UNL     1      21.697  -2.181  53.983  1.00  0.00     0.032 C 
HETATM   14  C23 UNL     1      21.036  -0.957  53.406  1.00  0.00     0.046 C 
ENDROOT
BRANCH  10  15
HETATM   15  N4  UNL     1      25.238   1.589  51.770  1.00  0.00    -0.354 N 
HETATM   16  H11 UNL     1      25.411   0.817  51.088  1.00  0.00     0.166 HD
BRANCH  15  17
HETATM   17  C14 UNL     1      24.977   2.947  51.428  1.00  0.00     0.034 A 
HETATM   18  C15 UNL     1      23.992   3.599  52.140  1.00  0.00     0.032 A 
HETATM   19  C16 UNL     1      23.776   4.927  51.763  1.00  0.00     0.046 A 
HETATM   20  C17 UNL     1      24.531   5.502  50.737  1.00  0.00     0.138 A 
HETATM   21  F1  UNL     1      24.313   6.805  50.375  1.00  0.00    -0.204 F 
HETATM   22  C18 UNL     1      25.516   4.772  50.063  1.00  0.00     0.074 A 
HETATM   23 CL1  UNL     1      26.458   5.500  48.779  1.00  0.00    -0.081 Cl
HETATM   24  C19 UNL     1      25.755   3.458  50.409  1.00  0.00     0.056 A 
ENDBRANCH  15  17
ENDBRANCH  10  15
BRANCH   1  25
HETATM   25  C5  UNL     1      21.307   0.531  51.504  1.00  0.00     0.161 C 
HETATM   26  O1  UNL     1      20.073   0.457  51.170  1.00  0.00    -0.292 OA
BRANCH  25  27
HETATM   27  C4  UNL     1      21.349   1.304  50.306  1.00  0.00     0.078 C 
BRANCH  27  28
HETATM   28  C3  UNL     1      21.893   1.724  49.202  1.00  0.00     0.032 C 
BRANCH  28  29
HETATM   29  C2  UNL     1      22.495   2.511  48.110  1.00  0.00     0.275 C 
BRANCH  29  30
HETATM   30  N1  UNL     1      21.460   3.217  47.353  1.00  0.00     0.079 N 
HETATM   31  C1  UNL     1      22.034   3.484  46.063  1.00  0.00     0.306 C 
HETATM   32  H4  UNL     1      20.615   2.616  47.300  1.00  0.00     0.315 HD
ENDBRANCH  29  30
ENDBRANCH  28  29
ENDBRANCH  27  28
ENDBRANCH  25  27
ENDBRANCH   1  25
TORSDOF 7
ENDMDL
MODEL 7
REMARK VINA RESULT:      -8.0      4.077      7.472
REMARK  7 active torsions:
REMARK  status: ('A' for Active; 'I' for Inactive)
REMARK    1  A    between atoms: N1_2  and  C2_3 
REMARK    2  A    between atoms: C2_3  and  C3_4 
REMARK    3  A    between atoms: C3_4  and  C4_5 
REMARK    4  A    between atoms: C4_5  and  C5_6 
REMARK    5  A    between atoms: C5_6  and  C6_8 
REMARK    6  A    between atoms: C13_17  and  N4_18 
REMARK    7  A    between atoms: N4_18  and  C14_19 
ROOT
HETATM    1  C6  UNL     1      21.604   1.452  52.832  1.00  0.00    -0.011 C 
HETATM    2  C7  UNL     1      22.582   2.024  52.189  1.00  0.00     0.027 C 
HETATM    3  C8  UNL     1      24.006   1.720  52.123  1.00  0.00     0.021 A 
HETATM    4  C9  UNL     1      24.832   0.803  52.780  1.00  0.00     0.068 A 
HETATM    5  N2  UNL     1      26.153   0.716  52.538  1.00  0.00    -0.259 NA
HETATM    6  C10 UNL     1      26.671   1.558  51.625  1.00  0.00     0.142 A 
HETATM    7  C11 UNL     1      25.902   2.471  50.958  1.00  0.00     0.089 A 
HETATM    8  C12 UNL     1      26.559   3.331  49.995  1.00  0.00     0.103 C 
HETATM    9  N3  UNL     1      27.089   4.034  49.228  1.00  0.00    -0.191 NA
HETATM   10  C13 UNL     1      24.547   2.571  51.195  1.00  0.00     0.067 A 
HETATM   11  C20 UNL     1      24.549  -0.212  53.797  1.00  0.00     0.028 C 
HETATM   12  C21 UNL     1      23.429  -0.888  54.070  1.00  0.00    -0.024 C 
HETATM   13  C22 UNL     1      22.055  -0.918  53.506  1.00  0.00     0.032 C 
HETATM   14  C23 UNL     1      21.276   0.348  53.747  1.00  0.00     0.046 C 
ENDROOT
BRANCH  10  15
HETATM   15  N4  UNL     1      23.777   3.516  50.503  1.00  0.00    -0.354 N 
HETATM   16  H11 UNL     1      23.716   4.270  51.222  1.00  0.00     0.166 HD
BRANCH  15  17
HETATM   17  C14 UNL     1      23.186   3.565  49.207  1.00  0.00     0.034 A 
HETATM   18  C15 UNL     1      22.751   2.373  48.666  1.00  0.00     0.032 A 
HETATM   19  C16 UNL     1      22.181   2.477  47.394  1.00  0.00     0.046 A 
HETATM   20  C17 UNL     1      22.084   3.721  46.765  1.00  0.00     0.138 A 
HETATM   21  F1  UNL     1      21.524   3.815  45.518  1.00  0.00    -0.204 F 
HETATM   22  C18 UNL     1      22.549   4.887  47.382  1.00  0.00     0.074 A 
HETATM   23 CL1  UNL     1      22.423   6.441  46.586  1.00  0.00    -0.081 Cl
HETATM   24  C19 UNL     1      23.118   4.820  48.637  1.00  0.00     0.056 A 
ENDBRANCH  15  17
ENDBRANCH  10  15
BRANCH   1  25
HETATM   25  C5  UNL     1      20.439   2.240  52.472  1.00  0.00     0.161 C 
HETATM   26  O1  UNL     1      20.261   3.493  52.661  1.00  0.00    -0.292 OA
BRANCH  25  27
HETATM   27  C4  UNL     1      19.135   2.370  51.909  1.00  0.00     0.078 C 
BRANCH  27  28
HETATM   28  C3  UNL     1      18.136   3.037  51.409  1.00  0.00     0.032 C 
BRANCH  28  29
HETATM   29  C2  UNL     1      17.255   3.946  50.653  1.00  0.00     0.275 C 
BRANCH  29  30
HETATM   30  N1  UNL     1      16.322   4.626  51.553  1.00  0.00     0.079 N 
HETATM   31  C1  UNL     1      15.595   3.584  52.222  1.00  0.00     0.306 C 
HETATM   32  H4  UNL     1      16.863   5.223  52.208  1.00  0.00     0.315 HD
ENDBRANCH  29  30
ENDBRANCH  28  29
ENDBRANCH  27  28
ENDBRANCH  25  27
ENDBRANCH   1  25
TORSDOF 7
ENDMDL
MODEL 8
REMARK VINA RESULT:      -8.0      3.990      7.867
REMARK  7 active torsions:
REMARK  status: ('A' for Active; 'I' for Inactive)
REMARK    1  A    between atoms: N1_2  and  C2_3 
REMARK    2  A    between atoms: C2_3  and  C3_4 
REMARK    3  A    between atoms: C3_4  and  C4_5 
REMARK    4  A    between atoms: C4_5  and  C5_6 
REMARK    5  A    between atoms: C5_6  and  C6_8 
REMARK    6  A    between atoms: C13_17  and  N4_18 
REMARK    7  A    between atoms: N4_18  and  C14_19 
ROOT
HETATM    1  C6  UNL     1      24.325  -0.054  53.520  1.00  0.00    -0.011 C 
HETATM    2  C7  UNL     1      24.097   1.009  52.802  1.00  0.00     0.027 C 
HETATM    3  C8  UNL     1      24.983   1.846  52.003  1.00  0.00     0.021 A 
HETATM    4  C9  UNL     1      26.366   1.876  51.801  1.00  0.00     0.068 A 
HETATM    5  N2  UNL     1      26.960   2.772  50.992  1.00  0.00    -0.259 NA
HETATM    6  C10 UNL     1      26.167   3.662  50.367  1.00  0.00     0.142 A 
HETATM    7  C11 UNL     1      24.809   3.671  50.534  1.00  0.00     0.089 A 
HETATM    8  C12 UNL     1      24.048   4.672  49.816  1.00  0.00     0.103 C 
HETATM    9  N3  UNL     1      23.434   5.487  49.249  1.00  0.00    -0.191 NA
HETATM   10  C13 UNL     1      24.187   2.758  51.360  1.00  0.00     0.067 A 
HETATM   11  C20 UNL     1      27.449   1.048  52.337  1.00  0.00     0.028 C 
HETATM   12  C21 UNL     1      27.449  -0.214  52.777  1.00  0.00    -0.024 C 
HETATM   13  C22 UNL     1      26.424  -1.280  52.914  1.00  0.00     0.032 C 
HETATM   14  C23 UNL     1      25.379  -0.982  53.957  1.00  0.00     0.046 C 
ENDROOT
BRANCH  10  15
HETATM   15  N4  UNL     1      22.795   2.786  51.520  1.00  0.00    -0.354 N 
HETATM   16  H11 UNL     1      22.728   2.915  52.554  1.00  0.00     0.166 HD
BRANCH  15  17
HETATM   17  C14 UNL     1      21.686   2.680  50.631  1.00  0.00     0.034 A 
HETATM   18  C15 UNL     1      21.768   1.735  49.630  1.00  0.00     0.032 A 
HETATM   19  C16 UNL     1      20.655   1.674  48.786  1.00  0.00     0.046 A 
HETATM   20  C17 UNL     1      19.569   2.530  48.988  1.00  0.00     0.138 A 
HETATM   21  F1  UNL     1      18.482   2.463  48.157  1.00  0.00    -0.204 F 
HETATM   22  C18 UNL     1      19.562   3.463  50.031  1.00  0.00     0.074 A 
HETATM   23 CL1  UNL     1      18.197   4.530  50.277  1.00  0.00    -0.081 Cl
HETATM   24  C19 UNL     1      20.644   3.550  50.882  1.00  0.00     0.056 A 
ENDBRANCH  15  17
ENDBRANCH  10  15
BRANCH   1  25
HETATM   25  C5  UNL     1      23.022  -0.401  54.057  1.00  0.00     0.161 C 
HETATM   26  O1  UNL     1      22.773  -1.128  55.081  1.00  0.00    -0.292 OA
BRANCH  25  27
HETATM   27  C4  UNL     1      21.597  -0.345  54.034  1.00  0.00     0.078 C 
BRANCH  27  28
HETATM   28  C3  UNL     1      20.425  -0.549  53.508  1.00  0.00     0.032 C 
BRANCH  28  29
HETATM   29  C2  UNL     1      19.072  -0.431  52.936  1.00  0.00     0.275 C 
BRANCH  29  30
HETATM   30  N1  UNL     1      19.138   0.014  51.542  1.00  0.00     0.079 N 
HETATM   31  C1  UNL     1      17.808  -0.135  51.021  1.00  0.00     0.306 C 
HETATM   32  H4  UNL     1      19.472   0.997  51.519  1.00  0.00     0.315 HD
ENDBRANCH  29  30
ENDBRANCH  28  29
ENDBRANCH  27  28
ENDBRANCH  25  27
ENDBRANCH   1  25
TORSDOF 7
ENDMDL
MODEL 9
REMARK VINA RESULT:      -7.9      3.652      6.060
REMARK  7 active torsions:
REMARK  status: ('A' for Active; 'I' for Inactive)
REMARK    1  A    between atoms: N1_2  and  C2_3 
REMARK    2  A    between atoms: C2_3  and  C3_4 
REMARK    3  A    between atoms: C3_4  and  C4_5 
REMARK    4  A    between atoms: C4_5  and  C5_6 
REMARK    5  A    between atoms: C5_6  and  C6_8 
REMARK    6  A    between atoms: C13_17  and  N4_18 
REMARK    7  A    between atoms: N4_18  and  C14_19 
ROOT
HETATM    1  C6  UNL     1      23.226   4.180  50.807  1.00  0.00    -0.011 C 
HETATM    2  C7  UNL     1      23.555   3.169  51.561  1.00  0.00     0.027 C 
HETATM    3  C8  UNL     1      24.787   2.398  51.664  1.00  0.00     0.021 A 
HETATM    4  C9  UNL     1      25.989   2.393  50.948  1.00  0.00     0.068 A 
HETATM    5  N2  UNL     1      27.004   1.561  51.245  1.00  0.00    -0.259 NA
HETATM    6  C10 UNL     1      26.827   0.713  52.275  1.00  0.00     0.142 A 
HETATM    7  C11 UNL     1      25.670   0.683  53.003  1.00  0.00     0.089 A 
HETATM    8  C12 UNL     1      25.582  -0.270  54.091  1.00  0.00     0.103 C 
HETATM    9  N3  UNL     1      25.504  -1.046  54.960  1.00  0.00    -0.191 NA
HETATM   10  C13 UNL     1      24.621   1.529  52.710  1.00  0.00     0.067 A 
HETATM   11  C20 UNL     1      26.450   3.187  49.807  1.00  0.00     0.028 C 
HETATM   12  C21 UNL     1      26.108   4.414  49.402  1.00  0.00    -0.024 C 
HETATM   13  C22 UNL     1      25.173   5.460  49.887  1.00  0.00     0.032 C 
HETATM   14  C23 UNL     1      23.722   5.081  49.755  1.00  0.00     0.046 C 
ENDROOT
BRANCH  10  15
HETATM   15  N4  UNL     1      23.442   1.480  53.467  1.00  0.00    -0.354 N 
HETATM   16  H11 UNL     1      23.585   2.305  54.091  1.00  0.00     0.166 HD
BRANCH  15  17
HETATM   17  C14 UNL     1      22.305   0.621  53.487  1.00  0.00     0.034 A 
HETATM   18  C15 UNL     1      22.234  -0.306  54.506  1.00  0.00     0.032 A 
HETATM   19  C16 UNL     1      21.100  -1.123  54.479  1.00  0.00     0.046 A 
HETATM   20  C17 UNL     1      20.143  -0.969  53.473  1.00  0.00     0.138 A 
HETATM   21  F1  UNL     1      19.035  -1.774  53.454  1.00  0.00    -0.204 F 
HETATM   22  C18 UNL     1      20.289  -0.002  52.473  1.00  0.00     0.074 A 
HETATM   23 CL1  UNL     1      19.085   0.185  51.216  1.00  0.00    -0.081 Cl
HETATM   24  C19 UNL     1      21.396   0.822  52.469  1.00  0.00     0.056 A 
ENDBRANCH  15  17
ENDBRANCH  10  15
BRANCH   1  25
HETATM   25  C5  UNL     1      21.860   4.478  51.196  1.00  0.00     0.161 C 
HETATM   26  O1  UNL     1      21.299   5.628  51.239  1.00  0.00    -0.292 OA
BRANCH  25  27
HETATM   27  C4  UNL     1      20.565   4.082  51.643  1.00  0.00     0.078 C 
BRANCH  27  28
HETATM   28  C3  UNL     1      19.295   3.846  51.492  1.00  0.00     0.032 C 
BRANCH  28  29
HETATM   29  C2  UNL     1      17.902   3.749  51.019  1.00  0.00     0.275 C 
BRANCH  29  30
HETATM   30  N1  UNL     1      17.533   4.941  50.253  1.00  0.00     0.079 N 
HETATM   31  C1  UNL     1      18.091   4.752  48.943  1.00  0.00     0.306 C 
HETATM   32  H4  UNL     1      16.499   5.025  50.241  1.00  0.00     0.315 HD
ENDBRANCH  29  30
ENDBRANCH  28  29
ENDBRANCH  27  28
ENDBRANCH  25  27
ENDBRANCH   1  25
TORSDOF 7
ENDMDL
