MODEL 1
REMARK VINA RESULT:      -8.8      0.000      0.000
REMARK  0 active torsions:
REMARK  status: ('A' for Active; 'I' for Inactive)
ROOT
HETATM    1  C1  UNL     1      24.681   3.012  53.075  1.00  0.00     0.057 C 
HETATM    2  C2  UNL     1      25.463   1.801  52.720  1.00  0.00    -0.005 C 
HETATM    3  C3  UNL     1      24.846   0.627  52.586  1.00  0.00    -0.060 C 
HETATM    4  C4  UNL     1      23.353   0.616  52.794  1.00  0.00     0.064 C 
HETATM    5  C5  UNL     1      22.927  -0.189  53.943  1.00  0.00    -0.003 C 
HETATM    6  C6  UNL     1      23.528  -0.902  54.877  1.00  0.00     0.114 C 
HETATM    7  N1  UNL     1      24.472  -1.554  55.693  1.00  0.00    -0.255 NA
HETATM    8  C7  UNL     1      25.729  -1.183  55.708  1.00  0.00     0.223 C 
HETATM    9  N2  UNL     1      26.544  -0.203  55.080  1.00  0.00    -0.291 N 
HETATM   10  N3  UNL     1      27.251  -0.367  53.921  1.00  0.00    -0.285 N 
HETATM   11  C8  UNL     1      28.659  -0.004  53.901  1.00  0.00     0.055 C 
HETATM   12  C9  UNL     1      29.291  -1.187  53.727  1.00  0.00     0.029 C 
HETATM   13  C10 UNL     1      28.616  -2.354  53.098  1.00  0.00     0.000 C 
HETATM   14  C11 UNL     1      27.333  -2.304  52.664  1.00  0.00     0.000 C 
HETATM   15  C12 UNL     1      26.847  -0.875  52.596  1.00  0.00     0.135 C 
HETATM   16  C13 UNL     1      25.383  -0.743  52.376  1.00  0.00     0.067 C 
HETATM   17  C14 UNL     1      29.423   1.283  53.998  1.00  0.00     0.253 C 
HETATM   18  O1  UNL     1      28.569   2.213  54.601  1.00  0.00    -0.289 OA
HETATM   19  N4  UNL     1      27.987   2.992  53.608  1.00  0.00    -0.140 NA
HETATM   20  S1  UNL     1      27.204   1.883  52.477  1.00  0.00    -0.023 SA
HETATM   21  H9  UNL     1      26.618   0.731  55.534  1.00  0.00     0.188 HD
HETATM   22  H18 UNL     1      28.681   3.610  53.153  1.00  0.00     0.168 HD
ENDROOT
TORSDOF 0
ENDMDL
MODEL 2
REMARK VINA RESULT:      -7.5      3.281      5.231
REMARK  0 active torsions:
REMARK  status: ('A' for Active; 'I' for Inactive)
ROOT
HETATM    1  C1  UNL     1      26.817   4.576  49.557  1.00  0.00     0.057 C 
HETATM    2  C2  UNL     1      25.891   3.483  49.949  1.00  0.00    -0.005 C 
HETATM    3  C3  UNL     1      24.608   3.539  49.591  1.00  0.00    -0.060 C 
HETATM    4  C4  UNL     1      24.180   4.735  48.778  1.00  0.00     0.064 C 
HETATM    5  C5  UNL     1      23.207   5.592  49.461  1.00  0.00    -0.003 C 
HETATM    6  C6  UNL     1      22.612   5.600  50.640  1.00  0.00     0.114 C 
HETATM    7  N1  UNL     1      22.179   5.302  51.945  1.00  0.00    -0.255 NA
HETATM    8  C7  UNL     1      22.871   4.512  52.728  1.00  0.00     0.223 C 
HETATM    9  N2  UNL     1      24.079   3.765  52.667  1.00  0.00    -0.291 N 
HETATM   10  N3  UNL     1      24.198   2.460  52.278  1.00  0.00    -0.285 N 
HETATM   11  C8  UNL     1      24.927   1.537  53.133  1.00  0.00     0.055 C 
HETATM   12  C9  UNL     1      23.973   0.677  53.560  1.00  0.00     0.029 C 
HETATM   13  C10 UNL     1      22.718   0.451  52.793  1.00  0.00     0.000 C 
HETATM   14  C11 UNL     1      22.455   1.090  51.627  1.00  0.00     0.000 C 
HETATM   15  C12 UNL     1      23.701   1.749  51.085  1.00  0.00     0.135 C 
HETATM   16  C13 UNL     1      23.452   2.677  49.951  1.00  0.00     0.067 C 
HETATM   17  C14 UNL     1      26.360   1.380  53.545  1.00  0.00     0.253 C 
HETATM   18  O1  UNL     1      26.978   2.616  53.327  1.00  0.00    -0.289 OA
HETATM   19  N4  UNL     1      27.646   2.571  52.109  1.00  0.00    -0.140 NA
HETATM   20  S1  UNL     1      26.455   2.107  50.889  1.00  0.00    -0.023 SA
HETATM   21  H9  UNL     1      24.961   4.245  52.940  1.00  0.00     0.188 HD
HETATM   22  H18 UNL     1      28.459   1.934  52.143  1.00  0.00     0.168 HD
ENDROOT
TORSDOF 0
ENDMDL
MODEL 3
REMARK VINA RESULT:      -7.1      4.244      6.947
REMARK  0 active torsions:
REMARK  status: ('A' for Active; 'I' for Inactive)
ROOT
HETATM    1  C1  UNL     1      24.863   1.159  53.448  1.00  0.00     0.057 C 
HETATM    2  C2  UNL     1      23.766   0.863  52.492  1.00  0.00    -0.005 C 
HETATM    3  C3  UNL     1      23.642   1.586  51.379  1.00  0.00    -0.060 C 
HETATM    4  C4  UNL     1      24.663   2.673  51.156  1.00  0.00     0.064 C 
HETATM    5  C5  UNL     1      24.091   4.023  51.151  1.00  0.00    -0.003 C 
HETATM    6  C6  UNL     1      22.891   4.546  51.317  1.00  0.00     0.114 C 
HETATM    7  N1  UNL     1      21.515   4.748  51.537  1.00  0.00    -0.255 NA
HETATM    8  C7  UNL     1      20.776   3.833  52.115  1.00  0.00     0.223 C 
HETATM    9  N2  UNL     1      20.949   2.532  52.660  1.00  0.00    -0.291 N 
HETATM   10  N3  UNL     1      20.792   1.352  51.990  1.00  0.00    -0.285 N 
HETATM   11  C8  UNL     1      19.951   0.319  52.574  1.00  0.00     0.055 C 
HETATM   12  C9  UNL     1      18.909   0.232  51.716  1.00  0.00     0.029 C 
HETATM   13  C10 UNL     1      19.026   0.650  50.292  1.00  0.00     0.000 C 
HETATM   14  C11 UNL     1      20.178   1.141  49.772  1.00  0.00     0.000 C 
HETATM   15  C12 UNL     1      21.339   0.881  50.703  1.00  0.00     0.135 C 
HETATM   16  C13 UNL     1      22.584   1.602  50.334  1.00  0.00     0.067 C 
HETATM   17  C14 UNL     1      20.041  -0.563  53.784  1.00  0.00     0.253 C 
HETATM   18  O1  UNL     1      20.942   0.051  54.662  1.00  0.00    -0.289 OA
HETATM   19  N4  UNL     1      22.186  -0.549  54.514  1.00  0.00    -0.140 NA
HETATM   20  S1  UNL     1      22.613  -0.429  52.803  1.00  0.00    -0.023 SA
HETATM   21  H9  UNL     1      21.221   2.458  53.663  1.00  0.00     0.188 HD
HETATM   22  H18 UNL     1      22.184  -1.523  54.862  1.00  0.00     0.168 HD
ENDROOT
TORSDOF 0
ENDMDL
MODEL 4
REMARK VINA RESULT:      -6.7      3.757      6.001
REMARK  0 active torsions:
REMARK  status: ('A' for Active; 'I' for Inactive)
ROOT
HETATM    1  C1  UNL     1      25.439   0.120  52.508  1.00  0.00     0.057 C 
HETATM    2  C2  UNL     1      24.767   1.443  52.436  1.00  0.00    -0.005 C 
HETATM    3  C3  UNL     1      23.463   1.540  52.692  1.00  0.00    -0.060 C 
HETATM    4  C4  UNL     1      22.745   0.268  53.064  1.00  0.00     0.064 C 
HETATM    5  C5  UNL     1      21.719  -0.131  52.097  1.00  0.00    -0.003 C 
HETATM    6  C6  UNL     1      21.265   0.333  50.948  1.00  0.00     0.114 C 
HETATM    7  N1  UNL     1      21.038   1.090  49.783  1.00  0.00    -0.255 NA
HETATM    8  C7  UNL     1      21.940   1.923  49.325  1.00  0.00     0.223 C 
HETATM    9  N2  UNL     1      23.245   2.358  49.680  1.00  0.00    -0.291 N 
HETATM   10  N3  UNL     1      23.548   3.435  50.465  1.00  0.00    -0.285 N 
HETATM   11  C8  UNL     1      24.517   4.406  49.983  1.00  0.00     0.055 C 
HETATM   12  C9  UNL     1      23.782   5.527  49.801  1.00  0.00     0.029 C 
HETATM   13  C10 UNL     1      22.509   5.760  50.536  1.00  0.00     0.000 C 
HETATM   14  C11 UNL     1      22.011   4.867  51.427  1.00  0.00     0.000 C 
HETATM   15  C12 UNL     1      23.055   3.840  51.795  1.00  0.00     0.135 C 
HETATM   16  C13 UNL     1      22.523   2.685  52.564  1.00  0.00     0.067 C 
HETATM   17  C14 UNL     1      25.992   4.388  49.714  1.00  0.00     0.253 C 
HETATM   18  O1  UNL     1      26.356   3.045  49.562  1.00  0.00    -0.289 OA
HETATM   19  N4  UNL     1      26.883   2.588  50.764  1.00  0.00    -0.140 NA
HETATM   20  S1  UNL     1      25.665   2.894  52.007  1.00  0.00    -0.023 SA
HETATM   21  H9  UNL     1      24.055   1.815  49.313  1.00  0.00     0.188 HD
HETATM   22  H18 UNL     1      27.794   3.030  50.974  1.00  0.00     0.168 HD
ENDROOT
TORSDOF 0
ENDMDL
MODEL 5
REMARK VINA RESULT:      -6.6      4.666      6.745
REMARK  0 active torsions:
REMARK  status: ('A' for Active; 'I' for Inactive)
ROOT
HETATM    1  C1  UNL     1      18.555  -0.448  52.304  1.00  0.00     0.057 C 
HETATM    2  C2  UNL     1      19.524   0.642  52.580  1.00  0.00    -0.005 C 
HETATM    3  C3  UNL     1      19.422   1.803  51.932  1.00  0.00    -0.060 C 
HETATM    4  C4  UNL     1      18.286   1.935  50.949  1.00  0.00     0.064 C 
HETATM    5  C5  UNL     1      18.728   2.106  49.562  1.00  0.00    -0.003 C 
HETATM    6  C6  UNL     1      19.888   2.153  48.934  1.00  0.00     0.114 C 
HETATM    7  N1  UNL     1      21.258   2.153  48.607  1.00  0.00    -0.255 NA
HETATM    8  C7  UNL     1      22.151   1.639  49.417  1.00  0.00     0.223 C 
HETATM    9  N2  UNL     1      22.175   0.997  50.684  1.00  0.00    -0.291 N 
HETATM   10  N3  UNL     1      22.340   1.611  51.894  1.00  0.00    -0.285 N 
HETATM   11  C8  UNL     1      23.345   1.098  52.811  1.00  0.00     0.055 C 
HETATM   12  C9  UNL     1      24.256   2.096  52.876  1.00  0.00     0.029 C 
HETATM   13  C10 UNL     1      23.898   3.509  52.573  1.00  0.00     0.000 C 
HETATM   14  C11 UNL     1      22.644   3.879  52.215  1.00  0.00     0.000 C 
HETATM   15  C12 UNL     1      21.658   2.771  52.498  1.00  0.00     0.135 C 
HETATM   16  C13 UNL     1      20.312   2.992  51.908  1.00  0.00     0.067 C 
HETATM   17  C14 UNL     1      23.509  -0.162  53.607  1.00  0.00     0.253 C 
HETATM   18  O1  UNL     1      22.693  -1.126  53.006  1.00  0.00    -0.289 OA
HETATM   19  N4  UNL     1      21.499  -1.202  53.711  1.00  0.00    -0.140 NA
HETATM   20  S1  UNL     1      20.821   0.429  53.750  1.00  0.00    -0.023 SA
HETATM   21  H9  UNL     1      22.058  -0.038  50.707  1.00  0.00     0.188 HD
HETATM   22  H18 UNL     1      21.638  -1.604  54.654  1.00  0.00     0.168 HD
ENDROOT
TORSDOF 0
ENDMDL
MODEL 6
REMARK VINA RESULT:      -6.4      4.867      7.196
REMARK  0 active torsions:
REMARK  status: ('A' for Active; 'I' for Inactive)
ROOT
HETATM    1  C1  UNL     1      23.661   4.866  53.683  1.00  0.00     0.057 C 
HETATM    2  C2  UNL     1      23.152   4.248  52.433  1.00  0.00    -0.005 C 
HETATM    3  C3  UNL     1      23.628   3.068  52.033  1.00  0.00    -0.060 C 
HETATM    4  C4  UNL     1      24.668   2.421  52.913  1.00  0.00     0.064 C 
HETATM    5  C5  UNL     1      25.975   2.276  52.267  1.00  0.00    -0.003 C 
HETATM    6  C6  UNL     1      26.496   2.593  51.097  1.00  0.00     0.114 C 
HETATM    7  N1  UNL     1      26.711   3.062  49.787  1.00  0.00    -0.255 NA
HETATM    8  C7  UNL     1      25.919   3.954  49.245  1.00  0.00     0.223 C 
HETATM    9  N2  UNL     1      24.762   4.693  49.611  1.00  0.00    -0.291 N 
HETATM   10  N3  UNL     1      23.466   4.317  49.394  1.00  0.00    -0.285 N 
HETATM   11  C8  UNL     1      22.558   5.261  48.761  1.00  0.00     0.055 C 
HETATM   12  C9  UNL     1      22.275   4.684  47.571  1.00  0.00     0.029 C 
HETATM   13  C10 UNL     1      22.394   3.215  47.362  1.00  0.00     0.000 C 
HETATM   14  C11 UNL     1      22.791   2.371  48.347  1.00  0.00     0.000 C 
HETATM   15  C12 UNL     1      22.752   3.061  49.690  1.00  0.00     0.135 C 
HETATM   16  C13 UNL     1      23.408   2.296  50.782  1.00  0.00     0.067 C 
HETATM   17  C14 UNL     1      21.945   6.571  49.158  1.00  0.00     0.253 C 
HETATM   18  O1  UNL     1      22.744   7.095  50.180  1.00  0.00    -0.289 OA
HETATM   19  N4  UNL     1      22.153   6.801  51.403  1.00  0.00    -0.140 NA
HETATM   20  S1  UNL     1      21.928   5.049  51.456  1.00  0.00    -0.023 SA
HETATM   21  H9  UNL     1      24.901   5.608  50.090  1.00  0.00     0.188 HD
HETATM   22  H18 UNL     1      21.272   7.325  51.536  1.00  0.00     0.168 HD
ENDROOT
TORSDOF 0
ENDMDL
MODEL 7
REMARK VINA RESULT:      -6.4      5.116      7.325
REMARK  0 active torsions:
REMARK  status: ('A' for Active; 'I' for Inactive)
ROOT
HETATM    1  C1  UNL     1      19.998   0.099  53.368  1.00  0.00     0.057 C 
HETATM    2  C2  UNL     1      20.504   0.673  52.095  1.00  0.00    -0.005 C 
HETATM    3  C3  UNL     1      21.773   0.479  51.737  1.00  0.00    -0.060 C 
HETATM    4  C4  UNL     1      22.624  -0.347  52.668  1.00  0.00     0.064 C 
HETATM    5  C5  UNL     1      23.736   0.399  53.264  1.00  0.00    -0.003 C 
HETATM    6  C6  UNL     1      24.181   1.641  53.213  1.00  0.00     0.114 C 
HETATM    7  N1  UNL     1      24.368   3.007  52.930  1.00  0.00    -0.255 NA
HETATM    8  C7  UNL     1      23.392   3.744  52.459  1.00  0.00     0.223 C 
HETATM    9  N2  UNL     1      22.028   3.577  52.098  1.00  0.00    -0.291 N 
HETATM   10  N3  UNL     1      21.559   3.259  50.854  1.00  0.00    -0.285 N 
HETATM   11  C8  UNL     1      20.501   4.071  50.274  1.00  0.00     0.055 C 
HETATM   12  C9  UNL     1      21.099   4.668  49.218  1.00  0.00     0.029 C 
HETATM   13  C10 UNL     1      22.299   4.083  48.560  1.00  0.00     0.000 C 
HETATM   14  C11 UNL     1      22.861   2.922  48.975  1.00  0.00     0.000 C 
HETATM   15  C12 UNL     1      21.936   2.185  49.915  1.00  0.00     0.135 C 
HETATM   16  C13 UNL     1      22.569   1.037  50.613  1.00  0.00     0.067 C 
HETATM   17  C14 UNL     1      19.053   4.306  50.586  1.00  0.00     0.253 C 
HETATM   18  O1  UNL     1      18.864   3.934  51.922  1.00  0.00    -0.289 OA
HETATM   19  N4  UNL     1      18.343   2.646  51.956  1.00  0.00    -0.140 NA
HETATM   20  S1  UNL     1      19.455   1.618  51.045  1.00  0.00    -0.023 SA
HETATM   21  H9  UNL     1      21.309   3.705  52.841  1.00  0.00     0.188 HD
HETATM   22  H18 UNL     1      17.376   2.616  51.592  1.00  0.00     0.168 HD
ENDROOT
TORSDOF 0
ENDMDL
MODEL 8
REMARK VINA RESULT:      -6.4      4.701      6.453
REMARK  0 active torsions:
REMARK  status: ('A' for Active; 'I' for Inactive)
ROOT
HETATM    1  C1  UNL     1      19.644   3.098  50.749  1.00  0.00     0.057 C 
HETATM    2  C2  UNL     1      20.998   3.285  50.169  1.00  0.00    -0.005 C 
HETATM    3  C3  UNL     1      21.866   2.273  50.167  1.00  0.00    -0.060 C 
HETATM    4  C4  UNL     1      21.392   0.969  50.756  1.00  0.00     0.064 C 
HETATM    5  C5  UNL     1      22.132   0.562  51.953  1.00  0.00    -0.003 C 
HETATM    6  C6  UNL     1      23.113   1.064  52.680  1.00  0.00     0.114 C 
HETATM    7  N1  UNL     1      24.140   1.873  53.204  1.00  0.00    -0.255 NA
HETATM    8  C7  UNL     1      24.225   3.145  52.902  1.00  0.00     0.223 C 
HETATM    9  N2  UNL     1      23.515   4.088  52.112  1.00  0.00    -0.291 N 
HETATM   10  N3  UNL     1      23.772   4.398  50.805  1.00  0.00    -0.285 N 
HETATM   11  C8  UNL     1      23.912   5.796  50.430  1.00  0.00     0.055 C 
HETATM   12  C9  UNL     1      25.210   5.901  50.066  1.00  0.00     0.029 C 
HETATM   13  C10 UNL     1      25.994   4.724  49.602  1.00  0.00     0.000 C 
HETATM   14  C11 UNL     1      25.457   3.482  49.517  1.00  0.00     0.000 C 
HETATM   15  C12 UNL     1      23.951   3.542  49.617  1.00  0.00     0.135 C 
HETATM   16  C13 UNL     1      23.302   2.216  49.788  1.00  0.00     0.067 C 
HETATM   17  C14 UNL     1      22.985   6.973  50.361  1.00  0.00     0.253 C 
HETATM   18  O1  UNL     1      21.897   6.676  51.190  1.00  0.00    -0.289 OA
HETATM   19  N4  UNL     1      20.854   6.201  50.404  1.00  0.00    -0.140 NA
HETATM   20  S1  UNL     1      21.487   4.831  49.486  1.00  0.00    -0.023 SA
HETATM   21  H9  UNL     1      22.723   4.597  52.557  1.00  0.00     0.188 HD
HETATM   22  H18 UNL     1      20.462   6.944  49.801  1.00  0.00     0.168 HD
ENDROOT
TORSDOF 0
ENDMDL
MODEL 9
REMARK VINA RESULT:      -6.4      9.122     10.959
REMARK  0 active torsions:
REMARK  status: ('A' for Active; 'I' for Inactive)
ROOT
HETATM    1  C1  UNL     1      26.985   9.037  50.037  1.00  0.00     0.057 C 
HETATM    2  C2  UNL     1      27.638   9.090  48.704  1.00  0.00    -0.005 C 
HETATM    3  C3  UNL     1      27.536   8.052  47.873  1.00  0.00    -0.060 C 
HETATM    4  C4  UNL     1      26.729   6.873  48.353  1.00  0.00     0.064 C 
HETATM    5  C5  UNL     1      27.518   5.649  48.518  1.00  0.00    -0.003 C 
HETATM    6  C6  UNL     1      28.786   5.310  48.374  1.00  0.00     0.114 C 
HETATM    7  N1  UNL     1      30.171   5.306  48.123  1.00  0.00    -0.255 NA
HETATM    8  C7  UNL     1      30.864   6.418  48.109  1.00  0.00     0.223 C 
HETATM    9  N2  UNL     1      30.627   7.807  48.293  1.00  0.00    -0.291 N 
HETATM   10  N3  UNL     1      30.330   8.708  47.309  1.00  0.00    -0.285 N 
HETATM   11  C8  UNL     1      31.097   9.941  47.232  1.00  0.00     0.055 C 
HETATM   12  C9  UNL     1      31.771   9.825  46.064  1.00  0.00     0.029 C 
HETATM   13  C10 UNL     1      31.287   8.952  44.960  1.00  0.00     0.000 C 
HETATM   14  C11 UNL     1      30.147   8.224  45.057  1.00  0.00     0.000 C 
HETATM   15  C12 UNL     1      29.319   8.681  46.235  1.00  0.00     0.135 C 
HETATM   16  C13 UNL     1      28.185   7.779  46.565  1.00  0.00     0.067 C 
HETATM   17  C14 UNL     1      31.231  11.163  48.091  1.00  0.00     0.253 C 
HETATM   18  O1  UNL     1      30.795  10.802  49.371  1.00  0.00    -0.289 OA
HETATM   19  N4  UNL     1      29.478  11.215  49.527  1.00  0.00    -0.140 NA
HETATM   20  S1  UNL     1      28.557  10.502  48.198  1.00  0.00    -0.023 SA
HETATM   21  H9  UNL     1      30.682   8.185  49.261  1.00  0.00     0.188 HD
HETATM   22  H18 UNL     1      29.403  12.246  49.563  1.00  0.00     0.168 HD
ENDROOT
TORSDOF 0
ENDMDL
