MODEL 1
REMARK VINA RESULT:      -7.7      0.000      0.000
REMARK  4 active torsions:
REMARK  status: ('A' for Active; 'I' for Inactive)
REMARK    1  A    between atoms: O1_2  and  C2_3 
REMARK    2  A    between atoms: C6_9  and  N3_10 
REMARK    3  A    between atoms: N3_10  and  C8_12 
REMARK    4  A    between atoms: C15_22  and  O2_23 
ROOT
HETATM    1  C2  UNL     1      26.926  -0.177  53.768  1.00  0.00     0.103 A 
HETATM    2  C3  UNL     1      25.695  -0.760  54.039  1.00  0.00     0.072 A 
HETATM    3  C4  UNL     1      24.500  -0.224  53.555  1.00  0.00     0.075 A 
HETATM    4  N1  UNL     1      23.328  -0.808  53.832  1.00  0.00    -0.241 NA
HETATM    5  C5  UNL     1      22.194  -0.238  53.331  1.00  0.00     0.236 A 
HETATM    6  N2  UNL     1      22.214   0.876  52.578  1.00  0.00    -0.224 NA
HETATM    7  C6  UNL     1      23.383   1.510  52.268  1.00  0.00     0.141 A 
HETATM    8  C13 UNL     1      24.512   0.912  52.787  1.00  0.00     0.041 A 
HETATM    9  C14 UNL     1      25.717   1.518  52.498  1.00  0.00     0.057 A 
HETATM   10  C15 UNL     1      26.892   0.963  52.993  1.00  0.00     0.102 A 
ENDROOT
BRANCH   7  11
HETATM   11  N3  UNL     1      23.331   2.669  51.478  1.00  0.00    -0.342 N 
HETATM   12  C7  UNL     1      23.318   2.633  50.010  1.00  0.00     0.154 C 
BRANCH  11  13
HETATM   13  C8  UNL     1      23.286   3.980  52.082  1.00  0.00     0.248 A 
HETATM   14  N4  UNL     1      24.372   4.791  51.563  1.00  0.00    -0.371 N 
HETATM   15  C9  UNL     1      24.234   6.057  50.929  1.00  0.00     0.104 A 
HETATM   16  H10 UNL     1      25.378   4.455  51.636  1.00  0.00     0.161 HD
HETATM   17  C10 UNL     1      23.010   6.544  50.799  1.00  0.00     0.028 A 
HETATM   18 BR1  UNL     1      22.807   8.241  49.954  1.00  0.00    -0.050 Br
HETATM   19  C11 UNL     1      21.809   5.864  51.263  1.00  0.00     0.062 A 
HETATM   20  C12 UNL     1      22.025   4.692  51.841  1.00  0.00     0.137 A 
HETATM   21  F1  UNL     1      20.921   4.016  52.293  1.00  0.00    -0.207 F 
ENDBRANCH  11  13
ENDBRANCH   7  11
BRANCH  10  22
HETATM   22  O2  UNL     1      28.107   1.568  52.706  1.00  0.00    -0.353 OA
HETATM   23  C16 UNL     1      28.704   2.562  53.512  1.00  0.00     0.210 C 
ENDBRANCH  10  22
BRANCH   1  24
HETATM   24  O1  UNL     1      28.117  -0.673  54.224  1.00  0.00    -0.353 OA
HETATM   25  C1  UNL     1      28.964  -1.464  53.432  1.00  0.00     0.210 C 
ENDBRANCH   1  24
TORSDOF 4
ENDMDL
MODEL 2
REMARK VINA RESULT:      -7.6      2.887      4.514
REMARK  4 active torsions:
REMARK  status: ('A' for Active; 'I' for Inactive)
REMARK    1  A    between atoms: O1_2  and  C2_3 
REMARK    2  A    between atoms: C6_9  and  N3_10 
REMARK    3  A    between atoms: N3_10  and  C8_12 
REMARK    4  A    between atoms: C15_22  and  O2_23 
ROOT
HETATM    1  C2  UNL     1      27.303   0.176  53.739  1.00  0.00     0.103 A 
HETATM    2  C3  UNL     1      27.643   1.079  52.741  1.00  0.00     0.072 A 
HETATM    3  C4  UNL     1      26.678   1.777  52.013  1.00  0.00     0.075 A 
HETATM    4  N1  UNL     1      27.035   2.642  51.056  1.00  0.00    -0.241 NA
HETATM    5  C5  UNL     1      26.046   3.295  50.379  1.00  0.00     0.236 A 
HETATM    6  N2  UNL     1      24.741   3.100  50.638  1.00  0.00    -0.224 NA
HETATM    7  C6  UNL     1      24.323   2.229  51.603  1.00  0.00     0.141 A 
HETATM    8  C13 UNL     1      25.345   1.585  52.271  1.00  0.00     0.041 A 
HETATM    9  C14 UNL     1      24.969   0.694  53.256  1.00  0.00     0.057 A 
HETATM   10  C15 UNL     1      25.952   0.013  53.964  1.00  0.00     0.102 A 
ENDROOT
BRANCH   7  11
HETATM   11  N3  UNL     1      22.945   2.075  51.820  1.00  0.00    -0.342 N 
HETATM   12  C7  UNL     1      22.102   3.142  52.371  1.00  0.00     0.154 C 
BRANCH  11  13
HETATM   13  C8  UNL     1      22.277   0.835  51.506  1.00  0.00     0.248 A 
HETATM   14  N4  UNL     1      21.503   0.396  52.653  1.00  0.00    -0.371 N 
HETATM   15  C9  UNL     1      20.109   0.112  52.655  1.00  0.00     0.104 A 
HETATM   16  H10 UNL     1      21.970   0.261  53.599  1.00  0.00     0.161 HD
HETATM   17  C10 UNL     1      19.455   0.258  51.514  1.00  0.00     0.028 A 
HETATM   18 BR1  UNL     1      17.586  -0.120  51.498  1.00  0.00    -0.050 Br
HETATM   19  C11 UNL     1      20.075   0.688  50.269  1.00  0.00     0.062 A 
HETATM   20  C12 UNL     1      21.374   0.932  50.353  1.00  0.00     0.137 A 
HETATM   21  F1  UNL     1      21.999   1.340  49.203  1.00  0.00    -0.207 F 
ENDBRANCH  11  13
ENDBRANCH   7  11
BRANCH  10  22
HETATM   22  O2  UNL     1      25.581  -0.884  54.956  1.00  0.00    -0.353 OA
HETATM   23  C16 UNL     1      24.244  -1.232  55.247  1.00  0.00     0.210 C 
ENDBRANCH  10  22
BRANCH   1  24
HETATM   24  O1  UNL     1      28.220  -0.526  54.472  1.00  0.00    -0.353 OA
HETATM   25  C1  UNL     1      29.464  -0.920  53.956  1.00  0.00     0.210 C 
ENDBRANCH   1  24
TORSDOF 4
ENDMDL
MODEL 3
REMARK VINA RESULT:      -7.5      1.777      2.178
REMARK  4 active torsions:
REMARK  status: ('A' for Active; 'I' for Inactive)
REMARK    1  A    between atoms: O1_2  and  C2_3 
REMARK    2  A    between atoms: C6_9  and  N3_10 
REMARK    3  A    between atoms: N3_10  and  C8_12 
REMARK    4  A    between atoms: C15_22  and  O2_23 
ROOT
HETATM    1  C2  UNL     1      27.118  -0.267  53.577  1.00  0.00     0.103 A 
HETATM    2  C3  UNL     1      25.847  -0.821  53.669  1.00  0.00     0.072 A 
HETATM    3  C4  UNL     1      24.716  -0.162  53.187  1.00  0.00     0.075 A 
HETATM    4  N1  UNL     1      23.503  -0.720  53.288  1.00  0.00    -0.241 NA
HETATM    5  C5  UNL     1      22.435  -0.027  52.798  1.00  0.00     0.236 A 
HETATM    6  N2  UNL     1      22.558   1.183  52.224  1.00  0.00    -0.224 NA
HETATM    7  C6  UNL     1      23.771   1.796  52.096  1.00  0.00     0.141 A 
HETATM    8  C13 UNL     1      24.832   1.072  52.600  1.00  0.00     0.041 A 
HETATM    9  C14 UNL     1      26.079   1.653  52.492  1.00  0.00     0.057 A 
HETATM   10  C15 UNL     1      27.188   0.974  52.981  1.00  0.00     0.102 A 
ENDROOT
BRANCH   7  11
HETATM   11  N3  UNL     1      23.826   3.059  51.486  1.00  0.00    -0.342 N 
HETATM   12  C7  UNL     1      23.633   4.311  52.228  1.00  0.00     0.154 C 
BRANCH  11  13
HETATM   13  C8  UNL     1      24.079   3.191  50.071  1.00  0.00     0.248 A 
HETATM   14  N4  UNL     1      22.847   3.543  49.389  1.00  0.00    -0.371 N 
HETATM   15  C9  UNL     1      22.655   4.679  48.554  1.00  0.00     0.104 A 
HETATM   16  H10 UNL     1      21.982   2.934  49.489  1.00  0.00     0.161 HD
HETATM   17  C10 UNL     1      23.687   5.490  48.380  1.00  0.00     0.028 A 
HETATM   18 BR1  UNL     1      23.449   7.016  47.263  1.00  0.00    -0.050 Br
HETATM   19  C11 UNL     1      24.994   5.287  48.988  1.00  0.00     0.062 A 
HETATM   20  C12 UNL     1      25.088   4.207  49.750  1.00  0.00     0.137 A 
HETATM   21  F1  UNL     1      26.303   3.977  50.343  1.00  0.00    -0.207 F 
ENDBRANCH  11  13
ENDBRANCH   7  11
BRANCH  10  22
HETATM   22  O2  UNL     1      28.445   1.553  52.876  1.00  0.00    -0.353 OA
HETATM   23  C16 UNL     1      28.960   2.494  53.794  1.00  0.00     0.210 C 
ENDBRANCH  10  22
BRANCH   1  24
HETATM   24  O1  UNL     1      28.249  -0.883  54.039  1.00  0.00    -0.353 OA
HETATM   25  C1  UNL     1      29.052  -1.702  53.229  1.00  0.00     0.210 C 
ENDBRANCH   1  24
TORSDOF 4
ENDMDL
MODEL 4
REMARK VINA RESULT:      -7.2      2.594      3.315
REMARK  4 active torsions:
REMARK  status: ('A' for Active; 'I' for Inactive)
REMARK    1  A    between atoms: O1_2  and  C2_3 
REMARK    2  A    between atoms: C6_9  and  N3_10 
REMARK    3  A    between atoms: N3_10  and  C8_12 
REMARK    4  A    between atoms: C15_22  and  O2_23 
ROOT
HETATM    1  C2  UNL     1      26.341  -0.143  53.471  1.00  0.00     0.103 A 
HETATM    2  C3  UNL     1      25.382  -0.758  54.266  1.00  0.00     0.072 A 
HETATM    3  C4  UNL     1      24.018  -0.504  54.110  1.00  0.00     0.075 A 
HETATM    4  N1  UNL     1      23.116  -1.112  54.890  1.00  0.00    -0.241 NA
HETATM    5  C5  UNL     1      21.797  -0.824  54.690  1.00  0.00     0.236 A 
HETATM    6  N2  UNL     1      21.379   0.038  53.746  1.00  0.00    -0.224 NA
HETATM    7  C6  UNL     1      22.258   0.684  52.925  1.00  0.00     0.141 A 
HETATM    8  C13 UNL     1      23.583   0.373  53.150  1.00  0.00     0.041 A 
HETATM    9  C14 UNL     1      24.508   1.002  52.342  1.00  0.00     0.057 A 
HETATM   10  C15 UNL     1      25.859   0.732  52.520  1.00  0.00     0.102 A 
ENDROOT
BRANCH   7  11
HETATM   11  N3  UNL     1      21.752   1.571  51.961  1.00  0.00    -0.342 N 
HETATM   12  C7  UNL     1      21.535   2.997  52.229  1.00  0.00     0.154 C 
BRANCH  11  13
HETATM   13  C8  UNL     1      21.412   1.113  50.635  1.00  0.00     0.248 A 
HETATM   14  N4  UNL     1      19.969   1.079  50.488  1.00  0.00    -0.371 N 
HETATM   15  C9  UNL     1      19.220   1.750  49.481  1.00  0.00     0.104 A 
HETATM   16  H10 UNL     1      19.371   0.520  51.166  1.00  0.00     0.161 HD
HETATM   17  C10 UNL     1      19.893   2.469  48.597  1.00  0.00     0.028 A 
HETATM   18 BR1  UNL     1      18.906   3.373  47.240  1.00  0.00    -0.050 Br
HETATM   19  C11 UNL     1      21.342   2.612  48.597  1.00  0.00     0.062 A 
HETATM   20  C12 UNL     1      21.963   1.956  49.567  1.00  0.00     0.137 A 
HETATM   21  F1  UNL     1      23.329   2.063  49.605  1.00  0.00    -0.207 F 
ENDBRANCH  11  13
ENDBRANCH   7  11
BRANCH  10  22
HETATM   22  O2  UNL     1      26.795   1.361  51.711  1.00  0.00    -0.353 OA
HETATM   23  C16 UNL     1      26.556   2.570  51.021  1.00  0.00     0.210 C 
ENDBRANCH  10  22
BRANCH   1  24
HETATM   24  O1  UNL     1      27.685  -0.366  53.595  1.00  0.00    -0.353 OA
HETATM   25  C1  UNL     1      28.428   0.070  54.703  1.00  0.00     0.210 C 
ENDBRANCH   1  24
TORSDOF 4
ENDMDL
MODEL 5
REMARK VINA RESULT:      -7.2      2.506      3.788
REMARK  4 active torsions:
REMARK  status: ('A' for Active; 'I' for Inactive)
REMARK    1  A    between atoms: O1_2  and  C2_3 
REMARK    2  A    between atoms: C6_9  and  N3_10 
REMARK    3  A    between atoms: N3_10  and  C8_12 
REMARK    4  A    between atoms: C15_22  and  O2_23 
ROOT
HETATM    1  C2  UNL     1      26.700   0.370  53.035  1.00  0.00     0.103 A 
HETATM    2  C3  UNL     1      27.246   1.351  52.218  1.00  0.00     0.072 A 
HETATM    3  C4  UNL     1      26.453   2.160  51.402  1.00  0.00     0.075 A 
HETATM    4  N1  UNL     1      27.006   3.099  50.624  1.00  0.00    -0.241 NA
HETATM    5  C5  UNL     1      26.180   3.858  49.849  1.00  0.00     0.236 A 
HETATM    6  N2  UNL     1      24.845   3.697  49.839  1.00  0.00    -0.224 NA
HETATM    7  C6  UNL     1      24.231   2.754  50.612  1.00  0.00     0.141 A 
HETATM    8  C13 UNL     1      25.091   2.003  51.386  1.00  0.00     0.041 A 
HETATM    9  C14 UNL     1      24.514   1.036  52.184  1.00  0.00     0.057 A 
HETATM   10  C15 UNL     1      25.327   0.245  52.987  1.00  0.00     0.102 A 
ENDROOT
BRANCH   7  11
HETATM   11  N3  UNL     1      22.833   2.641  50.553  1.00  0.00    -0.342 N 
HETATM   12  C7  UNL     1      22.149   1.661  49.700  1.00  0.00     0.154 C 
BRANCH  11  13
HETATM   13  C8  UNL     1      21.983   3.500  51.342  1.00  0.00     0.248 A 
HETATM   14  N4  UNL     1      21.257   4.402  50.465  1.00  0.00    -0.371 N 
HETATM   15  C9  UNL     1      19.843   4.547  50.410  1.00  0.00     0.104 A 
HETATM   16  H10 UNL     1      21.780   5.030  49.786  1.00  0.00     0.161 HD
HETATM   17  C10 UNL     1      19.120   3.797  51.226  1.00  0.00     0.028 A 
HETATM   18 BR1  UNL     1      17.223   3.980  51.166  1.00  0.00    -0.050 Br
HETATM   19  C11 UNL     1      19.684   2.842  52.169  1.00  0.00     0.062 A 
HETATM   20  C12 UNL     1      21.007   2.768  52.158  1.00  0.00     0.137 A 
HETATM   21  F1  UNL     1      21.581   1.880  53.030  1.00  0.00    -0.207 F 
ENDBRANCH  11  13
ENDBRANCH   7  11
BRANCH  10  22
HETATM   22  O2  UNL     1      24.754  -0.728  53.793  1.00  0.00    -0.353 OA
HETATM   23  C16 UNL     1      23.395  -0.738  54.174  1.00  0.00     0.210 C 
ENDBRANCH  10  22
BRANCH   1  24
HETATM   24  O1  UNL     1      27.445  -0.441  53.847  1.00  0.00    -0.353 OA
HETATM   25  C1  UNL     1      28.363   0.058  54.784  1.00  0.00     0.210 C 
ENDBRANCH   1  24
TORSDOF 4
ENDMDL
MODEL 6
REMARK VINA RESULT:      -7.0      2.850      4.034
REMARK  4 active torsions:
REMARK  status: ('A' for Active; 'I' for Inactive)
REMARK    1  A    between atoms: O1_2  and  C2_3 
REMARK    2  A    between atoms: C6_9  and  N3_10 
REMARK    3  A    between atoms: N3_10  and  C8_12 
REMARK    4  A    between atoms: C15_22  and  O2_23 
ROOT
HETATM    1  C2  UNL     1      23.518  -0.269  53.207  1.00  0.00     0.103 A 
HETATM    2  C3  UNL     1      24.837  -0.218  53.641  1.00  0.00     0.072 A 
HETATM    3  C4  UNL     1      25.756   0.688  53.110  1.00  0.00     0.075 A 
HETATM    4  N1  UNL     1      27.021   0.716  53.548  1.00  0.00    -0.241 NA
HETATM    5  C5  UNL     1      27.873   1.623  52.991  1.00  0.00     0.236 A 
HETATM    6  N2  UNL     1      27.490   2.481  52.029  1.00  0.00    -0.224 NA
HETATM    7  C6  UNL     1      26.213   2.494  51.546  1.00  0.00     0.141 A 
HETATM    8  C13 UNL     1      25.374   1.566  52.128  1.00  0.00     0.041 A 
HETATM    9  C14 UNL     1      24.072   1.543  51.672  1.00  0.00     0.057 A 
HETATM   10  C15 UNL     1      23.178   0.631  52.218  1.00  0.00     0.102 A 
ENDROOT
BRANCH   7  11
HETATM   11  N3  UNL     1      25.883   3.416  50.541  1.00  0.00    -0.342 N 
HETATM   12  C7  UNL     1      26.746   3.673  49.382  1.00  0.00     0.154 C 
BRANCH  11  13
HETATM   13  C8  UNL     1      24.654   4.171  50.599  1.00  0.00     0.248 A 
HETATM   14  N4  UNL     1      24.922   5.494  51.133  1.00  0.00    -0.371 N 
HETATM   15  C9  UNL     1      24.606   6.726  50.497  1.00  0.00     0.104 A 
HETATM   16  H10 UNL     1      25.396   5.608  52.078  1.00  0.00     0.161 HD
HETATM   17  C10 UNL     1      24.014   6.669  49.315  1.00  0.00     0.028 A 
HETATM   18 BR1  UNL     1      23.581   8.311  48.449  1.00  0.00    -0.050 Br
HETATM   19  C11 UNL     1      23.672   5.428  48.635  1.00  0.00     0.062 A 
HETATM   20  C12 UNL     1      24.001   4.326  49.294  1.00  0.00     0.137 A 
HETATM   21  F1  UNL     1      23.697   3.134  48.690  1.00  0.00    -0.207 F 
ENDBRANCH  11  13
ENDBRANCH   7  11
BRANCH  10  22
HETATM   22  O2  UNL     1      21.867   0.602  51.764  1.00  0.00    -0.353 OA
HETATM   23  C16 UNL     1      20.937   1.643  51.971  1.00  0.00     0.210 C 
ENDBRANCH  10  22
BRANCH   1  24
HETATM   24  O1  UNL     1      22.589  -1.142  53.703  1.00  0.00    -0.353 OA
HETATM   25  C1  UNL     1      21.912  -0.925  54.912  1.00  0.00     0.210 C 
ENDBRANCH   1  24
TORSDOF 4
ENDMDL
MODEL 7
REMARK VINA RESULT:      -6.8      2.413      3.614
REMARK  4 active torsions:
REMARK  status: ('A' for Active; 'I' for Inactive)
REMARK    1  A    between atoms: O1_2  and  C2_3 
REMARK    2  A    between atoms: C6_9  and  N3_10 
REMARK    3  A    between atoms: N3_10  and  C8_12 
REMARK    4  A    between atoms: C15_22  and  O2_23 
ROOT
HETATM    1  C2  UNL     1      22.758   0.337  53.133  1.00  0.00     0.103 A 
HETATM    2  C3  UNL     1      21.460   0.830  53.118  1.00  0.00     0.072 A 
HETATM    3  C4  UNL     1      21.128   2.022  52.473  1.00  0.00     0.075 A 
HETATM    4  N1  UNL     1      19.868   2.473  52.474  1.00  0.00    -0.241 NA
HETATM    5  C5  UNL     1      19.604   3.644  51.826  1.00  0.00     0.236 A 
HETATM    6  N2  UNL     1      20.557   4.352  51.193  1.00  0.00    -0.224 NA
HETATM    7  C6  UNL     1      21.858   3.936  51.162  1.00  0.00     0.141 A 
HETATM    8  C13 UNL     1      22.093   2.750  51.825  1.00  0.00     0.041 A 
HETATM    9  C14 UNL     1      23.394   2.290  51.820  1.00  0.00     0.057 A 
HETATM   10  C15 UNL     1      23.696   1.100  52.471  1.00  0.00     0.102 A 
ENDROOT
BRANCH   7  11
HETATM   11  N3  UNL     1      22.800   4.725  50.484  1.00  0.00    -0.342 N 
HETATM   12  C7  UNL     1      23.141   4.518  49.071  1.00  0.00     0.154 C 
BRANCH  11  13
HETATM   13  C8  UNL     1      23.493   5.798  51.155  1.00  0.00     0.248 A 
HETATM   14  N4  UNL     1      24.900   5.765  50.798  1.00  0.00    -0.371 N 
HETATM   15  C9  UNL     1      25.637   6.840  50.228  1.00  0.00     0.104 A 
HETATM   16  H10 UNL     1      25.475   4.885  50.953  1.00  0.00     0.161 HD
HETATM   17  C10 UNL     1      24.990   7.973  50.003  1.00  0.00     0.028 A 
HETATM   18 BR1  UNL     1      25.963   9.425  49.242  1.00  0.00    -0.050 Br
HETATM   19  C11 UNL     1      23.580   8.178  50.302  1.00  0.00     0.062 A 
HETATM   20  C12 UNL     1      22.967   7.129  50.829  1.00  0.00     0.137 A 
HETATM   21  F1  UNL     1      21.637   7.278  51.127  1.00  0.00    -0.207 F 
ENDBRANCH  11  13
ENDBRANCH   7  11
BRANCH  10  22
HETATM   22  O2  UNL     1      25.003   0.633  52.469  1.00  0.00    -0.353 OA
HETATM   23  C16 UNL     1      26.046   1.202  53.231  1.00  0.00     0.210 C 
ENDBRANCH  10  22
BRANCH   1  24
HETATM   24  O1  UNL     1      23.121  -0.827  53.755  1.00  0.00    -0.353 OA
HETATM   25  C1  UNL     1      22.646  -1.190  55.024  1.00  0.00     0.210 C 
ENDBRANCH   1  24
TORSDOF 4
ENDMDL
MODEL 8
REMARK VINA RESULT:      -6.7      2.852      4.196
REMARK  4 active torsions:
REMARK  status: ('A' for Active; 'I' for Inactive)
REMARK    1  A    between atoms: O1_2  and  C2_3 
REMARK    2  A    between atoms: C6_9  and  N3_10 
REMARK    3  A    between atoms: N3_10  and  C8_12 
REMARK    4  A    between atoms: C15_22  and  O2_23 
ROOT
HETATM    1  C2  UNL     1      22.193   0.353  53.519  1.00  0.00     0.103 A 
HETATM    2  C3  UNL     1      23.533   0.006  53.405  1.00  0.00     0.072 A 
HETATM    3  C4  UNL     1      24.424   0.743  52.624  1.00  0.00     0.075 A 
HETATM    4  N1  UNL     1      25.711   0.385  52.532  1.00  0.00    -0.241 NA
HETATM    5  C5  UNL     1      26.534   1.144  51.753  1.00  0.00     0.236 A 
HETATM    6  N2  UNL     1      26.101   2.227  51.082  1.00  0.00    -0.224 NA
HETATM    7  C6  UNL     1      24.799   2.634  51.141  1.00  0.00     0.141 A 
HETATM    8  C13 UNL     1      23.991   1.848  51.936  1.00  0.00     0.041 A 
HETATM    9  C14 UNL     1      22.666   2.222  52.026  1.00  0.00     0.057 A 
HETATM   10  C15 UNL     1      21.801   1.470  52.811  1.00  0.00     0.102 A 
ENDROOT
BRANCH   7  11
HETATM   11  N3  UNL     1      24.417   3.773  50.415  1.00  0.00    -0.342 N 
HETATM   12  C7  UNL     1      23.761   3.698  49.104  1.00  0.00     0.154 C 
BRANCH  11  13
HETATM   13  C8  UNL     1      24.654   5.099  50.933  1.00  0.00     0.248 A 
HETATM   14  N4  UNL     1      25.798   5.685  50.258  1.00  0.00    -0.371 N 
HETATM   15  C9  UNL     1      25.805   6.924  49.559  1.00  0.00     0.104 A 
HETATM   16  H10 UNL     1      26.737   5.186  50.255  1.00  0.00     0.161 HD
HETATM   17  C10 UNL     1      24.672   7.607  49.517  1.00  0.00     0.028 A 
HETATM   18 BR1  UNL     1      24.663   9.270  48.585  1.00  0.00    -0.050 Br
HETATM   19  C11 UNL     1      23.431   7.167  50.139  1.00  0.00     0.062 A 
HETATM   20  C12 UNL     1      23.511   6.004  50.770  1.00  0.00     0.137 A 
HETATM   21  F1  UNL     1      22.365   5.551  51.371  1.00  0.00    -0.207 F 
ENDBRANCH  11  13
ENDBRANCH   7  11
BRANCH  10  22
HETATM   22  O2  UNL     1      20.467   1.840  52.906  1.00  0.00    -0.353 OA
HETATM   23  C16 UNL     1      19.522   1.660  51.872  1.00  0.00     0.210 C 
ENDBRANCH  10  22
BRANCH   1  24
HETATM   24  O1  UNL     1      21.290  -0.345  54.275  1.00  0.00    -0.353 OA
HETATM   25  C1  UNL     1      21.456  -1.700  54.597  1.00  0.00     0.210 C 
ENDBRANCH   1  24
TORSDOF 4
ENDMDL
MODEL 9
REMARK VINA RESULT:      -6.6      2.803      4.212
REMARK  4 active torsions:
REMARK  status: ('A' for Active; 'I' for Inactive)
REMARK    1  A    between atoms: O1_2  and  C2_3 
REMARK    2  A    between atoms: C6_9  and  N3_10 
REMARK    3  A    between atoms: N3_10  and  C8_12 
REMARK    4  A    between atoms: C15_22  and  O2_23 
ROOT
HETATM    1  C2  UNL     1      22.201  -0.070  53.098  1.00  0.00     0.103 A 
HETATM    2  C3  UNL     1      20.990   0.553  52.825  1.00  0.00     0.072 A 
HETATM    3  C4  UNL     1      20.924   1.835  52.277  1.00  0.00     0.075 A 
HETATM    4  N1  UNL     1      19.742   2.410  52.023  1.00  0.00    -0.241 NA
HETATM    5  C5  UNL     1      19.741   3.664  51.487  1.00  0.00     0.236 A 
HETATM    6  N2  UNL     1      20.873   4.334  51.208  1.00  0.00    -0.224 NA
HETATM    7  C6  UNL     1      22.104   3.793  51.448  1.00  0.00     0.141 A 
HETATM    8  C13 UNL     1      22.074   2.524  51.989  1.00  0.00     0.041 A 
HETATM    9  C14 UNL     1      23.295   1.937  52.248  1.00  0.00     0.057 A 
HETATM   10  C15 UNL     1      23.332   0.660  52.794  1.00  0.00     0.102 A 
ENDROOT
BRANCH   7  11
HETATM   11  N3  UNL     1      23.244   4.548  51.132  1.00  0.00    -0.342 N 
HETATM   12  C7  UNL     1      23.928   5.403  52.109  1.00  0.00     0.154 C 
BRANCH  11  13
HETATM   13  C8  UNL     1      23.811   4.520  49.805  1.00  0.00     0.248 A 
HETATM   14  N4  UNL     1      23.841   5.866  49.261  1.00  0.00    -0.371 N 
HETATM   15  C9  UNL     1      24.996   6.539  48.774  1.00  0.00     0.104 A 
HETATM   16  H10 UNL     1      22.951   6.443  49.202  1.00  0.00     0.161 HD
HETATM   17  C10 UNL     1      26.146   5.886  48.816  1.00  0.00     0.028 A 
HETATM   18 BR1  UNL     1      27.703   6.772  48.165  1.00  0.00    -0.050 Br
HETATM   19  C11 UNL     1      26.296   4.531  49.328  1.00  0.00     0.062 A 
HETATM   20  C12 UNL     1      25.174   3.976  49.762  1.00  0.00     0.137 A 
HETATM   21  F1  UNL     1      25.269   2.700  50.253  1.00  0.00    -0.207 F 
ENDBRANCH  11  13
ENDBRANCH   7  11
BRANCH  10  22
HETATM   22  O2  UNL     1      24.557   0.064  53.057  1.00  0.00    -0.353 OA
HETATM   23  C16 UNL     1      25.763   0.778  53.226  1.00  0.00     0.210 C 
ENDBRANCH  10  22
BRANCH   1  24
HETATM   24  O1  UNL     1      22.306  -1.324  53.635  1.00  0.00    -0.353 OA
HETATM   25  C1  UNL     1      21.890  -1.629  54.940  1.00  0.00     0.210 C 
ENDBRANCH   1  24
TORSDOF 4
ENDMDL
