MODEL 1
REMARK VINA RESULT:      -8.2      0.000      0.000
REMARK  6 active torsions:
REMARK  status: ('A' for Active; 'I' for Inactive)
REMARK    1  A    between atoms: C2_2  and  C3_3 
REMARK    2  A    between atoms: C3_3  and  N1_4 
REMARK    3  A    between atoms: N1_4  and  C4_5 
REMARK       I    between atoms: N1_4  and  C14_16 
REMARK    4  A    between atoms: C4_5  and  C5_6 
REMARK    5  A    between atoms: C8_10  and  C9_11 
REMARK       I    between atoms: C14_16  and  N2_18 
REMARK    6  A    between atoms: N2_18  and  C15_19 
ROOT
HETATM    1  N1  UNL     1      24.989   2.798  51.477  1.00  0.00    -0.331 N 
HETATM    2  C14 UNL     1      26.144   2.075  51.861  1.00  0.00     0.323 C 
HETATM    3  O2  UNL     1      27.122   2.614  51.287  1.00  0.00    -0.247 OA
HETATM    4  N2  UNL     1      26.319   0.959  52.704  1.00  0.00    -0.309 N 
HETATM    5  H23 UNL     1      25.425   0.645  53.088  1.00  0.00     0.170 HD
ENDROOT
BRANCH   1   6
HETATM    6  C3  UNL     1      25.218   3.911  50.567  1.00  0.00     0.127 C 
BRANCH   6   7
HETATM    7  C2  UNL     1      24.518   3.688  49.241  1.00  0.00     0.015 C 
HETATM    8  C1  UNL     1      23.535   4.747  48.882  1.00  0.00     0.006 C 
ENDBRANCH   6   7
ENDBRANCH   1   6
BRANCH   1   9
HETATM    9  C4  UNL     1      23.762   2.381  52.040  1.00  0.00     0.164 C 
BRANCH   9  10
HETATM   10  C5  UNL     1      23.210   1.051  51.709  1.00  0.00     0.175 A 
HETATM   11  O1  UNL     1      23.081   0.392  52.981  1.00  0.00    -0.344 OA
HETATM   12  C6  UNL     1      21.939  -0.138  53.489  1.00  0.00     0.050 A 
HETATM   13  C7  UNL     1      21.988  -0.718  54.868  1.00  0.00     0.077 C 
HETATM   14  C8  UNL     1      20.825  -0.153  52.818  1.00  0.00    -0.029 A 
HETATM   15  C11 UNL     1      20.799   0.442  51.490  1.00  0.00     0.014 A 
HETATM   16  C12 UNL     1      21.926   0.991  51.003  1.00  0.00    -0.052 A 
HETATM   17  C13 UNL     1      21.693   1.505  49.623  1.00  0.00     0.046 C 
BRANCH  14  18
HETATM   18  C9  UNL     1      19.614  -0.751  53.436  1.00  0.00     0.036 C 
HETATM   19  C10 UNL     1      18.389  -0.573  52.542  1.00  0.00     0.010 C 
ENDBRANCH  14  18
ENDBRANCH   9  10
ENDBRANCH   1   9
BRANCH   4  20
HETATM   20  C15 UNL     1      27.518   0.308  53.025  1.00  0.00     0.036 A 
HETATM   21  C16 UNL     1      28.687   0.850  53.497  1.00  0.00     0.029 A 
HETATM   22  C17 UNL     1      29.823   0.150  53.790  1.00  0.00     0.002 A 
HETATM   23  C18 UNL     1      29.836  -1.202  53.611  1.00  0.00     0.000 A 
HETATM   24  C19 UNL     1      28.699  -1.803  53.141  1.00  0.00     0.002 A 
HETATM   25  C20 UNL     1      27.576  -1.058  52.859  1.00  0.00     0.029 A 
ENDBRANCH   4  20
TORSDOF 6
ENDMDL
MODEL 2
REMARK VINA RESULT:      -8.1      1.505      5.075
REMARK  6 active torsions:
REMARK  status: ('A' for Active; 'I' for Inactive)
REMARK    1  A    between atoms: C2_2  and  C3_3 
REMARK    2  A    between atoms: C3_3  and  N1_4 
REMARK    3  A    between atoms: N1_4  and  C4_5 
REMARK       I    between atoms: N1_4  and  C14_16 
REMARK    4  A    between atoms: C4_5  and  C5_6 
REMARK    5  A    between atoms: C8_10  and  C9_11 
REMARK       I    between atoms: C14_16  and  N2_18 
REMARK    6  A    between atoms: N2_18  and  C15_19 
ROOT
HETATM    1  N1  UNL     1      26.550   0.902  52.776  1.00  0.00    -0.331 N 
HETATM    2  C14 UNL     1      26.731   2.028  51.938  1.00  0.00     0.323 C 
HETATM    3  O2  UNL     1      27.857   2.512  52.213  1.00  0.00    -0.247 OA
HETATM    4  N2  UNL     1      25.910   2.610  50.952  1.00  0.00    -0.309 N 
HETATM    5  H23 UNL     1      25.032   2.095  50.854  1.00  0.00     0.170 HD
ENDROOT
BRANCH   1   6
HETATM    6  C3  UNL     1      27.646   0.614  53.689  1.00  0.00     0.127 C 
BRANCH   6   7
HETATM    7  C2  UNL     1      28.289  -0.721  53.370  1.00  0.00     0.015 C 
HETATM    8  C1  UNL     1      29.768  -0.745  53.539  1.00  0.00     0.006 C 
ENDBRANCH   6   7
ENDBRANCH   1   6
BRANCH   1   9
HETATM    9  C4  UNL     1      25.350   0.174  52.611  1.00  0.00     0.164 C 
BRANCH   9  10
HETATM   10  C5  UNL     1      24.071   0.738  53.090  1.00  0.00     0.175 A 
HETATM   11  O1  UNL     1      23.557   1.464  51.959  1.00  0.00    -0.344 OA
HETATM   12  C6  UNL     1      22.344   1.275  51.378  1.00  0.00     0.050 A 
HETATM   13  C7  UNL     1      22.018   2.080  50.159  1.00  0.00     0.077 C 
HETATM   14  C8  UNL     1      21.476   0.428  51.848  1.00  0.00    -0.029 A 
HETATM   15  C11 UNL     1      21.830  -0.360  53.019  1.00  0.00     0.014 A 
HETATM   16  C12 UNL     1      23.043  -0.189  53.574  1.00  0.00    -0.052 A 
HETATM   17  C13 UNL     1      23.186  -1.059  54.777  1.00  0.00     0.046 C 
BRANCH  14  18
HETATM   18  C9  UNL     1      20.168   0.275  51.162  1.00  0.00     0.036 C 
HETATM   19  C10 UNL     1      19.046   0.007  52.162  1.00  0.00     0.010 C 
ENDBRANCH  14  18
ENDBRANCH   9  10
ENDBRANCH   1   9
BRANCH   4  20
HETATM   20  C15 UNL     1      26.183   3.739  50.167  1.00  0.00     0.036 A 
HETATM   21  C16 UNL     1      27.215   3.939  49.285  1.00  0.00     0.029 A 
HETATM   22  C17 UNL     1      27.420   5.072  48.549  1.00  0.00     0.002 A 
HETATM   23  C18 UNL     1      26.546   6.113  48.674  1.00  0.00     0.000 A 
HETATM   24  C19 UNL     1      25.494   5.974  49.539  1.00  0.00     0.002 A 
HETATM   25  C20 UNL     1      25.327   4.814  50.260  1.00  0.00     0.029 A 
ENDBRANCH   4  20
TORSDOF 6
ENDMDL
MODEL 3
REMARK VINA RESULT:      -8.1      1.692      4.715
REMARK  6 active torsions:
REMARK  status: ('A' for Active; 'I' for Inactive)
REMARK    1  A    between atoms: C2_2  and  C3_3 
REMARK    2  A    between atoms: C3_3  and  N1_4 
REMARK    3  A    between atoms: N1_4  and  C4_5 
REMARK       I    between atoms: N1_4  and  C14_16 
REMARK    4  A    between atoms: C4_5  and  C5_6 
REMARK    5  A    between atoms: C8_10  and  C9_11 
REMARK       I    between atoms: C14_16  and  N2_18 
REMARK    6  A    between atoms: N2_18  and  C15_19 
ROOT
HETATM    1  N1  UNL     1      23.570  -0.295  53.727  1.00  0.00    -0.331 N 
HETATM    2  C14 UNL     1      24.963  -0.528  53.832  1.00  0.00     0.323 C 
HETATM    3  O2  UNL     1      25.142  -1.221  54.864  1.00  0.00    -0.247 OA
HETATM    4  N2  UNL     1      26.047  -0.129  53.025  1.00  0.00    -0.309 N 
HETATM    5  H23 UNL     1      25.727   0.428  52.229  1.00  0.00     0.170 HD
ENDROOT
BRANCH   1   6
HETATM    6  C3  UNL     1      22.754  -0.881  54.781  1.00  0.00     0.127 C 
BRANCH   6   7
HETATM    7  C2  UNL     1      21.306  -0.451  54.656  1.00  0.00     0.015 C 
HETATM    8  C1  UNL     1      20.399  -1.502  54.117  1.00  0.00     0.006 C 
ENDBRANCH   6   7
ENDBRANCH   1   6
BRANCH   1   9
HETATM    9  C4  UNL     1      23.131   0.444  52.606  1.00  0.00     0.164 C 
BRANCH   9  10
HETATM   10  C5  UNL     1      23.241   1.918  52.603  1.00  0.00     0.175 A 
HETATM   11  O1  UNL     1      24.488   2.180  51.936  1.00  0.00    -0.344 OA
HETATM   12  C6  UNL     1      24.652   2.958  50.835  1.00  0.00     0.050 A 
HETATM   13  C7  UNL     1      26.022   3.050  50.239  1.00  0.00     0.077 C 
HETATM   14  C8  UNL     1      23.665   3.612  50.297  1.00  0.00    -0.029 A 
HETATM   15  C11 UNL     1      22.338   3.484  50.881  1.00  0.00     0.014 A 
HETATM   16  C12 UNL     1      22.177   2.690  51.955  1.00  0.00    -0.052 A 
HETATM   17  C13 UNL     1      20.759   2.730  52.415  1.00  0.00     0.046 C 
BRANCH  14  18
HETATM   18  C9  UNL     1      23.918   4.445  49.094  1.00  0.00     0.036 C 
HETATM   19  C10 UNL     1      22.762   4.351  48.101  1.00  0.00     0.010 C 
ENDBRANCH  14  18
ENDBRANCH   9  10
ENDBRANCH   1   9
BRANCH   4  20
HETATM   20  C15 UNL     1      27.406  -0.414  53.215  1.00  0.00     0.036 A 
HETATM   21  C16 UNL     1      28.057  -1.614  53.081  1.00  0.00     0.029 A 
HETATM   22  C17 UNL     1      29.392  -1.819  53.284  1.00  0.00     0.002 A 
HETATM   23  C18 UNL     1      30.178  -0.766  53.651  1.00  0.00     0.000 A 
HETATM   24  C19 UNL     1      29.587   0.460  53.802  1.00  0.00     0.002 A 
HETATM   25  C20 UNL     1      28.237   0.620  53.587  1.00  0.00     0.029 A 
ENDBRANCH   4  20
TORSDOF 6
ENDMDL
MODEL 4
REMARK VINA RESULT:      -7.5      1.856      4.729
REMARK  6 active torsions:
REMARK  status: ('A' for Active; 'I' for Inactive)
REMARK    1  A    between atoms: C2_2  and  C3_3 
REMARK    2  A    between atoms: C3_3  and  N1_4 
REMARK    3  A    between atoms: N1_4  and  C4_5 
REMARK       I    between atoms: N1_4  and  C14_16 
REMARK    4  A    between atoms: C4_5  and  C5_6 
REMARK    5  A    between atoms: C8_10  and  C9_11 
REMARK       I    between atoms: C14_16  and  N2_18 
REMARK    6  A    between atoms: N2_18  and  C15_19 
ROOT
HETATM    1  N1  UNL     1      25.466   1.892  52.191  1.00  0.00    -0.331 N 
HETATM    2  C14 UNL     1      26.067   2.869  51.361  1.00  0.00     0.323 C 
HETATM    3  O2  UNL     1      27.307   2.680  51.412  1.00  0.00    -0.247 OA
HETATM    4  N2  UNL     1      25.519   3.904  50.578  1.00  0.00    -0.309 N 
HETATM    5  H23 UNL     1      24.499   3.919  50.649  1.00  0.00     0.170 HD
ENDROOT
BRANCH   1   6
HETATM    6  C3  UNL     1      26.385   0.978  52.854  1.00  0.00     0.127 C 
BRANCH   6   7
HETATM    7  C2  UNL     1      26.200   1.008  54.358  1.00  0.00     0.015 C 
HETATM    8  C1  UNL     1      25.885  -0.316  54.962  1.00  0.00     0.006 C 
ENDBRANCH   6   7
ENDBRANCH   1   6
BRANCH   1   9
HETATM    9  C4  UNL     1      24.054   1.895  52.257  1.00  0.00     0.164 C 
BRANCH   9  10
HETATM   10  C5  UNL     1      23.290   0.721  51.787  1.00  0.00     0.175 A 
HETATM   11  O1  UNL     1      23.001  -0.019  52.986  1.00  0.00    -0.344 OA
HETATM   12  C6  UNL     1      21.766  -0.382  53.418  1.00  0.00     0.050 A 
HETATM   13  C7  UNL     1      21.662  -1.086  54.735  1.00  0.00     0.077 C 
HETATM   14  C8  UNL     1      20.691  -0.136  52.728  1.00  0.00    -0.029 A 
HETATM   15  C11 UNL     1      20.818   0.575  51.463  1.00  0.00     0.014 A 
HETATM   16  C12 UNL     1      22.041   0.956  51.054  1.00  0.00    -0.052 A 
HETATM   17  C13 UNL     1      21.953   1.629  49.726  1.00  0.00     0.046 C 
BRANCH  14  18
HETATM   18  C9  UNL     1      19.373  -0.563  53.261  1.00  0.00     0.036 C 
HETATM   19  C10 UNL     1      18.267  -0.371  52.226  1.00  0.00     0.010 C 
ENDBRANCH  14  18
ENDBRANCH   9  10
ENDBRANCH   1   9
BRANCH   4  20
HETATM   20  C15 UNL     1      26.206   4.830  49.781  1.00  0.00     0.036 A 
HETATM   21  C16 UNL     1      27.315   4.630  48.997  1.00  0.00     0.029 A 
HETATM   22  C17 UNL     1      27.935   5.585  48.243  1.00  0.00     0.002 A 
HETATM   23  C18 UNL     1      27.441   6.857  48.242  1.00  0.00     0.000 A 
HETATM   24  C19 UNL     1      26.336   7.121  49.006  1.00  0.00     0.002 A 
HETATM   25  C20 UNL     1      25.742   6.127  49.750  1.00  0.00     0.029 A 
ENDBRANCH   4  20
TORSDOF 6
ENDMDL
MODEL 5
REMARK VINA RESULT:      -7.5      2.368      6.571
REMARK  6 active torsions:
REMARK  status: ('A' for Active; 'I' for Inactive)
REMARK    1  A    between atoms: C2_2  and  C3_3 
REMARK    2  A    between atoms: C3_3  and  N1_4 
REMARK    3  A    between atoms: N1_4  and  C4_5 
REMARK       I    between atoms: N1_4  and  C14_16 
REMARK    4  A    between atoms: C4_5  and  C5_6 
REMARK    5  A    between atoms: C8_10  and  C9_11 
REMARK       I    between atoms: C14_16  and  N2_18 
REMARK    6  A    between atoms: N2_18  and  C15_19 
ROOT
HETATM    1  N1  UNL     1      23.059   3.055  51.919  1.00  0.00    -0.331 N 
HETATM    2  C14 UNL     1      23.631   4.075  51.119  1.00  0.00     0.323 C 
HETATM    3  O2  UNL     1      22.734   4.472  50.335  1.00  0.00    -0.247 OA
HETATM    4  N2  UNL     1      24.924   4.634  51.090  1.00  0.00    -0.309 N 
HETATM    5  H23 UNL     1      25.529   4.197  51.790  1.00  0.00     0.170 HD
ENDROOT
BRANCH   1   6
HETATM    6  C3  UNL     1      21.664   2.747  51.641  1.00  0.00     0.127 C 
BRANCH   6   7
HETATM    7  C2  UNL     1      21.092   1.806  52.682  1.00  0.00     0.015 C 
HETATM    8  C1  UNL     1      20.532   0.544  52.126  1.00  0.00     0.006 C 
ENDBRANCH   6   7
ENDBRANCH   1   6
BRANCH   1   9
HETATM    9  C4  UNL     1      23.890   2.481  52.907  1.00  0.00     0.164 C 
BRANCH   9  10
HETATM   10  C5  UNL     1      24.851   1.421  52.540  1.00  0.00     0.175 A 
HETATM   11  O1  UNL     1      26.134   2.069  52.595  1.00  0.00    -0.344 OA
HETATM   12  C6  UNL     1      27.195   1.671  53.344  1.00  0.00     0.050 A 
HETATM   13  C7  UNL     1      28.425   2.522  53.325  1.00  0.00     0.077 C 
HETATM   14  C8  UNL     1      27.166   0.588  54.064  1.00  0.00    -0.029 A 
HETATM   15  C11 UNL     1      25.946  -0.207  54.085  1.00  0.00     0.014 A 
HETATM   16  C12 UNL     1      24.890   0.207  53.363  1.00  0.00    -0.052 A 
HETATM   17  C13 UNL     1      23.766  -0.764  53.492  1.00  0.00     0.046 C 
BRANCH  14  18
HETATM   18  C9  UNL     1      28.363   0.212  54.857  1.00  0.00     0.036 C 
HETATM   19  C10 UNL     1      29.294  -0.699  54.059  1.00  0.00     0.010 C 
ENDBRANCH  14  18
ENDBRANCH   9  10
ENDBRANCH   1   9
BRANCH   4  20
HETATM   20  C15 UNL     1      25.398   5.652  50.251  1.00  0.00     0.036 A 
HETATM   21  C16 UNL     1      26.079   5.536  49.065  1.00  0.00     0.029 A 
HETATM   22  C17 UNL     1      26.513   6.578  48.296  1.00  0.00     0.002 A 
HETATM   23  C18 UNL     1      26.268   7.855  48.707  1.00  0.00     0.000 A 
HETATM   24  C19 UNL     1      25.593   8.038  49.884  1.00  0.00     0.002 A 
HETATM   25  C20 UNL     1      25.173   6.957  50.627  1.00  0.00     0.029 A 
ENDBRANCH   4  20
TORSDOF 6
ENDMDL
MODEL 6
REMARK VINA RESULT:      -7.4      2.548      5.379
REMARK  6 active torsions:
REMARK  status: ('A' for Active; 'I' for Inactive)
REMARK    1  A    between atoms: C2_2  and  C3_3 
REMARK    2  A    between atoms: C3_3  and  N1_4 
REMARK    3  A    between atoms: N1_4  and  C4_5 
REMARK       I    between atoms: N1_4  and  C14_16 
REMARK    4  A    between atoms: C4_5  and  C5_6 
REMARK    5  A    between atoms: C8_10  and  C9_11 
REMARK       I    between atoms: C14_16  and  N2_18 
REMARK    6  A    between atoms: N2_18  and  C15_19 
ROOT
HETATM    1  N1  UNL     1      22.576   3.312  50.010  1.00  0.00    -0.331 N 
HETATM    2  C14 UNL     1      23.675   4.049  49.504  1.00  0.00     0.323 C 
HETATM    3  O2  UNL     1      23.312   4.540  48.407  1.00  0.00    -0.247 OA
HETATM    4  N2  UNL     1      24.970   4.275  50.012  1.00  0.00    -0.309 N 
HETATM    5  H23 UNL     1      25.100   3.805  50.910  1.00  0.00     0.170 HD
ENDROOT
BRANCH   1   6
HETATM    6  C3  UNL     1      21.383   3.311  49.177  1.00  0.00     0.127 C 
BRANCH   6   7
HETATM    7  C2  UNL     1      21.005   1.903  48.761  1.00  0.00     0.015 C 
HETATM    8  C1  UNL     1      19.800   1.364  49.450  1.00  0.00     0.006 C 
ENDBRANCH   6   7
ENDBRANCH   1   6
BRANCH   1   9
HETATM    9  C4  UNL     1      22.750   2.695  51.269  1.00  0.00     0.164 C 
BRANCH   9  10
HETATM   10  C5  UNL     1      23.250   1.306  51.349  1.00  0.00     0.175 A 
HETATM   11  O1  UNL     1      24.672   1.449  51.510  1.00  0.00    -0.344 OA
HETATM   12  C6  UNL     1      25.413   0.933  52.525  1.00  0.00     0.050 A 
HETATM   13  C7  UNL     1      26.874   1.254  52.560  1.00  0.00     0.077 C 
HETATM   14  C8  UNL     1      24.891   0.181  53.449  1.00  0.00    -0.029 A 
HETATM   15  C11 UNL     1      23.462  -0.093  53.405  1.00  0.00     0.014 A 
HETATM   16  C12 UNL     1      22.729   0.443  52.413  1.00  0.00    -0.052 A 
HETATM   17  C13 UNL     1      21.307   0.009  52.532  1.00  0.00     0.046 C 
BRANCH  14  18
HETATM   18  C9  UNL     1      25.761  -0.351  54.528  1.00  0.00     0.036 C 
HETATM   19  C10 UNL     1      24.944  -1.088  55.587  1.00  0.00     0.010 C 
ENDBRANCH  14  18
ENDBRANCH   9  10
ENDBRANCH   1   9
BRANCH   4  20
HETATM   20  C15 UNL     1      25.998   5.028  49.429  1.00  0.00     0.036 A 
HETATM   21  C16 UNL     1      26.038   6.378  49.184  1.00  0.00     0.029 A 
HETATM   22  C17 UNL     1      27.080   7.048  48.608  1.00  0.00     0.002 A 
HETATM   23  C18 UNL     1      28.192   6.353  48.233  1.00  0.00     0.000 A 
HETATM   24  C19 UNL     1      28.214   5.001  48.451  1.00  0.00     0.002 A 
HETATM   25  C20 UNL     1      27.140   4.367  49.034  1.00  0.00     0.029 A 
ENDBRANCH   4  20
TORSDOF 6
ENDMDL
MODEL 7
REMARK VINA RESULT:      -7.3      1.810      6.174
REMARK  6 active torsions:
REMARK  status: ('A' for Active; 'I' for Inactive)
REMARK    1  A    between atoms: C2_2  and  C3_3 
REMARK    2  A    between atoms: C3_3  and  N1_4 
REMARK    3  A    between atoms: N1_4  and  C4_5 
REMARK       I    between atoms: N1_4  and  C14_16 
REMARK    4  A    between atoms: C4_5  and  C5_6 
REMARK    5  A    between atoms: C8_10  and  C9_11 
REMARK       I    between atoms: C14_16  and  N2_18 
REMARK    6  A    between atoms: N2_18  and  C15_19 
ROOT
HETATM    1  N1  UNL     1      22.851   2.377  50.641  1.00  0.00    -0.331 N 
HETATM    2  C14 UNL     1      21.872   1.451  51.079  1.00  0.00     0.323 C 
HETATM    3  O2  UNL     1      21.542   0.766  50.080  1.00  0.00    -0.247 OA
HETATM    4  N2  UNL     1      21.288   1.226  52.341  1.00  0.00    -0.309 N 
HETATM    5  H23 UNL     1      21.667   1.868  53.042  1.00  0.00     0.170 HD
ENDROOT
BRANCH   1   6
HETATM    6  C3  UNL     1      23.198   2.302  49.230  1.00  0.00     0.127 C 
BRANCH   6   7
HETATM    7  C2  UNL     1      23.001   3.640  48.545  1.00  0.00     0.015 C 
HETATM    8  C1  UNL     1      22.143   3.586  47.329  1.00  0.00     0.006 C 
ENDBRANCH   6   7
ENDBRANCH   1   6
BRANCH   1   9
HETATM    9  C4  UNL     1      23.396   3.237  51.621  1.00  0.00     0.164 C 
BRANCH   9  10
HETATM   10  C5  UNL     1      24.662   2.880  52.295  1.00  0.00     0.175 A 
HETATM   11  O1  UNL     1      24.311   1.780  53.153  1.00  0.00    -0.344 OA
HETATM   12  C6  UNL     1      24.890   0.552  53.147  1.00  0.00     0.050 A 
HETATM   13  C7  UNL     1      24.334  -0.490  54.067  1.00  0.00     0.077 C 
HETATM   14  C8  UNL     1      25.897   0.265  52.375  1.00  0.00    -0.029 A 
HETATM   15  C11 UNL     1      26.400   1.289  51.471  1.00  0.00     0.014 A 
HETATM   16  C12 UNL     1      25.805   2.495  51.461  1.00  0.00    -0.052 A 
HETATM   17  C13 UNL     1      26.495   3.401  50.499  1.00  0.00     0.046 C 
BRANCH  14  18
HETATM   18  C9  UNL     1      26.482  -1.098  52.423  1.00  0.00     0.036 C 
HETATM   19  C10 UNL     1      27.874  -1.083  53.050  1.00  0.00     0.010 C 
ENDBRANCH  14  18
ENDBRANCH   9  10
ENDBRANCH   1   9
BRANCH   4  20
HETATM   20  C15 UNL     1      20.316   0.274  52.678  1.00  0.00     0.036 A 
HETATM   21  C16 UNL     1      19.028   0.166  52.216  1.00  0.00     0.029 A 
HETATM   22  C17 UNL     1      18.130  -0.793  52.591  1.00  0.00     0.002 A 
HETATM   23  C18 UNL     1      18.508  -1.741  53.496  1.00  0.00     0.000 A 
HETATM   24  C19 UNL     1      19.782  -1.687  53.994  1.00  0.00     0.002 A 
HETATM   25  C20 UNL     1      20.654  -0.702  53.588  1.00  0.00     0.029 A 
ENDBRANCH   4  20
TORSDOF 6
ENDMDL
MODEL 8
REMARK VINA RESULT:      -7.3      1.715      2.095
REMARK  6 active torsions:
REMARK  status: ('A' for Active; 'I' for Inactive)
REMARK    1  A    between atoms: C2_2  and  C3_3 
REMARK    2  A    between atoms: C3_3  and  N1_4 
REMARK    3  A    between atoms: N1_4  and  C4_5 
REMARK       I    between atoms: N1_4  and  C14_16 
REMARK    4  A    between atoms: C4_5  and  C5_6 
REMARK    5  A    between atoms: C8_10  and  C9_11 
REMARK       I    between atoms: C14_16  and  N2_18 
REMARK    6  A    between atoms: N2_18  and  C15_19 
ROOT
HETATM    1  N1  UNL     1      23.154   3.123  51.701  1.00  0.00    -0.331 N 
HETATM    2  C14 UNL     1      24.325   2.763  52.412  1.00  0.00     0.323 C 
HETATM    3  O2  UNL     1      24.297   3.385  53.503  1.00  0.00    -0.247 OA
HETATM    4  N2  UNL     1      25.393   1.902  52.092  1.00  0.00    -0.309 N 
HETATM    5  H23 UNL     1      25.261   1.478  51.170  1.00  0.00     0.170 HD
ENDROOT
BRANCH   1   6
HETATM    6  C3  UNL     1      22.275   4.066  52.375  1.00  0.00     0.127 C 
BRANCH   6   7
HETATM    7  C2  UNL     1      21.450   4.856  51.378  1.00  0.00     0.015 C 
HETATM    8  C1  UNL     1      22.057   6.154  50.973  1.00  0.00     0.006 C 
ENDBRANCH   6   7
ENDBRANCH   1   6
BRANCH   1   9
HETATM    9  C4  UNL     1      22.960   2.507  50.444  1.00  0.00     0.164 C 
BRANCH   9  10
HETATM   10  C5  UNL     1      22.208   1.238  50.352  1.00  0.00     0.175 A 
HETATM   11  O1  UNL     1      22.626   0.492  51.509  1.00  0.00    -0.344 OA
HETATM   12  C6  UNL     1      21.806  -0.012  52.467  1.00  0.00     0.050 A 
HETATM   13  C7  UNL     1      22.436  -0.697  53.639  1.00  0.00     0.077 C 
HETATM   14  C8  UNL     1      20.511   0.085  52.392  1.00  0.00    -0.029 A 
HETATM   15  C11 UNL     1      19.926   0.780  51.254  1.00  0.00     0.014 A 
HETATM   16  C12 UNL     1      20.744   1.302  50.322  1.00  0.00    -0.052 A 
HETATM   17  C13 UNL     1      19.945   1.931  49.231  1.00  0.00     0.046 C 
BRANCH  14  18
HETATM   18  C9  UNL     1      19.676  -0.491  53.476  1.00  0.00     0.036 C 
HETATM   19  C10 UNL     1      18.322  -0.957  52.945  1.00  0.00     0.010 C 
ENDBRANCH  14  18
ENDBRANCH   9  10
ENDBRANCH   1   9
BRANCH   4  20
HETATM   20  C15 UNL     1      26.520   1.608  52.872  1.00  0.00     0.036 A 
HETATM   21  C16 UNL     1      27.715   2.281  52.938  1.00  0.00     0.029 A 
HETATM   22  C17 UNL     1      28.776   1.936  53.725  1.00  0.00     0.002 A 
HETATM   23  C18 UNL     1      28.679   0.837  54.528  1.00  0.00     0.000 A 
HETATM   24  C19 UNL     1      27.511   0.122  54.507  1.00  0.00     0.002 A 
HETATM   25  C20 UNL     1      26.466   0.507  53.698  1.00  0.00     0.029 A 
ENDBRANCH   4  20
TORSDOF 6
ENDMDL
MODEL 9
REMARK VINA RESULT:      -7.1      1.608      2.331
REMARK  6 active torsions:
REMARK  status: ('A' for Active; 'I' for Inactive)
REMARK    1  A    between atoms: C2_2  and  C3_3 
REMARK    2  A    between atoms: C3_3  and  N1_4 
REMARK    3  A    between atoms: N1_4  and  C4_5 
REMARK       I    between atoms: N1_4  and  C14_16 
REMARK    4  A    between atoms: C4_5  and  C5_6 
REMARK    5  A    between atoms: C8_10  and  C9_11 
REMARK       I    between atoms: C14_16  and  N2_18 
REMARK    6  A    between atoms: N2_18  and  C15_19 
ROOT
HETATM    1  N1  UNL     1      22.510   2.807  50.774  1.00  0.00    -0.331 N 
HETATM    2  C14 UNL     1      23.789   2.417  51.238  1.00  0.00     0.323 C 
HETATM    3  O2  UNL     1      24.635   3.004  50.518  1.00  0.00    -0.247 OA
HETATM    4  N2  UNL     1      24.191   1.557  52.279  1.00  0.00    -0.309 N 
HETATM    5  H23 UNL     1      23.380   1.163  52.764  1.00  0.00     0.170 HD
ENDROOT
BRANCH   1   6
HETATM    6  C3  UNL     1      22.504   3.729  49.647  1.00  0.00     0.127 C 
BRANCH   6   7
HETATM    7  C2  UNL     1      21.763   3.142  48.462  1.00  0.00     0.015 C 
HETATM    8  C1  UNL     1      22.423   1.953  47.856  1.00  0.00     0.006 C 
ENDBRANCH   6   7
ENDBRANCH   1   6
BRANCH   1   9
HETATM    9  C4  UNL     1      21.395   2.288  51.470  1.00  0.00     0.164 C 
BRANCH   9  10
HETATM   10  C5  UNL     1      20.940   0.906  51.211  1.00  0.00     0.175 A 
HETATM   11  O1  UNL     1      21.361   0.169  52.373  1.00  0.00    -0.344 OA
HETATM   12  C6  UNL     1      20.555  -0.562  53.186  1.00  0.00     0.050 A 
HETATM   13  C7  UNL     1      21.169  -1.198  54.393  1.00  0.00     0.077 C 
HETATM   14  C8  UNL     1      19.287  -0.719  52.943  1.00  0.00    -0.029 A 
HETATM   15  C11 UNL     1      18.711  -0.067  51.776  1.00  0.00     0.014 A 
HETATM   16  C12 UNL     1      19.508   0.679  50.991  1.00  0.00    -0.052 A 
HETATM   17  C13 UNL     1      18.733   1.221  49.838  1.00  0.00     0.046 C 
BRANCH  14  18
HETATM   18  C9  UNL     1      18.467  -1.534  53.874  1.00  0.00     0.036 C 
HETATM   19  C10 UNL     1      17.360  -2.279  53.131  1.00  0.00     0.010 C 
ENDBRANCH  14  18
ENDBRANCH   9  10
ENDBRANCH   1   9
BRANCH   4  20
HETATM   20  C15 UNL     1      25.498   1.231  52.665  1.00  0.00     0.036 A 
HETATM   21  C16 UNL     1      26.395   1.988  53.377  1.00  0.00     0.029 A 
HETATM   22  C17 UNL     1      27.661   1.603  53.718  1.00  0.00     0.002 A 
HETATM   23  C18 UNL     1      28.107   0.372  53.339  1.00  0.00     0.000 A 
HETATM   24  C19 UNL     1      27.259  -0.432  52.625  1.00  0.00     0.002 A 
HETATM   25  C20 UNL     1      25.990  -0.004  52.303  1.00  0.00     0.029 A 
ENDBRANCH   4  20
TORSDOF 6
ENDMDL
