MODEL 1
REMARK VINA RESULT:      -6.6      0.000      0.000
REMARK  9 active torsions:
REMARK  status: ('A' for Active; 'I' for Inactive)
REMARK    1  A    between atoms: C2_2  and  C3_4 
REMARK    2  A    between atoms: C4_5  and  C5_6 
REMARK    3  A    between atoms: C5_6  and  N1_7 
REMARK       I    between atoms: N1_7  and  C6_8 
REMARK    4  A    between atoms: C6_8  and  C7_10 
REMARK    5  A    between atoms: C10_13  and  N2_14 
REMARK    6  A    between atoms: N2_14  and  C11_15 
REMARK    7  A    between atoms: N2_14  and  C13_18 
REMARK    8  A    between atoms: C11_15  and  C12_16 
REMARK    9  A    between atoms: C13_18  and  C14_19 
ROOT
HETATM    1  C7  UNL     1      25.465   3.389  50.597  1.00  0.00     0.032 A 
HETATM    2  C8  UNL     1      26.511   2.537  50.857  1.00  0.00     0.019 A 
HETATM    3  C9  UNL     1      26.261   1.501  51.723  1.00  0.00     0.030 A 
HETATM    4  C10 UNL     1      25.087   1.201  52.370  1.00  0.00     0.030 A 
HETATM    5  C15 UNL     1      24.100   2.099  52.053  1.00  0.00     0.030 A 
HETATM    6  C16 UNL     1      24.240   3.153  51.216  1.00  0.00     0.019 A 
ENDROOT
BRANCH   1   7
HETATM    7  C6  UNL     1      25.713   4.498  49.682  1.00  0.00     0.251 C 
HETATM    8  N1  UNL     1      26.936   5.183  49.548  1.00  0.00    -0.353 N 
HETATM    9  H9  UNL     1      27.748   4.896  50.135  1.00  0.00     0.163 HD
HETATM   10  O1  UNL     1      24.782   4.892  48.945  1.00  0.00    -0.268 OA
BRANCH   8  11
HETATM   11  C5  UNL     1      27.023   6.267  48.592  1.00  0.00     0.150 C 
BRANCH  11  12
HETATM   12  C4  UNL     1      28.430   6.359  48.130  1.00  0.00    -0.009 C 
HETATM   13  C3  UNL     1      29.348   5.382  48.183  1.00  0.00     0.007 C 
BRANCH  13  14
HETATM   14  C2  UNL     1      30.789   5.388  47.739  1.00  0.00     0.188 C 
HETATM   15  C1  UNL     1      31.632   5.770  48.931  1.00  0.00     0.049 C 
HETATM   16  F1  UNL     1      31.161   4.132  47.284  1.00  0.00    -0.246 F 
ENDBRANCH  13  14
ENDBRANCH  11  12
ENDBRANCH   8  11
ENDBRANCH   1   7
BRANCH   4  17
HETATM   17  N2  UNL     1      24.813   0.142  53.266  1.00  0.00    -0.379 N 
BRANCH  17  18
HETATM   18  C11 UNL     1      23.466  -0.453  53.268  1.00  0.00     0.138 C 
BRANCH  18  19
HETATM   19  C12 UNL     1      23.039  -0.971  54.600  1.00  0.00     0.134 C 
HETATM   20 CL1  UNL     1      21.328  -1.497  54.409  1.00  0.00    -0.129 Cl
ENDBRANCH  18  19
ENDBRANCH  17  18
BRANCH  17  21
HETATM   21  C13 UNL     1      25.473  -0.581  54.285  1.00  0.00     0.138 C 
BRANCH  21  22
HETATM   22  C14 UNL     1      26.504   0.089  55.134  1.00  0.00     0.134 C 
HETATM   23 CL2  UNL     1      28.147   0.004  54.509  1.00  0.00    -0.129 Cl
ENDBRANCH  21  22
ENDBRANCH  17  21
ENDBRANCH   4  17
TORSDOF 9
ENDMDL
MODEL 2
REMARK VINA RESULT:      -6.5      5.687      9.888
REMARK  9 active torsions:
REMARK  status: ('A' for Active; 'I' for Inactive)
REMARK    1  A    between atoms: C2_2  and  C3_4 
REMARK    2  A    between atoms: C4_5  and  C5_6 
REMARK    3  A    between atoms: C5_6  and  N1_7 
REMARK       I    between atoms: N1_7  and  C6_8 
REMARK    4  A    between atoms: C6_8  and  C7_10 
REMARK    5  A    between atoms: C10_13  and  N2_14 
REMARK    6  A    between atoms: N2_14  and  C11_15 
REMARK    7  A    between atoms: N2_14  and  C13_18 
REMARK    8  A    between atoms: C11_15  and  C12_16 
REMARK    9  A    between atoms: C13_18  and  C14_19 
ROOT
HETATM    1  C7  UNL     1      21.720   0.021  52.809  1.00  0.00     0.032 A 
HETATM    2  C8  UNL     1      22.478  -0.781  53.629  1.00  0.00     0.019 A 
HETATM    3  C9  UNL     1      23.814  -0.476  53.725  1.00  0.00     0.030 A 
HETATM    4  C10 UNL     1      24.499   0.538  53.102  1.00  0.00     0.030 A 
HETATM    5  C15 UNL     1      23.669   1.286  52.307  1.00  0.00     0.030 A 
HETATM    6  C16 UNL     1      22.343   1.072  52.141  1.00  0.00     0.019 A 
ENDROOT
BRANCH   1   7
HETATM    7  C6  UNL     1      20.300  -0.288  52.692  1.00  0.00     0.251 C 
HETATM    8  N1  UNL     1      19.530  -0.955  53.665  1.00  0.00    -0.353 N 
HETATM    9  H9  UNL     1      19.985  -1.262  54.551  1.00  0.00     0.163 HD
HETATM   10  O1  UNL     1      19.691   0.055  51.655  1.00  0.00    -0.268 OA
BRANCH   8  11
HETATM   11  C5  UNL     1      18.127  -1.190  53.399  1.00  0.00     0.150 C 
BRANCH  11  12
HETATM   12  C4  UNL     1      17.828  -2.605  53.729  1.00  0.00    -0.009 C 
HETATM   13  C3  UNL     1      16.759  -3.306  53.325  1.00  0.00     0.007 C 
BRANCH  13  14
HETATM   14  C2  UNL     1      16.379  -4.737  53.611  1.00  0.00     0.188 C 
HETATM   15  C1  UNL     1      15.188  -5.074  52.749  1.00  0.00     0.049 C 
HETATM   16  F1  UNL     1      17.432  -5.587  53.308  1.00  0.00    -0.246 F 
ENDBRANCH  13  14
ENDBRANCH  11  12
ENDBRANCH   8  11
ENDBRANCH   1   7
BRANCH   4  17
HETATM   17  N2  UNL     1      25.873   0.863  53.187  1.00  0.00    -0.379 N 
BRANCH  17  18
HETATM   18  C11 UNL     1      26.638   1.035  51.941  1.00  0.00     0.138 C 
BRANCH  18  19
HETATM   19  C12 UNL     1      27.073   2.440  51.690  1.00  0.00     0.134 C 
HETATM   20 CL1  UNL     1      26.386   2.900  50.091  1.00  0.00    -0.129 Cl
ENDBRANCH  18  19
ENDBRANCH  17  18
BRANCH  17  21
HETATM   21  C13 UNL     1      26.853   1.066  54.184  1.00  0.00     0.138 C 
BRANCH  21  22
HETATM   22  C14 UNL     1      27.833  -0.015  54.506  1.00  0.00     0.134 C 
HETATM   23 CL2  UNL     1      29.465   0.263  53.910  1.00  0.00    -0.129 Cl
ENDBRANCH  21  22
ENDBRANCH  17  21
ENDBRANCH   4  17
TORSDOF 9
ENDMDL
MODEL 3
REMARK VINA RESULT:      -6.4      0.875      2.730
REMARK  9 active torsions:
REMARK  status: ('A' for Active; 'I' for Inactive)
REMARK    1  A    between atoms: C2_2  and  C3_4 
REMARK    2  A    between atoms: C4_5  and  C5_6 
REMARK    3  A    between atoms: C5_6  and  N1_7 
REMARK       I    between atoms: N1_7  and  C6_8 
REMARK    4  A    between atoms: C6_8  and  C7_10 
REMARK    5  A    between atoms: C10_13  and  N2_14 
REMARK    6  A    between atoms: N2_14  and  C11_15 
REMARK    7  A    between atoms: N2_14  and  C13_18 
REMARK    8  A    between atoms: C11_15  and  C12_16 
REMARK    9  A    between atoms: C13_18  and  C14_19 
ROOT
HETATM    1  C7  UNL     1      25.627   3.719  50.401  1.00  0.00     0.032 A 
HETATM    2  C8  UNL     1      24.329   3.646  50.848  1.00  0.00     0.019 A 
HETATM    3  C9  UNL     1      24.024   2.602  51.686  1.00  0.00     0.030 A 
HETATM    4  C10 UNL     1      24.856   1.610  52.142  1.00  0.00     0.030 A 
HETATM    5  C15 UNL     1      26.127   1.760  51.649  1.00  0.00     0.030 A 
HETATM    6  C16 UNL     1      26.533   2.748  50.819  1.00  0.00     0.019 A 
ENDROOT
BRANCH   1   7
HETATM    7  C6  UNL     1      25.969   4.819  49.507  1.00  0.00     0.251 C 
HETATM    8  N1  UNL     1      27.248   5.398  49.383  1.00  0.00    -0.353 N 
HETATM    9  H9  UNL     1      28.032   5.029  49.962  1.00  0.00     0.163 HD
HETATM   10  O1  UNL     1      25.076   5.307  48.780  1.00  0.00    -0.268 OA
BRANCH   8  11
HETATM   11  C5  UNL     1      27.428   6.488  48.447  1.00  0.00     0.150 C 
BRANCH  11  12
HETATM   12  C4  UNL     1      28.778   6.358  47.847  1.00  0.00    -0.009 C 
HETATM   13  C3  UNL     1      29.710   5.452  48.177  1.00  0.00     0.007 C 
BRANCH  13  14
HETATM   14  C2  UNL     1      31.097   5.249  47.622  1.00  0.00     0.188 C 
HETATM   15  C1  UNL     1      32.077   5.488  48.744  1.00  0.00     0.049 C 
HETATM   16  F1  UNL     1      31.241   3.957  47.141  1.00  0.00    -0.246 F 
ENDBRANCH  13  14
ENDBRANCH  11  12
ENDBRANCH   8  11
ENDBRANCH   1   7
BRANCH   4  17
HETATM   17  N2  UNL     1      24.559   0.527  53.002  1.00  0.00    -0.379 N 
BRANCH  17  18
HETATM   18  C11 UNL     1      25.646  -0.386  53.393  1.00  0.00     0.138 C 
BRANCH  18  19
HETATM   19  C12 UNL     1      26.089  -0.223  54.808  1.00  0.00     0.134 C 
HETATM   20 CL1  UNL     1      27.833   0.219  54.740  1.00  0.00    -0.129 Cl
ENDBRANCH  18  19
ENDBRANCH  17  18
BRANCH  17  21
HETATM   21  C13 UNL     1      23.433  -0.036  53.645  1.00  0.00     0.138 C 
BRANCH  21  22
HETATM   22  C14 UNL     1      22.449  -0.846  52.866  1.00  0.00     0.134 C 
HETATM   23 CL2  UNL     1      21.510   0.064  51.688  1.00  0.00    -0.129 Cl
ENDBRANCH  21  22
ENDBRANCH  17  21
ENDBRANCH   4  17
TORSDOF 9
ENDMDL
MODEL 4
REMARK VINA RESULT:      -6.3      3.392      4.573
REMARK  9 active torsions:
REMARK  status: ('A' for Active; 'I' for Inactive)
REMARK    1  A    between atoms: C2_2  and  C3_4 
REMARK    2  A    between atoms: C4_5  and  C5_6 
REMARK    3  A    between atoms: C5_6  and  N1_7 
REMARK       I    between atoms: N1_7  and  C6_8 
REMARK    4  A    between atoms: C6_8  and  C7_10 
REMARK    5  A    between atoms: C10_13  and  N2_14 
REMARK    6  A    between atoms: N2_14  and  C11_15 
REMARK    7  A    between atoms: N2_14  and  C13_18 
REMARK    8  A    between atoms: C11_15  and  C12_16 
REMARK    9  A    between atoms: C13_18  and  C14_19 
ROOT
HETATM    1  C7  UNL     1      27.184   5.651  48.629  1.00  0.00     0.032 A 
HETATM    2  C8  UNL     1      27.134   4.350  49.071  1.00  0.00     0.019 A 
HETATM    3  C9  UNL     1      25.896   3.864  49.414  1.00  0.00     0.030 A 
HETATM    4  C10 UNL     1      24.688   4.514  49.372  1.00  0.00     0.030 A 
HETATM    5  C15 UNL     1      24.830   5.801  48.921  1.00  0.00     0.030 A 
HETATM    6  C16 UNL     1      26.000   6.379  48.559  1.00  0.00     0.019 A 
ENDROOT
BRANCH   1   7
HETATM    7  C6  UNL     1      28.490   6.186  48.264  1.00  0.00     0.251 C 
HETATM    8  N1  UNL     1      29.707   5.867  48.899  1.00  0.00    -0.353 N 
HETATM    9  H9  UNL     1      29.704   5.197  49.697  1.00  0.00     0.163 HD
HETATM   10  O1  UNL     1      28.567   6.995  47.312  1.00  0.00    -0.268 OA
BRANCH   8  11
HETATM   11  C5  UNL     1      30.924   6.485  48.417  1.00  0.00     0.150 C 
BRANCH  11  12
HETATM   12  C4  UNL     1      31.757   5.429  47.792  1.00  0.00    -0.009 C 
HETATM   13  C3  UNL     1      31.318   4.269  47.283  1.00  0.00     0.007 C 
BRANCH  13  14
HETATM   14  C2  UNL     1      32.088   3.147  46.633  1.00  0.00     0.188 C 
HETATM   15  C1  UNL     1      33.082   2.631  47.644  1.00  0.00     0.049 C 
HETATM   16  F1  UNL     1      31.230   2.126  46.255  1.00  0.00    -0.246 F 
ENDBRANCH  13  14
ENDBRANCH  11  12
ENDBRANCH   8  11
ENDBRANCH   1   7
BRANCH   4  17
HETATM   17  N2  UNL     1      23.406   4.030  49.723  1.00  0.00    -0.379 N 
BRANCH  17  18
HETATM   18  C11 UNL     1      23.094   2.612  49.482  1.00  0.00     0.138 C 
BRANCH  18  19
HETATM   19  C12 UNL     1      22.741   1.854  50.718  1.00  0.00     0.134 C 
HETATM   20 CL1  UNL     1      24.293   1.526  51.567  1.00  0.00    -0.129 Cl
ENDBRANCH  18  19
ENDBRANCH  17  18
BRANCH  17  21
HETATM   21  C13 UNL     1      22.196   4.528  50.256  1.00  0.00     0.138 C 
BRANCH  21  22
HETATM   22  C14 UNL     1      22.200   5.301  51.535  1.00  0.00     0.134 C 
HETATM   23 CL2  UNL     1      23.447   4.827  52.683  1.00  0.00    -0.129 Cl
ENDBRANCH  21  22
ENDBRANCH  17  21
ENDBRANCH   4  17
TORSDOF 9
ENDMDL
MODEL 5
REMARK VINA RESULT:      -6.2      4.903      8.756
REMARK  9 active torsions:
REMARK  status: ('A' for Active; 'I' for Inactive)
REMARK    1  A    between atoms: C2_2  and  C3_4 
REMARK    2  A    between atoms: C4_5  and  C5_6 
REMARK    3  A    between atoms: C5_6  and  N1_7 
REMARK       I    between atoms: N1_7  and  C6_8 
REMARK    4  A    between atoms: C6_8  and  C7_10 
REMARK    5  A    between atoms: C10_13  and  N2_14 
REMARK    6  A    between atoms: N2_14  and  C11_15 
REMARK    7  A    between atoms: N2_14  and  C13_18 
REMARK    8  A    between atoms: C11_15  and  C12_16 
REMARK    9  A    between atoms: C13_18  and  C14_19 
ROOT
HETATM    1  C7  UNL     1      26.804   5.019  49.056  1.00  0.00     0.032 A 
HETATM    2  C8  UNL     1      28.107   4.943  48.625  1.00  0.00     0.019 A 
HETATM    3  C9  UNL     1      28.605   6.043  47.973  1.00  0.00     0.030 A 
HETATM    4  C10 UNL     1      27.965   7.225  47.692  1.00  0.00     0.030 A 
HETATM    5  C15 UNL     1      26.675   7.215  48.156  1.00  0.00     0.030 A 
HETATM    6  C16 UNL     1      26.086   6.186  48.809  1.00  0.00     0.019 A 
ENDROOT
BRANCH   1   7
HETATM    7  C6  UNL     1      26.256   3.858  49.748  1.00  0.00     0.251 C 
HETATM    8  N1  UNL     1      26.794   3.277  50.914  1.00  0.00    -0.353 N 
HETATM    9  H9  UNL     1      27.651   3.690  51.338  1.00  0.00     0.163 HD
HETATM   10  O1  UNL     1      25.224   3.316  49.293  1.00  0.00    -0.268 OA
BRANCH   8  11
HETATM   11  C5  UNL     1      26.131   2.123  51.483  1.00  0.00     0.150 C 
BRANCH  11  12
HETATM   12  C4  UNL     1      27.063   1.491  52.449  1.00  0.00    -0.009 C 
HETATM   13  C3  UNL     1      27.907   2.130  53.272  1.00  0.00     0.007 C 
BRANCH  13  14
HETATM   14  C2  UNL     1      28.881   1.571  54.279  1.00  0.00     0.188 C 
HETATM   15  C1  UNL     1      29.597   0.415  53.628  1.00  0.00     0.049 C 
HETATM   16  F1  UNL     1      29.798   2.541  54.655  1.00  0.00    -0.246 F 
ENDBRANCH  13  14
ENDBRANCH  11  12
ENDBRANCH   8  11
ENDBRANCH   1   7
BRANCH   4  17
HETATM   17  N2  UNL     1      28.461   8.366  47.020  1.00  0.00    -0.379 N 
BRANCH  17  18
HETATM   18  C11 UNL     1      29.068   8.196  45.689  1.00  0.00     0.138 C 
BRANCH  18  19
HETATM   19  C12 UNL     1      30.462   8.718  45.591  1.00  0.00     0.134 C 
HETATM   20 CL1  UNL     1      31.509   7.514  46.424  1.00  0.00    -0.129 Cl
ENDBRANCH  18  19
ENDBRANCH  17  18
BRANCH  17  21
HETATM   21  C13 UNL     1      28.605   9.752  47.252  1.00  0.00     0.138 C 
BRANCH  21  22
HETATM   22  C14 UNL     1      28.888  10.259  48.629  1.00  0.00     0.134 C 
HETATM   23 CL2  UNL     1      30.273   9.516  49.420  1.00  0.00    -0.129 Cl
ENDBRANCH  21  22
ENDBRANCH  17  21
ENDBRANCH   4  17
TORSDOF 9
ENDMDL
MODEL 6
REMARK VINA RESULT:      -6.2      3.431      4.995
REMARK  9 active torsions:
REMARK  status: ('A' for Active; 'I' for Inactive)
REMARK    1  A    between atoms: C2_2  and  C3_4 
REMARK    2  A    between atoms: C4_5  and  C5_6 
REMARK    3  A    between atoms: C5_6  and  N1_7 
REMARK       I    between atoms: N1_7  and  C6_8 
REMARK    4  A    between atoms: C6_8  and  C7_10 
REMARK    5  A    between atoms: C10_13  and  N2_14 
REMARK    6  A    between atoms: N2_14  and  C11_15 
REMARK    7  A    between atoms: N2_14  and  C13_18 
REMARK    8  A    between atoms: C11_15  and  C12_16 
REMARK    9  A    between atoms: C13_18  and  C14_19 
ROOT
HETATM    1  C7  UNL     1      27.252   5.682  48.613  1.00  0.00     0.032 A 
HETATM    2  C8  UNL     1      26.139   6.484  48.528  1.00  0.00     0.019 A 
HETATM    3  C9  UNL     1      24.946   5.923  48.911  1.00  0.00     0.030 A 
HETATM    4  C10 UNL     1      24.716   4.651  49.375  1.00  0.00     0.030 A 
HETATM    5  C15 UNL     1      25.877   3.924  49.428  1.00  0.00     0.030 A 
HETATM    6  C16 UNL     1      27.102   4.377  49.074  1.00  0.00     0.019 A 
ENDROOT
BRANCH   1   7
HETATM    7  C6  UNL     1      28.529   6.259  48.208  1.00  0.00     0.251 C 
HETATM    8  N1  UNL     1      29.762   6.039  48.853  1.00  0.00    -0.353 N 
HETATM    9  H9  UNL     1      29.795   5.418  49.688  1.00  0.00     0.163 HD
HETATM   10  O1  UNL     1      28.561   7.012  47.209  1.00  0.00    -0.268 OA
BRANCH   8  11
HETATM   11  C5  UNL     1      30.945   6.687  48.327  1.00  0.00     0.150 C 
BRANCH  11  12
HETATM   12  C4  UNL     1      31.641   5.720  47.442  1.00  0.00    -0.009 C 
HETATM   13  C3  UNL     1      31.635   4.385  47.565  1.00  0.00     0.007 C 
BRANCH  13  14
HETATM   14  C2  UNL     1      32.309   3.335  46.717  1.00  0.00     0.188 C 
HETATM   15  C1  UNL     1      33.294   2.604  47.594  1.00  0.00     0.049 C 
HETATM   16  F1  UNL     1      31.372   2.443  46.218  1.00  0.00    -0.246 F 
ENDBRANCH  13  14
ENDBRANCH  11  12
ENDBRANCH   8  11
ENDBRANCH   1   7
BRANCH   4  17
HETATM   17  N2  UNL     1      23.495   4.057  49.770  1.00  0.00    -0.379 N 
BRANCH  17  18
HETATM   18  C11 UNL     1      23.491   3.152  50.931  1.00  0.00     0.138 C 
BRANCH  18  19
HETATM   19  C12 UNL     1      23.493   3.858  52.245  1.00  0.00     0.134 C 
HETATM   20 CL1  UNL     1      24.589   2.918  53.319  1.00  0.00    -0.129 Cl
ENDBRANCH  18  19
ENDBRANCH  17  18
BRANCH  17  21
HETATM   21  C13 UNL     1      22.147   4.025  49.347  1.00  0.00     0.138 C 
BRANCH  21  22
HETATM   22  C14 UNL     1      21.800   3.524  47.983  1.00  0.00     0.134 C 
HETATM   23 CL2  UNL     1      22.567   2.005  47.534  1.00  0.00    -0.129 Cl
ENDBRANCH  21  22
ENDBRANCH  17  21
ENDBRANCH   4  17
TORSDOF 9
ENDMDL
MODEL 7
REMARK VINA RESULT:      -6.1      4.241      8.708
REMARK  9 active torsions:
REMARK  status: ('A' for Active; 'I' for Inactive)
REMARK    1  A    between atoms: C2_2  and  C3_4 
REMARK    2  A    between atoms: C4_5  and  C5_6 
REMARK    3  A    between atoms: C5_6  and  N1_7 
REMARK       I    between atoms: N1_7  and  C6_8 
REMARK    4  A    between atoms: C6_8  and  C7_10 
REMARK    5  A    between atoms: C10_13  and  N2_14 
REMARK    6  A    between atoms: N2_14  and  C11_15 
REMARK    7  A    between atoms: N2_14  and  C13_18 
REMARK    8  A    between atoms: C11_15  and  C12_16 
REMARK    9  A    between atoms: C13_18  and  C14_19 
ROOT
HETATM    1  C7  UNL     1      26.561   5.345  49.025  1.00  0.00     0.032 A 
HETATM    2  C8  UNL     1      26.418   6.696  48.812  1.00  0.00     0.019 A 
HETATM    3  C9  UNL     1      27.498   7.352  48.276  1.00  0.00     0.030 A 
HETATM    4  C10 UNL     1      28.716   6.829  47.919  1.00  0.00     0.030 A 
HETATM    5  C15 UNL     1      28.771   5.481  48.164  1.00  0.00     0.030 A 
HETATM    6  C16 UNL     1      27.769   4.740  48.689  1.00  0.00     0.019 A 
ENDROOT
BRANCH   1   7
HETATM    7  C6  UNL     1      25.425   4.631  49.598  1.00  0.00     0.251 C 
HETATM    8  N1  UNL     1      25.371   4.104  50.904  1.00  0.00    -0.353 N 
HETATM    9  H9  UNL     1      26.192   4.221  51.534  1.00  0.00     0.163 HD
HETATM   10  O1  UNL     1      24.404   4.459  48.896  1.00  0.00    -0.268 OA
BRANCH   8  11
HETATM   11  C5  UNL     1      24.168   3.418  51.325  1.00  0.00     0.150 C 
BRANCH  11  12
HETATM   12  C4  UNL     1      24.572   2.177  52.030  1.00  0.00    -0.009 C 
HETATM   13  C3  UNL     1      25.713   1.497  51.849  1.00  0.00     0.007 C 
BRANCH  13  14
HETATM   14  C2  UNL     1      26.201   0.236  52.518  1.00  0.00     0.188 C 
HETATM   15  C1  UNL     1      25.035  -0.368  53.259  1.00  0.00     0.049 C 
HETATM   16  F1  UNL     1      26.673  -0.661  51.573  1.00  0.00    -0.246 F 
ENDBRANCH  13  14
ENDBRANCH  11  12
ENDBRANCH   8  11
ENDBRANCH   1   7
BRANCH   4  17
HETATM   17  N2  UNL     1      29.839   7.490  47.369  1.00  0.00    -0.379 N 
BRANCH  17  18
HETATM   18  C11 UNL     1      31.089   6.733  47.189  1.00  0.00     0.138 C 
BRANCH  18  19
HETATM   19  C12 UNL     1      32.206   7.198  48.062  1.00  0.00     0.134 C 
HETATM   20 CL1  UNL     1      31.835   6.595  49.716  1.00  0.00    -0.129 Cl
ENDBRANCH  18  19
ENDBRANCH  17  18
BRANCH  17  21
HETATM   21  C13 UNL     1      30.192   8.783  46.920  1.00  0.00     0.138 C 
BRANCH  21  22
HETATM   22  C14 UNL     1      29.828   9.985  47.729  1.00  0.00     0.134 C 
HETATM   23 CL2  UNL     1      30.134   9.836  49.456  1.00  0.00    -0.129 Cl
ENDBRANCH  21  22
ENDBRANCH  17  21
ENDBRANCH   4  17
TORSDOF 9
ENDMDL
MODEL 8
REMARK VINA RESULT:      -6.0      5.066      8.845
REMARK  9 active torsions:
REMARK  status: ('A' for Active; 'I' for Inactive)
REMARK    1  A    between atoms: C2_2  and  C3_4 
REMARK    2  A    between atoms: C4_5  and  C5_6 
REMARK    3  A    between atoms: C5_6  and  N1_7 
REMARK       I    between atoms: N1_7  and  C6_8 
REMARK    4  A    between atoms: C6_8  and  C7_10 
REMARK    5  A    between atoms: C10_13  and  N2_14 
REMARK    6  A    between atoms: N2_14  and  C11_15 
REMARK    7  A    between atoms: N2_14  and  C13_18 
REMARK    8  A    between atoms: C11_15  and  C12_16 
REMARK    9  A    between atoms: C13_18  and  C14_19 
ROOT
HETATM    1  C7  UNL     1      26.777   4.965  49.223  1.00  0.00     0.032 A 
HETATM    2  C8  UNL     1      26.012   6.107  49.245  1.00  0.00     0.019 A 
HETATM    3  C9  UNL     1      26.534   7.209  48.614  1.00  0.00     0.030 A 
HETATM    4  C10 UNL     1      27.734   7.322  47.956  1.00  0.00     0.030 A 
HETATM    5  C15 UNL     1      28.429   6.140  47.983  1.00  0.00     0.030 A 
HETATM    6  C16 UNL     1      28.009   4.998  48.576  1.00  0.00     0.019 A 
ENDROOT
BRANCH   1   7
HETATM    7  C6  UNL     1      26.241   3.784  49.891  1.00  0.00     0.251 C 
HETATM    8  N1  UNL     1      26.738   3.231  51.088  1.00  0.00    -0.353 N 
HETATM    9  H9  UNL     1      27.552   3.682  51.557  1.00  0.00     0.163 HD
HETATM   10  O1  UNL     1      25.261   3.196  49.383  1.00  0.00    -0.268 OA
BRANCH   8  11
HETATM   11  C5  UNL     1      26.095   2.052  51.627  1.00  0.00     0.150 C 
BRANCH  11  12
HETATM   12  C4  UNL     1      26.801   1.675  52.876  1.00  0.00    -0.009 C 
HETATM   13  C3  UNL     1      28.031   1.146  52.963  1.00  0.00     0.007 C 
BRANCH  13  14
HETATM   14  C2  UNL     1      28.820   0.737  54.182  1.00  0.00     0.188 C 
HETATM   15  C1  UNL     1      29.668  -0.450  53.798  1.00  0.00     0.049 C 
HETATM   16  F1  UNL     1      29.633   1.777  54.604  1.00  0.00    -0.246 F 
ENDBRANCH  13  14
ENDBRANCH  11  12
ENDBRANCH   8  11
ENDBRANCH   1   7
BRANCH   4  17
HETATM   17  N2  UNL     1      28.288   8.448  47.305  1.00  0.00    -0.379 N 
BRANCH  17  18
HETATM   18  C11 UNL     1      28.480   9.688  48.075  1.00  0.00     0.138 C 
BRANCH  18  19
HETATM   19  C12 UNL     1      29.290   9.507  49.315  1.00  0.00     0.134 C 
HETATM   20 CL1  UNL     1      30.811  10.437  49.061  1.00  0.00    -0.129 Cl
ENDBRANCH  18  19
ENDBRANCH  17  18
BRANCH  17  21
HETATM   21  C13 UNL     1      28.731   8.813  46.014  1.00  0.00     0.138 C 
BRANCH  21  22
HETATM   22  C14 UNL     1      30.187   9.018  45.748  1.00  0.00     0.134 C 
HETATM   23 CL2  UNL     1      31.227   7.698  46.269  1.00  0.00    -0.129 Cl
ENDBRANCH  21  22
ENDBRANCH  17  21
ENDBRANCH   4  17
TORSDOF 9
ENDMDL
MODEL 9
REMARK VINA RESULT:      -5.9      4.417      8.504
REMARK  9 active torsions:
REMARK  status: ('A' for Active; 'I' for Inactive)
REMARK    1  A    between atoms: C2_2  and  C3_4 
REMARK    2  A    between atoms: C4_5  and  C5_6 
REMARK    3  A    between atoms: C5_6  and  N1_7 
REMARK       I    between atoms: N1_7  and  C6_8 
REMARK    4  A    between atoms: C6_8  and  C7_10 
REMARK    5  A    between atoms: C10_13  and  N2_14 
REMARK    6  A    between atoms: N2_14  and  C11_15 
REMARK    7  A    between atoms: N2_14  and  C13_18 
REMARK    8  A    between atoms: C11_15  and  C12_16 
REMARK    9  A    between atoms: C13_18  and  C14_19 
ROOT
HETATM    1  C7  UNL     1      25.952   4.884  49.353  1.00  0.00     0.032 A 
HETATM    2  C8  UNL     1      27.170   4.323  49.048  1.00  0.00     0.019 A 
HETATM    3  C9  UNL     1      28.117   5.161  48.515  1.00  0.00     0.030 A 
HETATM    4  C10 UNL     1      28.007   6.503  48.244  1.00  0.00     0.030 A 
HETATM    5  C15 UNL     1      26.765   6.978  48.578  1.00  0.00     0.030 A 
HETATM    6  C16 UNL     1      25.761   6.241  49.107  1.00  0.00     0.019 A 
ENDROOT
BRANCH   1   7
HETATM    7  C6  UNL     1      24.931   4.008  49.917  1.00  0.00     0.251 C 
HETATM    8  N1  UNL     1      24.794   3.695  51.284  1.00  0.00    -0.353 N 
HETATM    9  H9  UNL     1      25.460   4.108  51.970  1.00  0.00     0.163 HD
HETATM   10  O1  UNL     1      24.096   3.481  49.149  1.00  0.00    -0.268 OA
BRANCH   8  11
HETATM   11  C5  UNL     1      23.725   2.806  51.687  1.00  0.00     0.150 C 
BRANCH  11  12
HETATM   12  C4  UNL     1      24.279   1.839  52.667  1.00  0.00    -0.009 C 
HETATM   13  C3  UNL     1      25.137   0.844  52.402  1.00  0.00     0.007 C 
BRANCH  13  14
HETATM   14  C2  UNL     1      25.747  -0.177  53.329  1.00  0.00     0.188 C 
HETATM   15  C1  UNL     1      26.666  -1.047  52.509  1.00  0.00     0.049 C 
HETATM   16  F1  UNL     1      26.468   0.451  54.333  1.00  0.00    -0.246 F 
ENDBRANCH  13  14
ENDBRANCH  11  12
ENDBRANCH   8  11
ENDBRANCH   1   7
BRANCH   4  17
HETATM   17  N2  UNL     1      28.971   7.379  47.693  1.00  0.00    -0.379 N 
BRANCH  17  18
HETATM   18  C11 UNL     1      28.838   8.824  47.943  1.00  0.00     0.138 C 
BRANCH  18  19
HETATM   19  C12 UNL     1      29.386   9.260  49.261  1.00  0.00     0.134 C 
HETATM   20 CL1  UNL     1      30.841  10.254  48.896  1.00  0.00    -0.129 Cl
ENDBRANCH  18  19
ENDBRANCH  17  18
BRANCH  17  21
HETATM   21  C13 UNL     1      30.118   7.310  46.870  1.00  0.00     0.138 C 
BRANCH  21  22
HETATM   22  C14 UNL     1      31.311   6.526  47.309  1.00  0.00     0.134 C 
HETATM   23 CL2  UNL     1      31.521   6.410  49.052  1.00  0.00    -0.129 Cl
ENDBRANCH  21  22
ENDBRANCH  17  21
ENDBRANCH   4  17
TORSDOF 9
ENDMDL
