MODEL 1
REMARK VINA RESULT:     -10.4      0.000      0.000
REMARK  1 active torsions:
REMARK  status: ('A' for Active; 'I' for Inactive)
REMARK    1  A    between atoms: C18_23  and  C19_24 
ROOT
HETATM    1  O1  UNL     1      24.749   1.420  52.670  1.00  0.00    -0.297 OA
HETATM    2  C1  UNL     1      25.048   0.335  53.097  1.00  0.00     0.138 C 
HETATM    3  C2  UNL     1      24.065  -0.747  53.325  1.00  0.00     0.105 C 
HETATM    4  C3  UNL     1      22.668  -0.374  53.133  1.00  0.00    -0.019 C 
HETATM    5  C4  UNL     1      21.613   0.335  52.888  1.00  0.00    -0.004 C 
HETATM    6  C5  UNL     1      21.138   1.634  52.555  1.00  0.00    -0.001 C 
HETATM    7  C6  UNL     1      20.640   2.794  52.249  1.00  0.00    -0.002 C 
HETATM    8  C7  UNL     1      20.893   4.186  51.959  1.00  0.00     0.000 C 
HETATM    9  C8  UNL     1      21.735   5.168  51.815  1.00  0.00     0.132 C 
HETATM   10  N1  UNL     1      22.849   6.027  51.727  1.00  0.00    -0.364 N 
HETATM   11  C9  UNL     1      23.819   6.221  50.721  1.00  0.00     0.138 A 
HETATM   12  N2  UNL     1      23.649   7.402  50.100  1.00  0.00    -0.224 NA
HETATM   13  C10 UNL     1      24.418   7.863  49.099  1.00  0.00     0.235 A 
HETATM   14  N3  UNL     1      25.456   7.100  48.656  1.00  0.00    -0.241 NA
HETATM   15  C11 UNL     1      25.644   5.904  49.271  1.00  0.00     0.072 A 
HETATM   16  C12 UNL     1      26.692   5.183  48.782  1.00  0.00     0.035 A 
HETATM   17  C13 UNL     1      27.011   3.935  49.300  1.00  0.00     0.031 A 
HETATM   18  C14 UNL     1      26.251   3.420  50.328  1.00  0.00     0.029 A 
HETATM   19  C15 UNL     1      25.204   4.196  50.783  1.00  0.00     0.046 A 
HETATM   20  C16 UNL     1      24.858   5.431  50.296  1.00  0.00     0.041 A 
HETATM   21  N4  UNL     1      26.307   2.173  51.060  1.00  0.00    -0.389 N 
HETATM   22  C17 UNL     1      26.597   2.162  52.477  1.00  0.00     0.134 C 
HETATM   23  C18 UNL     1      26.419   0.842  53.135  1.00  0.00     0.108 C 
HETATM   24  H9  UNL     1      23.055   6.680  52.540  1.00  0.00     0.162 HD
HETATM   25  H14 UNL     1      26.088   1.627  50.203  1.00  0.00     0.159 HD
ENDROOT
BRANCH  23  26
HETATM   26  C19 UNL     1      27.402  -0.223  52.788  1.00  0.00     0.256 C 
HETATM   27  C20 UNL     1      28.828   0.063  53.101  1.00  0.00     0.204 C 
HETATM   28  O2  UNL     1      29.234  -0.867  54.065  1.00  0.00    -0.387 OA
HETATM   29  C21 UNL     1      29.368  -2.111  53.410  1.00  0.00     0.197 C 
HETATM   30  C22 UNL     1      28.017  -2.477  52.869  1.00  0.00     0.296 C 
HETATM   31  N5  UNL     1      26.993  -1.537  53.294  1.00  0.00     0.093 N 
HETATM   32  H25 UNL     1      26.873  -1.549  54.308  1.00  0.00     0.316 HD
ENDBRANCH  23  26
TORSDOF 1
ENDMDL
MODEL 2
REMARK VINA RESULT:     -10.3      3.243      6.922
REMARK  1 active torsions:
REMARK  status: ('A' for Active; 'I' for Inactive)
REMARK    1  A    between atoms: C18_23  and  C19_24 
ROOT
HETATM    1  O1  UNL     1      24.618   2.067  52.243  1.00  0.00    -0.297 OA
HETATM    2  C1  UNL     1      25.650   2.605  51.935  1.00  0.00     0.138 C 
HETATM    3  C2  UNL     1      26.983   2.065  52.283  1.00  0.00     0.105 C 
HETATM    4  C3  UNL     1      26.976   0.898  53.158  1.00  0.00    -0.019 C 
HETATM    5  C4  UNL     1      26.550  -0.062  53.914  1.00  0.00    -0.004 C 
HETATM    6  C5  UNL     1      25.394  -0.672  54.477  1.00  0.00    -0.001 C 
HETATM    7  C6  UNL     1      24.380  -1.277  55.019  1.00  0.00    -0.002 C 
HETATM    8  C7  UNL     1      22.948  -1.325  55.198  1.00  0.00     0.000 C 
HETATM    9  C8  UNL     1      21.769  -0.829  54.956  1.00  0.00     0.132 C 
HETATM   10  N1  UNL     1      20.643  -0.093  54.536  1.00  0.00    -0.364 N 
HETATM   11  C9  UNL     1      19.927  -0.066  53.321  1.00  0.00     0.138 A 
HETATM   12  N2  UNL     1      18.720  -0.643  53.452  1.00  0.00    -0.224 NA
HETATM   13  C10 UNL     1      17.814  -0.768  52.466  1.00  0.00     0.235 A 
HETATM   14  N3  UNL     1      18.112  -0.284  51.228  1.00  0.00    -0.241 NA
HETATM   15  C11 UNL     1      19.328   0.303  51.076  1.00  0.00     0.072 A 
HETATM   16  C12 UNL     1      19.572   0.762  49.816  1.00  0.00     0.035 A 
HETATM   17  C13 UNL     1      20.773   1.380  49.496  1.00  0.00     0.031 A 
HETATM   18  C14 UNL     1      21.733   1.532  50.473  1.00  0.00     0.029 A 
HETATM   19  C15 UNL     1      21.428   1.049  51.730  1.00  0.00     0.046 A 
HETATM   20  C16 UNL     1      20.255   0.432  52.084  1.00  0.00     0.041 A 
HETATM   21  N4  UNL     1      23.063   2.102  50.464  1.00  0.00    -0.389 N 
HETATM   22  C17 UNL     1      23.368   3.275  51.252  1.00  0.00     0.134 C 
HETATM   23  C18 UNL     1      24.811   3.625  51.307  1.00  0.00     0.108 C 
HETATM   24  H9  UNL     1      20.199   0.592  55.217  1.00  0.00     0.162 HD
HETATM   25  H14 UNL     1      23.400   1.375  49.801  1.00  0.00     0.159 HD
ENDROOT
BRANCH  23  26
HETATM   26  C19 UNL     1      25.429   4.142  50.054  1.00  0.00     0.256 C 
HETATM   27  C20 UNL     1      24.869   5.409  49.511  1.00  0.00     0.204 C 
HETATM   28  O2  UNL     1      25.888   6.367  49.567  1.00  0.00    -0.387 OA
HETATM   29  C21 UNL     1      26.812   6.048  48.548  1.00  0.00     0.197 C 
HETATM   30  C22 UNL     1      27.361   4.685  48.856  1.00  0.00     0.296 C 
HETATM   31  N5  UNL     1      26.892   4.193  50.140  1.00  0.00     0.093 N 
HETATM   32  H25 UNL     1      27.221   4.779  50.908  1.00  0.00     0.316 HD
ENDBRANCH  23  26
TORSDOF 1
ENDMDL
MODEL 3
REMARK VINA RESULT:     -10.0      2.945      5.880
REMARK  1 active torsions:
REMARK  status: ('A' for Active; 'I' for Inactive)
REMARK    1  A    between atoms: C18_23  and  C19_24 
ROOT
HETATM    1  O1  UNL     1      25.037   1.849  51.033  1.00  0.00    -0.297 OA
HETATM    2  C1  UNL     1      26.208   2.126  51.059  1.00  0.00     0.138 C 
HETATM    3  C2  UNL     1      26.746   3.426  50.601  1.00  0.00     0.105 C 
HETATM    4  C3  UNL     1      25.778   4.318  49.974  1.00  0.00    -0.019 C 
HETATM    5  C4  UNL     1      24.666   4.773  49.492  1.00  0.00    -0.004 C 
HETATM    6  C5  UNL     1      23.295   4.475  49.253  1.00  0.00    -0.001 C 
HETATM    7  C6  UNL     1      22.036   4.267  49.009  1.00  0.00    -0.002 C 
HETATM    8  C7  UNL     1      20.919   3.355  49.082  1.00  0.00     0.000 C 
HETATM    9  C8  UNL     1      20.439   2.193  49.420  1.00  0.00     0.132 C 
HETATM   10  N1  UNL     1      20.195   0.881  49.875  1.00  0.00    -0.364 N 
HETATM   11  C9  UNL     1      19.993   0.348  51.166  1.00  0.00     0.138 A 
HETATM   12  N2  UNL     1      18.712  -0.021  51.347  1.00  0.00    -0.224 NA
HETATM   13  C10 UNL     1      18.219  -0.560  52.475  1.00  0.00     0.235 A 
HETATM   14  N3  UNL     1      19.052  -0.760  53.533  1.00  0.00    -0.241 NA
HETATM   15  C11 UNL     1      20.350  -0.393  53.370  1.00  0.00     0.072 A 
HETATM   16  C12 UNL     1      21.133  -0.610  54.464  1.00  0.00     0.035 A 
HETATM   17  C13 UNL     1      22.482  -0.281  54.458  1.00  0.00     0.031 A 
HETATM   18  C14 UNL     1      23.035   0.274  53.325  1.00  0.00     0.029 A 
HETATM   19  C15 UNL     1      22.192   0.469  52.248  1.00  0.00     0.046 A 
HETATM   20  C16 UNL     1      20.856   0.158  52.216  1.00  0.00     0.041 A 
HETATM   21  N4  UNL     1      24.369   0.734  53.006  1.00  0.00    -0.389 N 
HETATM   22  C17 UNL     1      25.146   0.087  51.973  1.00  0.00     0.134 C 
HETATM   23  C18 UNL     1      26.406   0.788  51.615  1.00  0.00     0.108 C 
HETATM   24  H9  UNL     1      20.141   0.096  49.162  1.00  0.00     0.162 HD
HETATM   25  H14 UNL     1      24.314   1.481  53.728  1.00  0.00     0.159 HD
ENDROOT
BRANCH  23  26
HETATM   26  C19 UNL     1      27.497   0.776  52.629  1.00  0.00     0.256 C 
HETATM   27  C20 UNL     1      27.319   1.668  53.807  1.00  0.00     0.204 C 
HETATM   28  O2  UNL     1      27.226   0.847  54.937  1.00  0.00    -0.387 OA
HETATM   29  C21 UNL     1      28.523   0.351  55.195  1.00  0.00     0.197 C 
HETATM   30  C22 UNL     1      28.939  -0.453  53.998  1.00  0.00     0.296 C 
HETATM   31  N5  UNL     1      27.858  -0.586  53.036  1.00  0.00     0.093 N 
HETATM   32  H25 UNL     1      27.070  -1.102  53.428  1.00  0.00     0.316 HD
ENDBRANCH  23  26
TORSDOF 1
ENDMDL
MODEL 4
REMARK VINA RESULT:      -9.9      2.189      2.704
REMARK  1 active torsions:
REMARK  status: ('A' for Active; 'I' for Inactive)
REMARK    1  A    between atoms: C18_23  and  C19_24 
ROOT
HETATM    1  O1  UNL     1      23.557   1.410  53.142  1.00  0.00    -0.297 OA
HETATM    2  C1  UNL     1      24.278   0.689  53.782  1.00  0.00     0.138 C 
HETATM    3  C2  UNL     1      23.905  -0.686  54.180  1.00  0.00     0.105 C 
HETATM    4  C3  UNL     1      22.534  -1.077  53.870  1.00  0.00    -0.019 C 
HETATM    5  C4  UNL     1      21.310  -1.020  53.456  1.00  0.00    -0.004 C 
HETATM    6  C5  UNL     1      20.322  -0.187  52.860  1.00  0.00    -0.001 C 
HETATM    7  C6  UNL     1      19.377   0.520  52.318  1.00  0.00    -0.002 C 
HETATM    8  C7  UNL     1      18.974   1.795  51.772  1.00  0.00     0.000 C 
HETATM    9  C8  UNL     1      19.261   3.029  51.471  1.00  0.00     0.132 C 
HETATM   10  N1  UNL     1      19.837   4.297  51.257  1.00  0.00    -0.364 N 
HETATM   11  C9  UNL     1      20.717   4.784  50.267  1.00  0.00     0.138 A 
HETATM   12  N2  UNL     1      20.088   5.621  49.423  1.00  0.00    -0.224 NA
HETATM   13  C10 UNL     1      20.665   6.240  48.379  1.00  0.00     0.235 A 
HETATM   14  N3  UNL     1      21.986   6.024  48.129  1.00  0.00    -0.241 NA
HETATM   15  C11 UNL     1      22.640   5.182  48.971  1.00  0.00     0.072 A 
HETATM   16  C12 UNL     1      23.956   5.000  48.668  1.00  0.00     0.035 A 
HETATM   17  C13 UNL     1      24.760   4.162  49.429  1.00  0.00     0.031 A 
HETATM   18  C14 UNL     1      24.213   3.505  50.510  1.00  0.00     0.029 A 
HETATM   19  C15 UNL     1      22.876   3.730  50.769  1.00  0.00     0.046 A 
HETATM   20  C16 UNL     1      22.050   4.548  50.040  1.00  0.00     0.041 A 
HETATM   21  N4  UNL     1      24.760   2.572  51.472  1.00  0.00    -0.389 N 
HETATM   22  C17 UNL     1      24.841   2.921  52.873  1.00  0.00     0.134 C 
HETATM   23  C18 UNL     1      25.230   1.800  53.768  1.00  0.00     0.108 C 
HETATM   24  H9  UNL     1      19.607   5.083  51.935  1.00  0.00     0.162 HD
HETATM   25  H14 UNL     1      24.935   1.865  50.730  1.00  0.00     0.159 HD
ENDROOT
BRANCH  23  26
HETATM   26  C19 UNL     1      26.634   1.312  53.669  1.00  0.00     0.256 C 
HETATM   27  C20 UNL     1      27.645   2.292  53.189  1.00  0.00     0.204 C 
HETATM   28  O2  UNL     1      28.544   2.506  54.240  1.00  0.00    -0.387 OA
HETATM   29  C21 UNL     1      29.347   1.349  54.340  1.00  0.00     0.197 C 
HETATM   30  C22 UNL     1      28.436   0.200  54.659  1.00  0.00     0.296 C 
HETATM   31  N5  UNL     1      27.073   0.644  54.899  1.00  0.00     0.093 N 
HETATM   32  H25 UNL     1      27.016   1.249  55.719  1.00  0.00     0.316 HD
ENDBRANCH  23  26
TORSDOF 1
ENDMDL
MODEL 5
REMARK VINA RESULT:      -9.8      3.541      4.589
REMARK  1 active torsions:
REMARK  status: ('A' for Active; 'I' for Inactive)
REMARK    1  A    between atoms: C18_23  and  C19_24 
ROOT
HETATM    1  O1  UNL     1      22.305   0.923  52.748  1.00  0.00    -0.297 OA
HETATM    2  C1  UNL     1      23.193   0.590  53.489  1.00  0.00     0.138 C 
HETATM    3  C2  UNL     1      23.120  -0.605  54.358  1.00  0.00     0.105 C 
HETATM    4  C3  UNL     1      21.832  -1.291  54.371  1.00  0.00    -0.019 C 
HETATM    5  C4  UNL     1      20.594  -1.575  54.121  1.00  0.00    -0.004 C 
HETATM    6  C5  UNL     1      19.427  -1.165  53.418  1.00  0.00    -0.001 C 
HETATM    7  C6  UNL     1      18.329  -0.846  52.801  1.00  0.00    -0.002 C 
HETATM    8  C7  UNL     1      17.653   0.083  51.927  1.00  0.00     0.000 C 
HETATM    9  C8  UNL     1      17.676   1.167  51.206  1.00  0.00     0.132 C 
HETATM   10  N1  UNL     1      17.981   2.359  50.519  1.00  0.00    -0.364 N 
HETATM   11  C9  UNL     1      18.682   2.610  49.320  1.00  0.00     0.138 A 
HETATM   12  N2  UNL     1      17.848   2.994  48.338  1.00  0.00    -0.224 NA
HETATM   13  C10 UNL     1      18.224   3.301  47.085  1.00  0.00     0.235 A 
HETATM   14  N3  UNL     1      19.543   3.225  46.752  1.00  0.00    -0.241 NA
HETATM   15  C11 UNL     1      20.401   2.837  47.731  1.00  0.00     0.072 A 
HETATM   16  C12 UNL     1      21.704   2.774  47.337  1.00  0.00     0.035 A 
HETATM   17  C13 UNL     1      22.703   2.387  48.220  1.00  0.00     0.031 A 
HETATM   18  C14 UNL     1      22.368   2.063  49.516  1.00  0.00     0.029 A 
HETATM   19  C15 UNL     1      21.032   2.148  49.857  1.00  0.00     0.046 A 
HETATM   20  C16 UNL     1      20.017   2.525  49.014  1.00  0.00     0.041 A 
HETATM   21  N4  UNL     1      23.147   1.617  50.651  1.00  0.00    -0.389 N 
HETATM   22  C17 UNL     1      23.253   2.433  51.839  1.00  0.00     0.134 C 
HETATM   23  C18 UNL     1      23.910   1.764  52.993  1.00  0.00     0.108 C 
HETATM   24  H9  UNL     1      17.650   3.282  50.928  1.00  0.00     0.162 HD
HETATM   25  H14 UNL     1      23.405   0.735  50.163  1.00  0.00     0.159 HD
ENDROOT
BRANCH  23  26
HETATM   26  C19 UNL     1      25.371   1.502  52.879  1.00  0.00     0.256 C 
HETATM   27  C20 UNL     1      26.230   2.039  53.970  1.00  0.00     0.204 C 
HETATM   28  O2  UNL     1      26.804   0.941  54.621  1.00  0.00    -0.387 OA
HETATM   29  C21 UNL     1      27.795   0.421  53.759  1.00  0.00     0.197 C 
HETATM   30  C22 UNL     1      27.104  -0.022  52.502  1.00  0.00     0.296 C 
HETATM   31  N5  UNL     1      25.659   0.088  52.614  1.00  0.00     0.093 N 
HETATM   32  H25 UNL     1      25.292  -0.531  53.338  1.00  0.00     0.316 HD
ENDBRANCH  23  26
TORSDOF 1
ENDMDL
MODEL 6
REMARK VINA RESULT:      -9.6      3.728      7.884
REMARK  1 active torsions:
REMARK  status: ('A' for Active; 'I' for Inactive)
REMARK    1  A    between atoms: C18_23  and  C19_24 
ROOT
HETATM    1  O1  UNL     1      22.872   2.721  52.704  1.00  0.00    -0.297 OA
HETATM    2  C1  UNL     1      23.779   3.510  52.634  1.00  0.00     0.138 C 
HETATM    3  C2  UNL     1      25.194   3.141  52.855  1.00  0.00     0.105 C 
HETATM    4  C3  UNL     1      25.422   1.773  53.309  1.00  0.00    -0.019 C 
HETATM    5  C4  UNL     1      25.196   0.559  53.697  1.00  0.00    -0.004 C 
HETATM    6  C5  UNL     1      24.185  -0.401  53.979  1.00  0.00    -0.001 C 
HETATM    7  C6  UNL     1      23.312  -1.324  54.250  1.00  0.00    -0.002 C 
HETATM    8  C7  UNL     1      21.917  -1.690  54.335  1.00  0.00     0.000 C 
HETATM    9  C8  UNL     1      20.662  -1.368  54.208  1.00  0.00     0.132 C 
HETATM   10  N1  UNL     1      19.411  -0.755  53.993  1.00  0.00    -0.364 N 
HETATM   11  C9  UNL     1      18.686  -0.469  52.817  1.00  0.00     0.138 A 
HETATM   12  N2  UNL     1      17.612  -1.270  52.699  1.00  0.00    -0.224 NA
HETATM   13  C10 UNL     1      16.732  -1.233  51.683  1.00  0.00     0.235 A 
HETATM   14  N3  UNL     1      16.915  -0.329  50.681  1.00  0.00    -0.241 NA
HETATM   15  C11 UNL     1      17.995   0.489  50.782  1.00  0.00     0.072 A 
HETATM   16  C12 UNL     1      18.130   1.366  49.748  1.00  0.00     0.035 A 
HETATM   17  C13 UNL     1      19.187   2.264  49.702  1.00  0.00     0.031 A 
HETATM   18  C14 UNL     1      20.115   2.266  50.720  1.00  0.00     0.029 A 
HETATM   19  C15 UNL     1      19.925   1.355  51.741  1.00  0.00     0.046 A 
HETATM   20  C16 UNL     1      18.895   0.453  51.822  1.00  0.00     0.041 A 
HETATM   21  N4  UNL     1      21.313   3.042  50.958  1.00  0.00    -0.389 N 
HETATM   22  C17 UNL     1      21.401   3.932  52.093  1.00  0.00     0.134 C 
HETATM   23  C18 UNL     1      22.753   4.505  52.327  1.00  0.00     0.108 C 
HETATM   24  H9  UNL     1      18.855  -0.421  54.835  1.00  0.00     0.162 HD
HETATM   25  H14 UNL     1      21.772   2.644  50.114  1.00  0.00     0.159 HD
ENDROOT
BRANCH  23  26
HETATM   26  C19 UNL     1      23.243   5.503  51.336  1.00  0.00     0.256 C 
HETATM   27  C20 UNL     1      22.209   6.180  50.506  1.00  0.00     0.204 C 
HETATM   28  O2  UNL     1      22.245   7.541  50.831  1.00  0.00    -0.387 OA
HETATM   29  C21 UNL     1      23.417   8.074  50.250  1.00  0.00     0.197 C 
HETATM   30  C22 UNL     1      24.584   7.360  50.867  1.00  0.00     0.296 C 
HETATM   31  N5  UNL     1      24.167   6.470  51.937  1.00  0.00     0.093 N 
HETATM   32  H25 UNL     1      23.747   6.987  52.712  1.00  0.00     0.316 HD
ENDBRANCH  23  26
TORSDOF 1
ENDMDL
MODEL 7
REMARK VINA RESULT:      -9.3      2.900      8.473
REMARK  1 active torsions:
REMARK  status: ('A' for Active; 'I' for Inactive)
REMARK    1  A    between atoms: C18_23  and  C19_24 
ROOT
HETATM    1  O1  UNL     1      23.434   4.348  51.104  1.00  0.00    -0.297 OA
HETATM    2  C1  UNL     1      23.458   5.383  50.489  1.00  0.00     0.138 C 
HETATM    3  C2  UNL     1      24.521   5.728  49.520  1.00  0.00     0.105 C 
HETATM    4  C3  UNL     1      25.635   4.789  49.453  1.00  0.00    -0.019 C 
HETATM    5  C4  UNL     1      26.395   3.771  49.704  1.00  0.00    -0.004 C 
HETATM    6  C5  UNL     1      26.552   2.609  50.510  1.00  0.00    -0.001 C 
HETATM    7  C6  UNL     1      26.753   1.535  51.211  1.00  0.00    -0.002 C 
HETATM    8  C7  UNL     1      26.281   0.662  52.260  1.00  0.00     0.000 C 
HETATM    9  C8  UNL     1      25.388   0.373  53.163  1.00  0.00     0.132 C 
HETATM   10  N1  UNL     1      24.292   0.308  54.047  1.00  0.00    -0.364 N 
HETATM   11  C9  UNL     1      22.955  -0.105  53.869  1.00  0.00     0.138 A 
HETATM   12  N2  UNL     1      22.719  -1.277  54.486  1.00  0.00    -0.224 NA
HETATM   13  C10 UNL     1      21.540  -1.920  54.492  1.00  0.00     0.235 A 
HETATM   14  N3  UNL     1      20.482  -1.371  53.833  1.00  0.00    -0.241 NA
HETATM   15  C11 UNL     1      20.700  -0.187  53.203  1.00  0.00     0.072 A 
HETATM   16  C12 UNL     1      19.609   0.309  52.555  1.00  0.00     0.035 A 
HETATM   17  C13 UNL     1      19.671   1.508  51.858  1.00  0.00     0.031 A 
HETATM   18  C14 UNL     1      20.859   2.205  51.822  1.00  0.00     0.029 A 
HETATM   19  C15 UNL     1      21.929   1.653  52.498  1.00  0.00     0.046 A 
HETATM   20  C16 UNL     1      21.907   0.472  53.197  1.00  0.00     0.041 A 
HETATM   21  N4  UNL     1      21.253   3.444  51.187  1.00  0.00    -0.389 N 
HETATM   22  C17 UNL     1      21.651   4.585  51.980  1.00  0.00     0.134 C 
HETATM   23  C18 UNL     1      22.222   5.713  51.198  1.00  0.00     0.108 C 
HETATM   24  H9  UNL     1      24.431   0.614  55.055  1.00  0.00     0.162 HD
HETATM   25  H14 UNL     1      21.096   3.041  50.240  1.00  0.00     0.159 HD
ENDROOT
BRANCH  23  26
HETATM   26  C19 UNL     1      21.283   6.475  50.328  1.00  0.00     0.256 C 
HETATM   27  C20 UNL     1      21.503   7.944  50.240  1.00  0.00     0.204 C 
HETATM   28  O2  UNL     1      21.843   8.232  48.914  1.00  0.00    -0.387 OA
HETATM   29  C21 UNL     1      20.662   8.112  48.149  1.00  0.00     0.197 C 
HETATM   30  C22 UNL     1      20.195   6.691  48.270  1.00  0.00     0.296 C 
HETATM   31  N5  UNL     1      21.148   5.871  48.998  1.00  0.00     0.093 N 
HETATM   32  H25 UNL     1      22.039   5.804  48.504  1.00  0.00     0.316 HD
ENDBRANCH  23  26
TORSDOF 1
ENDMDL
MODEL 8
REMARK VINA RESULT:      -9.2      2.832      6.365
REMARK  1 active torsions:
REMARK  status: ('A' for Active; 'I' for Inactive)
REMARK    1  A    between atoms: C18_23  and  C19_24 
ROOT
HETATM    1  O1  UNL     1      22.089   1.001  51.165  1.00  0.00    -0.297 OA
HETATM    2  C1  UNL     1      21.142   0.342  51.507  1.00  0.00     0.138 C 
HETATM    3  C2  UNL     1      21.097  -0.416  52.777  1.00  0.00     0.105 C 
HETATM    4  C3  UNL     1      22.341  -0.436  53.539  1.00  0.00    -0.019 C 
HETATM    5  C4  UNL     1      23.574  -0.229  53.874  1.00  0.00    -0.004 C 
HETATM    6  C5  UNL     1      24.802   0.369  53.475  1.00  0.00    -0.001 C 
HETATM    7  C6  UNL     1      25.950   0.894  53.171  1.00  0.00    -0.002 C 
HETATM    8  C7  UNL     1      26.728   1.643  52.212  1.00  0.00     0.000 C 
HETATM    9  C8  UNL     1      26.808   2.262  51.069  1.00  0.00     0.132 C 
HETATM   10  N1  UNL     1      26.611   2.853  49.805  1.00  0.00    -0.364 N 
HETATM   11  C9  UNL     1      25.997   4.059  49.407  1.00  0.00     0.138 A 
HETATM   12  N2  UNL     1      26.908   4.956  48.990  1.00  0.00    -0.224 NA
HETATM   13  C10 UNL     1      26.625   6.195  48.552  1.00  0.00     0.235 A 
HETATM   14  N3  UNL     1      25.326   6.604  48.517  1.00  0.00    -0.241 NA
HETATM   15  C11 UNL     1      24.391   5.712  48.936  1.00  0.00     0.072 A 
HETATM   16  C12 UNL     1      23.112   6.180  48.886  1.00  0.00     0.035 A 
HETATM   17  C13 UNL     1      22.042   5.391  49.287  1.00  0.00     0.031 A 
HETATM   18  C14 UNL     1      22.282   4.113  49.744  1.00  0.00     0.029 A 
HETATM   19  C15 UNL     1      23.598   3.695  49.770  1.00  0.00     0.046 A 
HETATM   20  C16 UNL     1      24.680   4.444  49.384  1.00  0.00     0.041 A 
HETATM   21  N4  UNL     1      21.413   3.068  50.240  1.00  0.00    -0.389 N 
HETATM   22  C17 UNL     1      21.282   1.818  49.526  1.00  0.00     0.134 C 
HETATM   23  C18 UNL     1      20.523   0.767  50.253  1.00  0.00     0.108 C 
HETATM   24  H9  UNL     1      26.969   2.344  48.943  1.00  0.00     0.162 HD
HETATM   25  H14 UNL     1      21.136   3.647  51.058  1.00  0.00     0.159 HD
ENDROOT
BRANCH  23  26
HETATM   26  C19 UNL     1      19.058   0.983  50.415  1.00  0.00     0.256 C 
HETATM   27  C20 UNL     1      18.635   1.851  51.546  1.00  0.00     0.204 C 
HETATM   28  O2  UNL     1      18.021   2.980  50.993  1.00  0.00    -0.387 OA
HETATM   29  C21 UNL     1      16.759   2.570  50.510  1.00  0.00     0.197 C 
HETATM   30  C22 UNL     1      17.001   1.536  49.450  1.00  0.00     0.296 C 
HETATM   31  N5  UNL     1      18.417   1.386  49.158  1.00  0.00     0.093 N 
HETATM   32  H25 UNL     1      18.813   2.244  48.772  1.00  0.00     0.316 HD
ENDBRANCH  23  26
TORSDOF 1
ENDMDL
MODEL 9
REMARK VINA RESULT:      -9.2      3.725      7.487
REMARK  1 active torsions:
REMARK  status: ('A' for Active; 'I' for Inactive)
REMARK    1  A    between atoms: C18_23  and  C19_24 
ROOT
HETATM    1  O1  UNL     1      20.622   1.000  50.336  1.00  0.00    -0.297 OA
HETATM    2  C1  UNL     1      19.828   1.368  49.508  1.00  0.00     0.138 C 
HETATM    3  C2  UNL     1      18.363   1.285  49.695  1.00  0.00     0.105 C 
HETATM    4  C3  UNL     1      17.924   0.590  50.900  1.00  0.00    -0.019 C 
HETATM    5  C4  UNL     1      17.958  -0.075  52.010  1.00  0.00    -0.004 C 
HETATM    6  C5  UNL     1      18.808  -0.700  52.965  1.00  0.00    -0.001 C 
HETATM    7  C6  UNL     1      19.527  -1.287  53.873  1.00  0.00    -0.002 C 
HETATM    8  C7  UNL     1      20.848  -1.651  54.328  1.00  0.00     0.000 C 
HETATM    9  C8  UNL     1      22.138  -1.645  54.152  1.00  0.00     0.132 C 
HETATM   10  N1  UNL     1      23.469  -1.491  53.714  1.00  0.00    -0.364 N 
HETATM   11  C9  UNL     1      24.363  -0.401  53.764  1.00  0.00     0.138 A 
HETATM   12  N2  UNL     1      25.343  -0.614  54.659  1.00  0.00    -0.224 NA
HETATM   13  C10 UNL     1      26.341   0.246  54.929  1.00  0.00     0.235 A 
HETATM   14  N3  UNL     1      26.390   1.433  54.262  1.00  0.00    -0.241 NA
HETATM   15  C11 UNL     1      25.408   1.667  53.353  1.00  0.00     0.072 A 
HETATM   16  C12 UNL     1      25.506   2.872  52.724  1.00  0.00     0.035 A 
HETATM   17  C13 UNL     1      24.573   3.263  51.772  1.00  0.00     0.031 A 
HETATM   18  C14 UNL     1      23.533   2.415  51.462  1.00  0.00     0.029 A 
HETATM   19  C15 UNL     1      23.487   1.208  52.131  1.00  0.00     0.046 A 
HETATM   20  C16 UNL     1      24.387   0.787  53.076  1.00  0.00     0.041 A 
HETATM   21  N4  UNL     1      22.413   2.527  50.552  1.00  0.00    -0.389 N 
HETATM   22  C17 UNL     1      22.288   1.631  49.424  1.00  0.00     0.134 C 
HETATM   23  C18 UNL     1      20.993   1.726  48.699  1.00  0.00     0.108 C 
HETATM   24  H9  UNL     1      23.950  -2.315  53.247  1.00  0.00     0.162 HD
HETATM   25  H14 UNL     1      22.019   3.325  51.090  1.00  0.00     0.159 HD
ENDROOT
BRANCH  23  26
HETATM   26  C19 UNL     1      20.749   2.967  47.913  1.00  0.00     0.256 C 
HETATM   27  C20 UNL     1      21.930   3.569  47.237  1.00  0.00     0.204 C 
HETATM   28  O2  UNL     1      21.698   3.499  45.859  1.00  0.00    -0.387 OA
HETATM   29  C21 UNL     1      20.717   4.469  45.555  1.00  0.00     0.197 C 
HETATM   30  C22 UNL     1      19.475   4.100  46.313  1.00  0.00     0.296 C 
HETATM   31  N5  UNL     1      19.617   2.822  46.991  1.00  0.00     0.093 N 
HETATM   32  H25 UNL     1      19.746   2.058  46.326  1.00  0.00     0.316 HD
ENDBRANCH  23  26
TORSDOF 1
ENDMDL
