MODEL 1
REMARK VINA RESULT:      -7.5      0.000      0.000
REMARK  5 active torsions:
REMARK  status: ('A' for Active; 'I' for Inactive)
REMARK    1  A    between atoms: C5_5  and  N1_6 
REMARK    2  A    between atoms: N1_6  and  C6_7 
REMARK    3  A    between atoms: C8_10  and  N2_11 
REMARK    4  A    between atoms: N2_11  and  C9_12 
REMARK    5  A    between atoms: C12_16  and  C13_17 
ROOT
HETATM    1  N2  UNL     1      26.716   3.252  49.385  1.00  0.00    -0.188 N 
HETATM    2  H7  UNL     1      26.923   2.451  48.720  1.00  0.00     0.184 HD
ENDROOT
BRANCH   1   3
HETATM    3  C8  UNL     1      26.106   2.859  50.596  1.00  0.00     0.057 A 
HETATM    4  C2  UNL     1      24.728   2.752  50.715  1.00  0.00    -0.035 A 
HETATM    5  C1  UNL     1      23.875   3.063  49.524  1.00  0.00     0.050 C 
HETATM    6  C3  UNL     1      24.095   2.374  51.871  1.00  0.00     0.011 A 
HETATM    7  C4  UNL     1      24.817   2.072  53.005  1.00  0.00     0.032 A 
HETATM    8  C5  UNL     1      26.192   2.160  52.946  1.00  0.00     0.063 A 
HETATM    9  C7  UNL     1      26.760   2.543  51.764  1.00  0.00     0.062 A 
BRANCH   8  10
HETATM   10  N1  UNL     1      26.947   1.852  54.110  1.00  0.00    -0.206 NA
BRANCH  10  11
HETATM   11  C6  UNL     1      27.242   0.637  54.366  1.00  0.00     0.337 C 
HETATM   12  O1  UNL     1      27.775  -0.438  54.730  1.00  0.00    -0.260 OA
ENDBRANCH  10  11
ENDBRANCH   8  10
ENDBRANCH   1   3
BRANCH   1  13
HETATM   13  C9  UNL     1      27.073   4.550  48.966  1.00  0.00     0.727 A 
HETATM   14  N3  UNL     1      26.266   5.612  48.869  1.00  0.00    -0.075 NA
HETATM   15  C10 UNL     1      26.628   6.837  48.467  1.00  0.00     0.138 A 
HETATM   16  C11 UNL     1      27.949   7.025  48.123  1.00  0.00     0.048 A 
HETATM   17  C12 UNL     1      28.827   5.965  48.203  1.00  0.00     0.067 A 
HETATM   18  N5  UNL     1      28.348   4.789  48.618  1.00  0.00    -0.066 NA
BRANCH  17  19
HETATM   19  C13 UNL     1      30.235   6.153  47.840  1.00  0.00     0.103 A 
HETATM   20  C14 UNL     1      31.044   6.783  48.891  1.00  0.00     0.009 A 
HETATM   21  C15 UNL     1      32.054   5.969  49.229  1.00  0.00     0.113 A 
HETATM   22  N4  UNL     1      31.986   4.766  48.443  1.00  0.00    -0.276 NA
HETATM   23  C16 UNL     1      30.957   4.849  47.644  1.00  0.00     0.104 A 
ENDBRANCH  17  19
ENDBRANCH   1  13
TORSDOF 5
ENDMDL
MODEL 2
REMARK VINA RESULT:      -7.5      2.354      6.422
REMARK  5 active torsions:
REMARK  status: ('A' for Active; 'I' for Inactive)
REMARK    1  A    between atoms: C5_5  and  N1_6 
REMARK    2  A    between atoms: N1_6  and  C6_7 
REMARK    3  A    between atoms: C8_10  and  N2_11 
REMARK    4  A    between atoms: N2_11  and  C9_12 
REMARK    5  A    between atoms: C12_16  and  C13_17 
ROOT
HETATM    1  N2  UNL     1      25.856   3.645  49.413  1.00  0.00    -0.188 N 
HETATM    2  H7  UNL     1      25.318   3.135  48.653  1.00  0.00     0.184 HD
ENDROOT
BRANCH   1   3
HETATM    3  C8  UNL     1      26.541   4.797  48.969  1.00  0.00     0.057 A 
HETATM    4  C2  UNL     1      25.898   6.018  48.831  1.00  0.00    -0.035 A 
HETATM    5  C1  UNL     1      24.441   6.107  49.164  1.00  0.00     0.050 C 
HETATM    6  C3  UNL     1      26.525   7.159  48.403  1.00  0.00     0.011 A 
HETATM    7  C4  UNL     1      27.865   7.151  48.080  1.00  0.00     0.032 A 
HETATM    8  C5  UNL     1      28.556   5.964  48.198  1.00  0.00     0.063 A 
HETATM    9  C7  UNL     1      27.872   4.863  48.629  1.00  0.00     0.062 A 
BRANCH   8  10
HETATM   10  N1  UNL     1      29.939   5.943  47.867  1.00  0.00    -0.206 NA
BRANCH  10  11
HETATM   11  C6  UNL     1      30.806   5.818  48.793  1.00  0.00     0.337 C 
HETATM   12  O1  UNL     1      31.520   5.443  49.754  1.00  0.00    -0.260 OA
ENDBRANCH  10  11
ENDBRANCH   8  10
ENDBRANCH   1   3
BRANCH   1  13
HETATM   13  C9  UNL     1      25.802   3.106  50.715  1.00  0.00     0.727 A 
HETATM   14  N3  UNL     1      24.818   3.262  51.607  1.00  0.00    -0.075 NA
HETATM   15  C10 UNL     1      24.789   2.739  52.840  1.00  0.00     0.138 A 
HETATM   16  C11 UNL     1      25.866   1.972  53.227  1.00  0.00     0.048 A 
HETATM   17  C12 UNL     1      26.910   1.777  52.348  1.00  0.00     0.067 A 
HETATM   18  N5  UNL     1      26.825   2.350  51.144  1.00  0.00    -0.066 NA
BRANCH  17  19
HETATM   19  C13 UNL     1      28.061   0.962  52.748  1.00  0.00     0.103 A 
HETATM   20  C14 UNL     1      28.772   1.471  53.928  1.00  0.00     0.009 A 
HETATM   21  C15 UNL     1      28.772   0.538  54.889  1.00  0.00     0.113 A 
HETATM   22  N4  UNL     1      28.075  -0.632  54.424  1.00  0.00    -0.276 NA
HETATM   23  C16 UNL     1      27.661  -0.413  53.206  1.00  0.00     0.104 A 
ENDBRANCH  17  19
ENDBRANCH   1  13
TORSDOF 5
ENDMDL
MODEL 3
REMARK VINA RESULT:      -7.4      3.038      4.884
REMARK  5 active torsions:
REMARK  status: ('A' for Active; 'I' for Inactive)
REMARK    1  A    between atoms: C5_5  and  N1_6 
REMARK    2  A    between atoms: N1_6  and  C6_7 
REMARK    3  A    between atoms: C8_10  and  N2_11 
REMARK    4  A    between atoms: N2_11  and  C9_12 
REMARK    5  A    between atoms: C12_16  and  C13_17 
ROOT
HETATM    1  N2  UNL     1      22.243   1.489  52.119  1.00  0.00    -0.188 N 
HETATM    2  H7  UNL     1      21.430   1.162  51.520  1.00  0.00     0.184 HD
ENDROOT
BRANCH   1   3
HETATM    3  C8  UNL     1      22.634   0.573  53.119  1.00  0.00     0.057 A 
HETATM    4  C2  UNL     1      21.700  -0.105  53.890  1.00  0.00    -0.035 A 
HETATM    5  C1  UNL     1      20.245   0.149  53.648  1.00  0.00     0.050 C 
HETATM    6  C3  UNL     1      22.037  -1.002  54.870  1.00  0.00     0.011 A 
HETATM    7  C4  UNL     1      23.357  -1.285  55.147  1.00  0.00     0.032 A 
HETATM    8  C5  UNL     1      24.329  -0.641  54.412  1.00  0.00     0.063 A 
HETATM    9  C7  UNL     1      23.928   0.242  53.449  1.00  0.00     0.062 A 
BRANCH   8  10
HETATM   10  N1  UNL     1      25.695  -0.924  54.689  1.00  0.00    -0.206 NA
BRANCH  10  11
HETATM   11  C6  UNL     1      26.547   0.026  54.687  1.00  0.00     0.337 C 
HETATM   12  O1  UNL     1      27.291   0.998  54.960  1.00  0.00    -0.260 OA
ENDBRANCH  10  11
ENDBRANCH   8  10
ENDBRANCH   1   3
BRANCH   1  13
HETATM   13  C9  UNL     1      22.790   2.756  51.830  1.00  0.00     0.727 A 
HETATM   14  N3  UNL     1      22.585   3.892  52.506  1.00  0.00    -0.075 NA
HETATM   15  C10 UNL     1      23.116   5.085  52.213  1.00  0.00     0.138 A 
HETATM   16  C11 UNL     1      23.950   5.154  51.118  1.00  0.00     0.048 A 
HETATM   17  C12 UNL     1      24.198   4.014  50.383  1.00  0.00     0.067 A 
HETATM   18  N5  UNL     1      23.609   2.881  50.774  1.00  0.00    -0.066 NA
BRANCH  17  19
HETATM   19  C13 UNL     1      25.083   4.075  49.216  1.00  0.00     0.103 A 
HETATM   20  C14 UNL     1      25.483   5.437  48.839  1.00  0.00     0.009 A 
HETATM   21  C15 UNL     1      26.819   5.539  48.876  1.00  0.00     0.113 A 
HETATM   22  N4  UNL     1      27.387   4.277  49.272  1.00  0.00    -0.276 NA
HETATM   23  C16 UNL     1      26.416   3.428  49.471  1.00  0.00     0.104 A 
ENDBRANCH  17  19
ENDBRANCH   1  13
TORSDOF 5
ENDMDL
MODEL 4
REMARK VINA RESULT:      -7.4      2.462      4.151
REMARK  5 active torsions:
REMARK  status: ('A' for Active; 'I' for Inactive)
REMARK    1  A    between atoms: C5_5  and  N1_6 
REMARK    2  A    between atoms: N1_6  and  C6_7 
REMARK    3  A    between atoms: C8_10  and  N2_11 
REMARK    4  A    between atoms: N2_11  and  C9_12 
REMARK    5  A    between atoms: C12_16  and  C13_17 
ROOT
HETATM    1  N2  UNL     1      24.332   2.887  53.392  1.00  0.00    -0.188 N 
HETATM    2  H7  UNL     1      23.907   3.026  54.354  1.00  0.00     0.184 HD
ENDROOT
BRANCH   1   3
HETATM    3  C8  UNL     1      25.193   1.772  53.292  1.00  0.00     0.057 A 
HETATM    4  C2  UNL     1      24.707   0.500  53.030  1.00  0.00    -0.035 A 
HETATM    5  C1  UNL     1      23.232   0.313  52.851  1.00  0.00     0.050 C 
HETATM    6  C3  UNL     1      25.508  -0.609  52.925  1.00  0.00     0.011 A 
HETATM    7  C4  UNL     1      26.874  -0.511  53.078  1.00  0.00     0.032 A 
HETATM    8  C5  UNL     1      27.413   0.730  53.339  1.00  0.00     0.063 A 
HETATM    9  C7  UNL     1      26.561   1.795  53.432  1.00  0.00     0.062 A 
BRANCH   8  10
HETATM   10  N1  UNL     1      28.822   0.843  53.499  1.00  0.00    -0.206 NA
BRANCH  10  11
HETATM   11  C6  UNL     1      29.292   1.564  54.440  1.00  0.00     0.337 C 
HETATM   12  O1  UNL     1      29.880   2.419  55.145  1.00  0.00    -0.260 OA
ENDBRANCH  10  11
ENDBRANCH   8  10
ENDBRANCH   1   3
BRANCH   1  13
HETATM   13  C9  UNL     1      23.979   3.814  52.389  1.00  0.00     0.727 A 
HETATM   14  N3  UNL     1      22.965   4.685  52.424  1.00  0.00    -0.075 NA
HETATM   15  C10 UNL     1      22.649   5.557  51.458  1.00  0.00     0.138 A 
HETATM   16  C11 UNL     1      23.435   5.561  50.327  1.00  0.00     0.048 A 
HETATM   17  C12 UNL     1      24.495   4.683  50.236  1.00  0.00     0.067 A 
HETATM   18  N5  UNL     1      24.712   3.860  51.265  1.00  0.00    -0.066 NA
BRANCH  17  19
HETATM   19  C13 UNL     1      25.339   4.678  49.037  1.00  0.00     0.103 A 
HETATM   20  C14 UNL     1      25.887   5.995  48.686  1.00  0.00     0.009 A 
HETATM   21  C15 UNL     1      27.225   5.935  48.673  1.00  0.00     0.113 A 
HETATM   22  N4  UNL     1      27.650   4.602  49.009  1.00  0.00    -0.276 NA
HETATM   23  C16 UNL     1      26.592   3.868  49.220  1.00  0.00     0.104 A 
ENDBRANCH  17  19
ENDBRANCH   1  13
TORSDOF 5
ENDMDL
MODEL 5
REMARK VINA RESULT:      -7.2      4.079      8.141
REMARK  5 active torsions:
REMARK  status: ('A' for Active; 'I' for Inactive)
REMARK    1  A    between atoms: C5_5  and  N1_6 
REMARK    2  A    between atoms: N1_6  and  C6_7 
REMARK    3  A    between atoms: C8_10  and  N2_11 
REMARK    4  A    between atoms: N2_11  and  C9_12 
REMARK    5  A    between atoms: C12_16  and  C13_17 
ROOT
HETATM    1  N2  UNL     1      25.856   2.851  52.244  1.00  0.00    -0.188 N 
HETATM    2  H7  UNL     1      26.791   3.352  52.268  1.00  0.00     0.184 HD
ENDROOT
BRANCH   1   3
HETATM    3  C8  UNL     1      24.899   3.447  51.394  1.00  0.00     0.057 A 
HETATM    4  C2  UNL     1      25.172   3.701  50.058  1.00  0.00    -0.035 A 
HETATM    5  C1  UNL     1      26.517   3.332  49.513  1.00  0.00     0.050 C 
HETATM    6  C3  UNL     1      24.272   4.277  49.199  1.00  0.00     0.011 A 
HETATM    7  C4  UNL     1      23.015   4.642  49.631  1.00  0.00     0.032 A 
HETATM    8  C5  UNL     1      22.688   4.412  50.950  1.00  0.00     0.063 A 
HETATM    9  C7  UNL     1      23.630   3.835  51.755  1.00  0.00     0.062 A 
BRANCH   8  10
HETATM   10  N1  UNL     1      21.394   4.784  51.409  1.00  0.00    -0.206 NA
BRANCH  10  11
HETATM   11  C6  UNL     1      20.629   3.901  51.919  1.00  0.00     0.337 C 
HETATM   12  O1  UNL     1      19.903   3.197  52.661  1.00  0.00    -0.260 OA
ENDBRANCH  10  11
ENDBRANCH   8  10
ENDBRANCH   1   3
BRANCH   1  13
HETATM   13  C9  UNL     1      25.720   1.698  53.044  1.00  0.00     0.727 A 
HETATM   14  N3  UNL     1      26.603   1.229  53.932  1.00  0.00    -0.075 NA
HETATM   15  C10 UNL     1      26.452   0.130  54.682  1.00  0.00     0.138 A 
HETATM   16  C11 UNL     1      25.284  -0.584  54.528  1.00  0.00     0.048 A 
HETATM   17  C12 UNL     1      24.337  -0.148  53.627  1.00  0.00     0.067 A 
HETATM   18  N5  UNL     1      24.601   0.964  52.935  1.00  0.00    -0.066 NA
BRANCH  17  19
HETATM   19  C13 UNL     1      23.090  -0.899  53.455  1.00  0.00     0.103 A 
HETATM   20  C14 UNL     1      22.343  -1.112  54.702  1.00  0.00     0.009 A 
HETATM   21  C15 UNL     1      21.119  -0.579  54.588  1.00  0.00     0.113 A 
HETATM   22  N4  UNL     1      20.971   0.013  53.285  1.00  0.00    -0.276 NA
HETATM   23  C16 UNL     1      22.082  -0.157  52.622  1.00  0.00     0.104 A 
ENDBRANCH  17  19
ENDBRANCH   1  13
TORSDOF 5
ENDMDL
MODEL 6
REMARK VINA RESULT:      -7.2      2.623      7.323
REMARK  5 active torsions:
REMARK  status: ('A' for Active; 'I' for Inactive)
REMARK    1  A    between atoms: C5_5  and  N1_6 
REMARK    2  A    between atoms: N1_6  and  C6_7 
REMARK    3  A    between atoms: C8_10  and  N2_11 
REMARK    4  A    between atoms: N2_11  and  C9_12 
REMARK    5  A    between atoms: C12_16  and  C13_17 
ROOT
HETATM    1  N2  UNL     1      26.299   3.236  49.466  1.00  0.00    -0.188 N 
HETATM    2  H7  UNL     1      25.956   2.586  48.701  1.00  0.00     0.184 HD
ENDROOT
BRANCH   1   3
HETATM    3  C8  UNL     1      26.725   4.502  49.007  1.00  0.00     0.057 A 
HETATM    4  C2  UNL     1      25.839   5.559  48.865  1.00  0.00    -0.035 A 
HETATM    5  C1  UNL     1      24.398   5.344  49.209  1.00  0.00     0.050 C 
HETATM    6  C3  UNL     1      26.210   6.803  48.423  1.00  0.00     0.011 A 
HETATM    7  C4  UNL     1      27.520   7.073  48.089  1.00  0.00     0.032 A 
HETATM    8  C5  UNL     1      28.445   6.059  48.212  1.00  0.00     0.063 A 
HETATM    9  C7  UNL     1      28.011   4.842  48.657  1.00  0.00     0.062 A 
BRANCH   8  10
HETATM   10  N1  UNL     1      29.800   6.325  47.869  1.00  0.00    -0.206 NA
BRANCH  10  11
HETATM   11  C6  UNL     1      30.732   5.954  48.656  1.00  0.00     0.337 C 
HETATM   12  O1  UNL     1      31.506   5.335  49.426  1.00  0.00    -0.260 OA
ENDBRANCH  10  11
ENDBRANCH   8  10
ENDBRANCH   1   3
BRANCH   1  13
HETATM   13  C9  UNL     1      26.278   2.746  50.788  1.00  0.00     0.727 A 
HETATM   14  N3  UNL     1      27.326   2.598  51.606  1.00  0.00    -0.075 NA
HETATM   15  C10 UNL     1      27.282   2.129  52.860  1.00  0.00     0.138 A 
HETATM   16  C11 UNL     1      26.048   1.767  53.356  1.00  0.00     0.048 A 
HETATM   17  C12 UNL     1      24.933   1.898  52.557  1.00  0.00     0.067 A 
HETATM   18  N5  UNL     1      25.103   2.378  51.322  1.00  0.00    -0.066 NA
BRANCH  17  19
HETATM   19  C13 UNL     1      23.615   1.516  53.074  1.00  0.00     0.103 A 
HETATM   20  C14 UNL     1      22.532   1.619  52.087  1.00  0.00     0.009 A 
HETATM   21  C15 UNL     1      21.950   0.422  51.933  1.00  0.00     0.113 A 
HETATM   22  N4  UNL     1      22.592  -0.539  52.790  1.00  0.00    -0.276 NA
HETATM   23  C16 UNL     1      23.544   0.062  53.450  1.00  0.00     0.104 A 
ENDBRANCH  17  19
ENDBRANCH   1  13
TORSDOF 5
ENDMDL
MODEL 7
REMARK VINA RESULT:      -7.1      4.239      6.512
REMARK  5 active torsions:
REMARK  status: ('A' for Active; 'I' for Inactive)
REMARK    1  A    between atoms: C5_5  and  N1_6 
REMARK    2  A    between atoms: N1_6  and  C6_7 
REMARK    3  A    between atoms: C8_10  and  N2_11 
REMARK    4  A    between atoms: N2_11  and  C9_12 
REMARK    5  A    between atoms: C12_16  and  C13_17 
ROOT
HETATM    1  N2  UNL     1      22.873   2.729  52.218  1.00  0.00    -0.188 N 
HETATM    2  H7  UNL     1      22.638   3.710  52.545  1.00  0.00     0.184 HD
ENDROOT
BRANCH   1   3
HETATM    3  C8  UNL     1      21.754   1.877  52.084  1.00  0.00     0.057 A 
HETATM    4  C2  UNL     1      20.857   2.015  51.035  1.00  0.00    -0.035 A 
HETATM    5  C1  UNL     1      21.089   3.095  50.025  1.00  0.00     0.050 C 
HETATM    6  C3  UNL     1      19.759   1.210  50.869  1.00  0.00     0.011 A 
HETATM    7  C4  UNL     1      19.484   0.196  51.760  1.00  0.00     0.032 A 
HETATM    8  C5  UNL     1      20.343   0.012  52.823  1.00  0.00     0.063 A 
HETATM    9  C7  UNL     1      21.418   0.848  52.932  1.00  0.00     0.062 A 
BRANCH   8  10
HETATM   10  N1  UNL     1      20.069  -1.032  53.750  1.00  0.00    -0.206 NA
BRANCH  10  11
HETATM   11  C6  UNL     1      21.033  -1.588  54.373  1.00  0.00     0.337 C 
HETATM   12  O1  UNL     1      21.905  -1.949  55.199  1.00  0.00    -0.260 OA
ENDBRANCH  10  11
ENDBRANCH   8  10
ENDBRANCH   1   3
BRANCH   1  13
HETATM   13  C9  UNL     1      24.230   2.436  51.973  1.00  0.00     0.727 A 
HETATM   14  N3  UNL     1      25.046   3.069  51.123  1.00  0.00    -0.075 NA
HETATM   15  C10 UNL     1      26.334   2.772  50.907  1.00  0.00     0.138 A 
HETATM   16  C11 UNL     1      26.870   1.723  51.622  1.00  0.00     0.048 A 
HETATM   17  C12 UNL     1      26.075   1.034  52.511  1.00  0.00     0.067 A 
HETATM   18  N5  UNL     1      24.803   1.423  52.641  1.00  0.00    -0.066 NA
BRANCH  17  19
HETATM   19  C13 UNL     1      26.634  -0.085  53.277  1.00  0.00     0.103 A 
HETATM   20  C14 UNL     1      28.081  -0.264  53.104  1.00  0.00     0.009 A 
HETATM   21  C15 UNL     1      28.691  -0.169  54.293  1.00  0.00     0.113 A 
HETATM   22  N4  UNL     1      27.711   0.075  55.318  1.00  0.00    -0.276 NA
HETATM   23  C16 UNL     1      26.531   0.127  54.762  1.00  0.00     0.104 A 
ENDBRANCH  17  19
ENDBRANCH   1  13
TORSDOF 5
ENDMDL
MODEL 8
REMARK VINA RESULT:      -7.1      2.823      6.535
REMARK  5 active torsions:
REMARK  status: ('A' for Active; 'I' for Inactive)
REMARK    1  A    between atoms: C5_5  and  N1_6 
REMARK    2  A    between atoms: N1_6  and  C6_7 
REMARK    3  A    between atoms: C8_10  and  N2_11 
REMARK    4  A    between atoms: N2_11  and  C9_12 
REMARK    5  A    between atoms: C12_16  and  C13_17 
ROOT
HETATM    1  N2  UNL     1      24.013   2.513  50.471  1.00  0.00    -0.188 N 
HETATM    2  H7  UNL     1      23.140   2.314  49.903  1.00  0.00     0.184 HD
ENDROOT
BRANCH   1   3
HETATM    3  C8  UNL     1      24.744   3.641  50.038  1.00  0.00     0.057 A 
HETATM    4  C2  UNL     1      24.208   4.920  50.093  1.00  0.00    -0.035 A 
HETATM    5  C1  UNL     1      22.820   5.098  50.626  1.00  0.00     0.050 C 
HETATM    6  C3  UNL     1      24.882   6.041  49.684  1.00  0.00     0.011 A 
HETATM    7  C4  UNL     1      26.163   5.952  49.182  1.00  0.00     0.032 A 
HETATM    8  C5  UNL     1      26.747   4.706  49.105  1.00  0.00     0.063 A 
HETATM    9  C7  UNL     1      26.022   3.628  49.529  1.00  0.00     0.062 A 
BRANCH   8  10
HETATM   10  N1  UNL     1      28.068   4.601  48.589  1.00  0.00    -0.206 NA
BRANCH  10  11
HETATM   11  C6  UNL     1      28.722   5.661  48.314  1.00  0.00     0.337 C 
HETATM   12  O1  UNL     1      29.509   6.638  48.290  1.00  0.00    -0.260 OA
ENDBRANCH  10  11
ENDBRANCH   8  10
ENDBRANCH   1   3
BRANCH   1  13
HETATM   13  C9  UNL     1      24.300   1.643  51.543  1.00  0.00     0.727 A 
HETATM   14  N3  UNL     1      23.415   1.008  52.319  1.00  0.00    -0.075 NA
HETATM   15  C10 UNL     1      23.712   0.185  53.333  1.00  0.00     0.138 A 
HETATM   16  C11 UNL     1      25.046  -0.030  53.604  1.00  0.00     0.048 A 
HETATM   17  C12 UNL     1      26.002   0.599  52.836  1.00  0.00     0.067 A 
HETATM   18  N5  UNL     1      25.584   1.398  51.851  1.00  0.00    -0.066 NA
BRANCH  17  19
HETATM   19  C13 UNL     1      27.424   0.378  53.115  1.00  0.00     0.103 A 
HETATM   20  C14 UNL     1      28.264   1.568  52.919  1.00  0.00     0.009 A 
HETATM   21  C15 UNL     1      28.892   1.867  54.064  1.00  0.00     0.113 A 
HETATM   22  N4  UNL     1      28.520   0.917  55.079  1.00  0.00    -0.276 NA
HETATM   23  C16 UNL     1      27.685   0.059  54.560  1.00  0.00     0.104 A 
ENDBRANCH  17  19
ENDBRANCH   1  13
TORSDOF 5
ENDMDL
MODEL 9
REMARK VINA RESULT:      -7.0      3.161      5.395
REMARK  5 active torsions:
REMARK  status: ('A' for Active; 'I' for Inactive)
REMARK    1  A    between atoms: C5_5  and  N1_6 
REMARK    2  A    between atoms: N1_6  and  C6_7 
REMARK    3  A    between atoms: C8_10  and  N2_11 
REMARK    4  A    between atoms: N2_11  and  C9_12 
REMARK    5  A    between atoms: C12_16  and  C13_17 
ROOT
HETATM    1  N2  UNL     1      21.629   0.633  51.755  1.00  0.00    -0.188 N 
HETATM    2  H7  UNL     1      20.576   0.501  51.744  1.00  0.00     0.184 HD
ENDROOT
BRANCH   1   3
HETATM    3  C8  UNL     1      22.279   0.036  52.858  1.00  0.00     0.057 A 
HETATM    4  C2  UNL     1      21.565  -0.495  53.922  1.00  0.00    -0.035 A 
HETATM    5  C1  UNL     1      20.069  -0.430  53.891  1.00  0.00     0.050 C 
HETATM    6  C3  UNL     1      22.156  -1.083  55.010  1.00  0.00     0.011 A 
HETATM    7  C4  UNL     1      23.528  -1.178  55.105  1.00  0.00     0.032 A 
HETATM    8  C5  UNL     1      24.288  -0.667  54.076  1.00  0.00     0.063 A 
HETATM    9  C7  UNL     1      23.639  -0.094  53.019  1.00  0.00     0.062 A 
BRANCH   8  10
HETATM   10  N1  UNL     1      25.705  -0.759  54.162  1.00  0.00    -0.206 NA
BRANCH  10  11
HETATM   11  C6  UNL     1      26.375   0.236  54.596  1.00  0.00     0.337 C 
HETATM   12  O1  UNL     1      26.851   1.368  54.853  1.00  0.00    -0.260 OA
ENDBRANCH  10  11
ENDBRANCH   8  10
ENDBRANCH   1   3
BRANCH   1  13
HETATM   13  C9  UNL     1      22.200   1.365  50.694  1.00  0.00     0.727 A 
HETATM   14  N3  UNL     1      21.832   1.332  49.408  1.00  0.00    -0.075 NA
HETATM   15  C10 UNL     1      22.390   2.037  48.416  1.00  0.00     0.138 A 
HETATM   16  C11 UNL     1      23.436   2.873  48.744  1.00  0.00     0.048 A 
HETATM   17  C12 UNL     1      23.857   2.947  50.054  1.00  0.00     0.067 A 
HETATM   18  N5  UNL     1      23.222   2.195  50.957  1.00  0.00    -0.066 NA
BRANCH  17  19
HETATM   19  C13 UNL     1      24.969   3.832  50.415  1.00  0.00     0.103 A 
HETATM   20  C14 UNL     1      26.294   3.294  50.084  1.00  0.00     0.009 A 
HETATM   21  C15 UNL     1      26.925   4.135  49.253  1.00  0.00     0.113 A 
HETATM   22  N4  UNL     1      26.080   5.267  48.981  1.00  0.00    -0.276 NA
HETATM   23  C16 UNL     1      24.959   5.116  49.633  1.00  0.00     0.104 A 
ENDBRANCH  17  19
ENDBRANCH   1  13
TORSDOF 5
ENDMDL
