MODEL 1
REMARK VINA RESULT:      -8.5      0.000      0.000
REMARK  8 active torsions:
REMARK  status: ('A' for Active; 'I' for Inactive)
REMARK    1  A    between atoms: C2_2  and  N1_3 
REMARK    2  A    between atoms: C5_7  and  N3_8 
REMARK    3  A    between atoms: N3_8  and  C6_9 
REMARK    4  A    between atoms: C6_9  and  C11_15 
REMARK    5  A    between atoms: C8_11  and  C9_12 
REMARK    6  A    between atoms: C12_17  and  N5_18 
REMARK    7  A    between atoms: N5_18  and  C13_19 
REMARK    8  A    between atoms: C17_23  and  N6_24 
ROOT
HETATM    1  N1  UNL     1      24.751   4.359  49.564  1.00  0.00    -0.324 N 
HETATM    2  C3  UNL     1      23.634   4.318  48.813  1.00  0.00     0.212 A 
HETATM    3  N2  UNL     1      22.890   3.298  49.330  1.00  0.00    -0.236 NA
HETATM    4  C4  UNL     1      23.568   2.754  50.370  1.00  0.00     0.151 A 
HETATM    5  C5  UNL     1      23.184   1.705  51.174  1.00  0.00     0.176 A 
HETATM    6  N4  UNL     1      24.044   1.364  52.139  1.00  0.00    -0.043 NA
HETATM    7  C12 UNL     1      25.228   1.974  52.352  1.00  0.00     0.726 A 
HETATM    8  N7  UNL     1      25.530   2.988  51.525  1.00  0.00    -0.042 NA
HETATM    9  C19 UNL     1      24.761   3.425  50.528  1.00  0.00     0.182 A 
ENDROOT
BRANCH   7  10
HETATM   10  N5  UNL     1      26.094   1.553  53.399  1.00  0.00    -0.218 N 
HETATM   11  H10 UNL     1      25.852   1.831  54.375  1.00  0.00     0.178 HD
BRANCH  10  12
HETATM   12  C13 UNL     1      27.285   0.763  53.170  1.00  0.00     0.101 C 
HETATM   13  C14 UNL     1      28.465   1.201  54.009  1.00  0.00     0.026 C 
HETATM   14  C15 UNL     1      29.651   0.377  53.599  1.00  0.00     0.004 C 
HETATM   15  C16 UNL     1      29.425  -1.105  53.716  1.00  0.00     0.035 C 
HETATM   16  C17 UNL     1      28.194  -1.486  52.907  1.00  0.00     0.220 C 
HETATM   17  C18 UNL     1      27.018  -0.684  53.460  1.00  0.00     0.060 C 
BRANCH  16  18
HETATM   18  N6  UNL     1      27.920  -2.894  53.023  1.00  0.00     0.083 N 
HETATM   19  H19 UNL     1      28.427  -3.343  53.813  1.00  0.00     0.313 HD
HETATM   20  H20 UNL     1      26.884  -3.048  53.143  1.00  0.00     0.313 HD
ENDBRANCH  16  18
ENDBRANCH  10  12
ENDBRANCH   7  10
BRANCH   5  21
HETATM   21  N3  UNL     1      21.985   0.951  51.090  1.00  0.00    -0.358 N 
HETATM   22  H7  UNL     1      21.765   1.056  50.081  1.00  0.00     0.162 HD
BRANCH  21  23
HETATM   23  C6  UNL     1      21.197   0.168  52.176  1.00  0.00     0.074 A 
HETATM   24  C7  UNL     1      19.613   0.051  52.385  1.00  0.00     0.062 A 
HETATM   25  C8  UNL     1      20.378  -0.484  53.073  1.00  0.00    -0.038 A 
BRANCH  25  26
HETATM   26  C9  UNL     1      21.099  -0.967  53.695  1.00  0.00    -0.039 A 
HETATM   27  C10 UNL     1      21.879  -1.468  54.379  1.00  0.00     0.097 A 
HETATM   28 CL1  UNL     1      22.971  -1.623  55.662  1.00  0.00    -0.111 Cl
HETATM   29  C11 UNL     1      21.365   0.021  54.613  1.00  0.00     0.080 A 
ENDBRANCH  25  26
ENDBRANCH  21  23
ENDBRANCH   5  21
BRANCH   1  30
HETATM   30  C2  UNL     1      25.839   5.297  49.373  1.00  0.00     0.127 C 
HETATM   31  C1  UNL     1      27.105   4.596  48.918  1.00  0.00     0.027 C 
ENDBRANCH   1  30
TORSDOF 8
ENDMDL
MODEL 2
REMARK VINA RESULT:      -8.3      2.520      5.866
REMARK  8 active torsions:
REMARK  status: ('A' for Active; 'I' for Inactive)
REMARK    1  A    between atoms: C2_2  and  N1_3 
REMARK    2  A    between atoms: C5_7  and  N3_8 
REMARK    3  A    between atoms: N3_8  and  C6_9 
REMARK    4  A    between atoms: C6_9  and  C11_15 
REMARK    5  A    between atoms: C8_11  and  C9_12 
REMARK    6  A    between atoms: C12_17  and  N5_18 
REMARK    7  A    between atoms: N5_18  and  C13_19 
REMARK    8  A    between atoms: C17_23  and  N6_24 
ROOT
HETATM    1  N1  UNL     1      21.922   0.301  52.294  1.00  0.00    -0.324 N 
HETATM    2  C3  UNL     1      21.215   0.739  51.235  1.00  0.00     0.212 A 
HETATM    3  N2  UNL     1      22.058   1.572  50.559  1.00  0.00    -0.236 NA
HETATM    4  C4  UNL     1      23.241   1.617  51.219  1.00  0.00     0.151 A 
HETATM    5  C5  UNL     1      24.369   2.332  50.885  1.00  0.00     0.176 A 
HETATM    6  N4  UNL     1      25.411   2.198  51.712  1.00  0.00    -0.043 NA
HETATM    7  C12 UNL     1      25.409   1.425  52.818  1.00  0.00     0.726 A 
HETATM    8  N7  UNL     1      24.271   0.760  53.075  1.00  0.00    -0.042 NA
HETATM    9  C19 UNL     1      23.166   0.808  52.331  1.00  0.00     0.182 A 
ENDROOT
BRANCH   7  10
HETATM   10  N5  UNL     1      26.556   1.334  53.653  1.00  0.00    -0.218 N 
HETATM   11  H10 UNL     1      26.554   1.870  54.548  1.00  0.00     0.178 HD
BRANCH  10  12
HETATM   12  C13 UNL     1      27.717   0.537  53.318  1.00  0.00     0.101 C 
HETATM   13  C14 UNL     1      28.966   0.952  54.064  1.00  0.00     0.026 C 
HETATM   14  C15 UNL     1      30.106   0.123  53.548  1.00  0.00     0.004 C 
HETATM   15  C16 UNL     1      29.875  -1.359  53.663  1.00  0.00     0.035 C 
HETATM   16  C17 UNL     1      28.578  -1.716  52.953  1.00  0.00     0.220 C 
HETATM   17  C18 UNL     1      27.460  -0.912  53.610  1.00  0.00     0.060 C 
BRANCH  16  18
HETATM   18  N6  UNL     1      28.301  -3.124  53.072  1.00  0.00     0.083 N 
HETATM   19  H19 UNL     1      27.667  -3.348  53.866  1.00  0.00     0.313 HD
HETATM   20  H20 UNL     1      27.873  -3.480  52.177  1.00  0.00     0.313 HD
ENDBRANCH  16  18
ENDBRANCH  10  12
ENDBRANCH   7  10
BRANCH   5  21
HETATM   21  N3  UNL     1      24.544   3.192  49.771  1.00  0.00    -0.358 N 
HETATM   22  H7  UNL     1      23.817   2.821  49.128  1.00  0.00     0.162 HD
BRANCH  21  23
HETATM   23  C6  UNL     1      25.529   4.372  49.540  1.00  0.00     0.074 A 
HETATM   24  C7  UNL     1      27.033   4.338  48.993  1.00  0.00     0.062 A 
HETATM   25  C8  UNL     1      26.494   5.322  49.284  1.00  0.00    -0.038 A 
BRANCH  25  26
HETATM   26  C9  UNL     1      25.979   6.216  49.558  1.00  0.00    -0.039 A 
HETATM   27  C10 UNL     1      25.422   7.187  49.831  1.00  0.00     0.097 A 
HETATM   28 CL1  UNL     1      24.613   8.653  49.587  1.00  0.00    -0.111 Cl
HETATM   29  C11 UNL     1      25.731   6.772  48.325  1.00  0.00     0.080 A 
ENDBRANCH  25  26
ENDBRANCH  21  23
ENDBRANCH   5  21
BRANCH   1  30
HETATM   30  C2  UNL     1      21.421  -0.614  53.299  1.00  0.00     0.127 C 
HETATM   31  C1  UNL     1      20.964   0.121  54.545  1.00  0.00     0.027 C 
ENDBRANCH   1  30
TORSDOF 8
ENDMDL
MODEL 3
REMARK VINA RESULT:      -8.3      2.045      2.463
REMARK  8 active torsions:
REMARK  status: ('A' for Active; 'I' for Inactive)
REMARK    1  A    between atoms: C2_2  and  N1_3 
REMARK    2  A    between atoms: C5_7  and  N3_8 
REMARK    3  A    between atoms: N3_8  and  C6_9 
REMARK    4  A    between atoms: C6_9  and  C11_15 
REMARK    5  A    between atoms: C8_11  and  C9_12 
REMARK    6  A    between atoms: C12_17  and  N5_18 
REMARK    7  A    between atoms: N5_18  and  C13_19 
REMARK    8  A    between atoms: C17_23  and  N6_24 
ROOT
HETATM    1  N1  UNL     1      22.350   5.655  50.359  1.00  0.00    -0.324 N 
HETATM    2  C3  UNL     1      21.029   5.547  50.118  1.00  0.00     0.212 A 
HETATM    3  N2  UNL     1      20.618   4.468  50.844  1.00  0.00    -0.236 NA
HETATM    4  C4  UNL     1      21.688   3.955  51.499  1.00  0.00     0.151 A 
HETATM    5  C5  UNL     1      21.722   2.867  52.342  1.00  0.00     0.176 A 
HETATM    6  N4  UNL     1      22.917   2.571  52.864  1.00  0.00    -0.043 NA
HETATM    7  C12 UNL     1      24.048   3.261  52.612  1.00  0.00     0.726 A 
HETATM    8  N7  UNL     1      23.932   4.308  51.780  1.00  0.00    -0.042 NA
HETATM    9  C19 UNL     1      22.802   4.707  51.196  1.00  0.00     0.182 A 
ENDROOT
BRANCH   7  10
HETATM   10  N5  UNL     1      25.286   2.884  53.203  1.00  0.00    -0.218 N 
HETATM   11  H10 UNL     1      25.914   3.643  53.549  1.00  0.00     0.178 HD
BRANCH  10  12
HETATM   12  C13 UNL     1      25.708   1.507  53.345  1.00  0.00     0.101 C 
HETATM   13  C14 UNL     1      25.728   0.748  52.037  1.00  0.00     0.026 C 
HETATM   14  C15 UNL     1      26.076  -0.681  52.340  1.00  0.00     0.004 C 
HETATM   15  C16 UNL     1      27.378  -0.840  53.077  1.00  0.00     0.035 C 
HETATM   16  C17 UNL     1      27.333  -0.010  54.351  1.00  0.00     0.220 C 
HETATM   17  C18 UNL     1      27.083   1.440  53.944  1.00  0.00     0.060 C 
BRANCH  16  18
HETATM   18  N6  UNL     1      28.577  -0.106  55.069  1.00  0.00     0.083 N 
HETATM   19  H19 UNL     1      29.339   0.457  54.639  1.00  0.00     0.313 HD
HETATM   20  H20 UNL     1      28.438   0.204  56.067  1.00  0.00     0.313 HD
ENDBRANCH  16  18
ENDBRANCH  10  12
ENDBRANCH   7  10
BRANCH   5  21
HETATM   21  N3  UNL     1      20.638   2.031  52.711  1.00  0.00    -0.358 N 
HETATM   22  H7  UNL     1      19.834   2.636  52.453  1.00  0.00     0.162 HD
BRANCH  21  23
HETATM   23  C6  UNL     1      20.617   0.603  53.324  1.00  0.00     0.074 A 
HETATM   24  C7  UNL     1      19.520  -0.552  53.154  1.00  0.00     0.062 A 
HETATM   25  C8  UNL     1      20.478  -0.686  53.793  1.00  0.00    -0.038 A 
BRANCH  25  26
HETATM   26  C9  UNL     1      21.365  -0.788  54.377  1.00  0.00    -0.039 A 
HETATM   27  C10 UNL     1      22.335  -0.904  54.989  1.00  0.00     0.097 A 
HETATM   28 CL1  UNL     1      23.974  -1.201  55.289  1.00  0.00    -0.111 Cl
HETATM   29  C11 UNL     1      22.286  -1.116  53.411  1.00  0.00     0.080 A 
ENDBRANCH  25  26
ENDBRANCH  21  23
ENDBRANCH   5  21
BRANCH   1  30
HETATM   30  C2  UNL     1      23.211   6.672  49.791  1.00  0.00     0.127 C 
HETATM   31  C1  UNL     1      23.626   7.695  50.831  1.00  0.00     0.027 C 
ENDBRANCH   1  30
TORSDOF 8
ENDMDL
MODEL 4
REMARK VINA RESULT:      -8.3      2.317      7.004
REMARK  8 active torsions:
REMARK  status: ('A' for Active; 'I' for Inactive)
REMARK    1  A    between atoms: C2_2  and  N1_3 
REMARK    2  A    between atoms: C5_7  and  N3_8 
REMARK    3  A    between atoms: N3_8  and  C6_9 
REMARK    4  A    between atoms: C6_9  and  C11_15 
REMARK    5  A    between atoms: C8_11  and  C9_12 
REMARK    6  A    between atoms: C12_17  and  N5_18 
REMARK    7  A    between atoms: N5_18  and  C13_19 
REMARK    8  A    between atoms: C17_23  and  N6_24 
ROOT
HETATM    1  N1  UNL     1      20.165  -0.838  53.462  1.00  0.00    -0.324 N 
HETATM    2  C3  UNL     1      20.545  -1.655  54.463  1.00  0.00     0.212 A 
HETATM    3  N2  UNL     1      21.901  -1.522  54.542  1.00  0.00    -0.236 NA
HETATM    4  C4  UNL     1      22.303  -0.637  53.597  1.00  0.00     0.151 A 
HETATM    5  C5  UNL     1      23.584  -0.211  53.328  1.00  0.00     0.176 A 
HETATM    6  N4  UNL     1      23.707   0.676  52.336  1.00  0.00    -0.043 NA
HETATM    7  C12 UNL     1      22.675   1.154  51.611  1.00  0.00     0.726 A 
HETATM    8  N7  UNL     1      21.457   0.689  51.934  1.00  0.00    -0.042 NA
HETATM    9  C19 UNL     1      21.201  -0.193  52.900  1.00  0.00     0.182 A 
ENDROOT
BRANCH   7  10
HETATM   10  N5  UNL     1      22.884   2.096  50.566  1.00  0.00    -0.218 N 
HETATM   11  H10 UNL     1      22.343   1.974  49.682  1.00  0.00     0.178 HD
BRANCH  10  12
HETATM   12  C13 UNL     1      23.808   3.206  50.674  1.00  0.00     0.101 C 
HETATM   13  C14 UNL     1      24.785   3.287  49.523  1.00  0.00     0.026 C 
HETATM   14  C15 UNL     1      25.744   4.405  49.813  1.00  0.00     0.004 C 
HETATM   15  C16 UNL     1      25.071   5.731  50.045  1.00  0.00     0.035 C 
HETATM   16  C17 UNL     1      24.054   5.582  51.166  1.00  0.00     0.220 C 
HETATM   17  C18 UNL     1      23.060   4.504  50.743  1.00  0.00     0.060 C 
BRANCH  16  18
HETATM   18  N6  UNL     1      23.360   6.822  51.395  1.00  0.00     0.083 N 
HETATM   19  H19 UNL     1      22.613   6.743  52.115  1.00  0.00     0.313 HD
HETATM   20  H20 UNL     1      24.046   7.567  51.689  1.00  0.00     0.313 HD
ENDBRANCH  16  18
ENDBRANCH  10  12
ENDBRANCH   7  10
BRANCH   5  21
HETATM   21  N3  UNL     1      24.778  -0.609  53.982  1.00  0.00    -0.358 N 
HETATM   22  H7  UNL     1      24.412  -0.832  54.928  1.00  0.00     0.162 HD
BRANCH  21  23
HETATM   23  C6  UNL     1      26.239  -0.706  53.462  1.00  0.00     0.074 A 
HETATM   24  C7  UNL     1      26.910  -1.832  52.542  1.00  0.00     0.062 A 
HETATM   25  C8  UNL     1      27.495  -0.909  52.931  1.00  0.00    -0.038 A 
BRANCH  25  26
HETATM   26  C9  UNL     1      28.014  -0.053  53.300  1.00  0.00    -0.039 A 
HETATM   27  C10 UNL     1      28.562   0.885  53.684  1.00  0.00     0.097 A 
HETATM   28 CL1  UNL     1      28.947   2.526  53.834  1.00  0.00    -0.111 Cl
HETATM   29  C11 UNL     1      27.393   0.958  52.606  1.00  0.00     0.080 A 
ENDBRANCH  25  26
ENDBRANCH  21  23
ENDBRANCH   5  21
BRANCH   1  30
HETATM   30  C2  UNL     1      18.798  -0.656  53.019  1.00  0.00     0.127 C 
HETATM   31  C1  UNL     1      17.925  -1.834  53.410  1.00  0.00     0.027 C 
ENDBRANCH   1  30
TORSDOF 8
ENDMDL
MODEL 5
REMARK VINA RESULT:      -8.2      2.086      5.876
REMARK  8 active torsions:
REMARK  status: ('A' for Active; 'I' for Inactive)
REMARK    1  A    between atoms: C2_2  and  N1_3 
REMARK    2  A    between atoms: C5_7  and  N3_8 
REMARK    3  A    between atoms: N3_8  and  C6_9 
REMARK    4  A    between atoms: C6_9  and  C11_15 
REMARK    5  A    between atoms: C8_11  and  C9_12 
REMARK    6  A    between atoms: C12_17  and  N5_18 
REMARK    7  A    between atoms: N5_18  and  C13_19 
REMARK    8  A    between atoms: C17_23  and  N6_24 
ROOT
HETATM    1  N1  UNL     1      27.971   0.704  53.832  1.00  0.00    -0.324 N 
HETATM    2  C3  UNL     1      27.230   0.287  54.877  1.00  0.00     0.212 A 
HETATM    3  N2  UNL     1      25.950   0.657  54.582  1.00  0.00    -0.236 NA
HETATM    4  C4  UNL     1      25.948   1.282  53.380  1.00  0.00     0.151 A 
HETATM    5  C5  UNL     1      24.873   1.813  52.704  1.00  0.00     0.176 A 
HETATM    6  N4  UNL     1      25.146   2.378  51.524  1.00  0.00    -0.043 NA
HETATM    7  C12 UNL     1      26.380   2.451  50.984  1.00  0.00     0.726 A 
HETATM    8  N7  UNL     1      27.376   1.910  51.705  1.00  0.00    -0.042 NA
HETATM    9  C19 UNL     1      27.236   1.318  52.891  1.00  0.00     0.182 A 
ENDROOT
BRANCH   7  10
HETATM   10  N5  UNL     1      26.595   3.070  49.722  1.00  0.00    -0.218 N 
HETATM   11  H10 UNL     1      26.765   2.454  48.897  1.00  0.00     0.178 HD
BRANCH  10  12
HETATM   12  C13 UNL     1      26.588   4.506  49.534  1.00  0.00     0.101 C 
HETATM   13  C14 UNL     1      27.625   4.986  48.543  1.00  0.00     0.026 C 
HETATM   14  C15 UNL     1      27.582   6.486  48.524  1.00  0.00     0.004 C 
HETATM   15  C16 UNL     1      26.224   7.046  48.199  1.00  0.00     0.035 C 
HETATM   16  C17 UNL     1      25.207   6.486  49.182  1.00  0.00     0.220 C 
HETATM   17  C18 UNL     1      25.241   4.965  49.058  1.00  0.00     0.060 C 
BRANCH  16  18
HETATM   18  N6  UNL     1      23.885   6.969  48.882  1.00  0.00     0.083 N 
HETATM   19  H19 UNL     1      23.173   6.211  48.847  1.00  0.00     0.313 HD
HETATM   20  H20 UNL     1      23.595   7.685  49.600  1.00  0.00     0.313 HD
ENDBRANCH  16  18
ENDBRANCH  10  12
ENDBRANCH   7  10
BRANCH   5  21
HETATM   21  N3  UNL     1      23.518   1.830  53.123  1.00  0.00    -0.358 N 
HETATM   22  H7  UNL     1      23.400   2.838  53.345  1.00  0.00     0.162 HD
BRANCH  21  23
HETATM   23  C6  UNL     1      22.470   0.688  53.227  1.00  0.00     0.074 A 
HETATM   24  C7  UNL     1      22.482  -0.610  54.166  1.00  0.00     0.062 A 
HETATM   25  C8  UNL     1      21.621  -0.380  53.423  1.00  0.00    -0.038 A 
BRANCH  25  26
HETATM   26  C9  UNL     1      20.840  -0.151  52.734  1.00  0.00    -0.039 A 
HETATM   27  C10 UNL     1      19.980   0.088  52.004  1.00  0.00     0.097 A 
HETATM   28 CL1  UNL     1      18.391   0.200  51.436  1.00  0.00    -0.111 Cl
HETATM   29  C11 UNL     1      19.730  -0.544  53.444  1.00  0.00     0.080 A 
ENDBRANCH  25  26
ENDBRANCH  21  23
ENDBRANCH   5  21
BRANCH   1  30
HETATM   30  C2  UNL     1      29.403   0.525  53.713  1.00  0.00     0.127 C 
HETATM   31  C1  UNL     1      29.767  -0.934  53.511  1.00  0.00     0.027 C 
ENDBRANCH   1  30
TORSDOF 8
ENDMDL
MODEL 6
REMARK VINA RESULT:      -8.2      2.554      6.138
REMARK  8 active torsions:
REMARK  status: ('A' for Active; 'I' for Inactive)
REMARK    1  A    between atoms: C2_2  and  N1_3 
REMARK    2  A    between atoms: C5_7  and  N3_8 
REMARK    3  A    between atoms: N3_8  and  C6_9 
REMARK    4  A    between atoms: C6_9  and  C11_15 
REMARK    5  A    between atoms: C8_11  and  C9_12 
REMARK    6  A    between atoms: C12_17  and  N5_18 
REMARK    7  A    between atoms: N5_18  and  C13_19 
REMARK    8  A    between atoms: C17_23  and  N6_24 
ROOT
HETATM    1  N1  UNL     1      27.731   0.803  53.911  1.00  0.00    -0.324 N 
HETATM    2  C3  UNL     1      26.926   0.206  54.812  1.00  0.00     0.212 A 
HETATM    3  N2  UNL     1      25.663   0.350  54.317  1.00  0.00    -0.236 NA
HETATM    4  C4  UNL     1      25.733   1.022  53.143  1.00  0.00     0.151 A 
HETATM    5  C5  UNL     1      24.698   1.381  52.309  1.00  0.00     0.176 A 
HETATM    6  N4  UNL     1      25.043   2.043  51.201  1.00  0.00    -0.043 NA
HETATM    7  C12 UNL     1      26.311   2.366  50.872  1.00  0.00     0.726 A 
HETATM    8  N7  UNL     1      27.264   1.982  51.737  1.00  0.00    -0.042 NA
HETATM    9  C19 UNL     1      27.052   1.317  52.873  1.00  0.00     0.182 A 
ENDROOT
BRANCH   7  10
HETATM   10  N5  UNL     1      26.602   3.075  49.675  1.00  0.00    -0.218 N 
HETATM   11  H10 UNL     1      26.945   2.529  48.854  1.00  0.00     0.178 HD
BRANCH  10  12
HETATM   12  C13 UNL     1      26.446   4.509  49.546  1.00  0.00     0.101 C 
HETATM   13  C14 UNL     1      27.434   5.136  48.589  1.00  0.00     0.026 C 
HETATM   14  C15 UNL     1      27.234   6.624  48.632  1.00  0.00     0.004 C 
HETATM   15  C16 UNL     1      25.827   7.051  48.314  1.00  0.00     0.035 C 
HETATM   16  C17 UNL     1      24.867   6.347  49.260  1.00  0.00     0.220 C 
HETATM   17  C18 UNL     1      25.062   4.844  49.074  1.00  0.00     0.060 C 
BRANCH  16  18
HETATM   18  N6  UNL     1      23.504   6.701  48.964  1.00  0.00     0.083 N 
HETATM   19  H19 UNL     1      22.812   6.133  49.493  1.00  0.00     0.313 HD
HETATM   20  H20 UNL     1      23.347   7.722  49.174  1.00  0.00     0.313 HD
ENDBRANCH  16  18
ENDBRANCH  10  12
ENDBRANCH   7  10
BRANCH   5  21
HETATM   21  N3  UNL     1      23.315   1.129  52.499  1.00  0.00    -0.358 N 
HETATM   22  H7  UNL     1      23.255   1.166  53.536  1.00  0.00     0.162 HD
BRANCH  21  23
HETATM   23  C6  UNL     1      22.176   0.874  51.473  1.00  0.00     0.074 A 
HETATM   24  C7  UNL     1      20.712   0.275  51.720  1.00  0.00     0.062 A 
HETATM   25  C8  UNL     1      21.086   0.606  50.673  1.00  0.00    -0.038 A 
BRANCH  25  26
HETATM   26  C9  UNL     1      21.451   0.916  49.720  1.00  0.00    -0.039 A 
HETATM   27  C10 UNL     1      21.840   1.273  48.696  1.00  0.00     0.097 A 
HETATM   28 CL1  UNL     1      22.282   2.362  47.479  1.00  0.00    -0.111 Cl
HETATM   29  C11 UNL     1      21.360   2.283  49.829  1.00  0.00     0.080 A 
ENDBRANCH  25  26
ENDBRANCH  21  23
ENDBRANCH   5  21
BRANCH   1  30
HETATM   30  C2  UNL     1      29.172   0.894  54.026  1.00  0.00     0.127 C 
HETATM   31  C1  UNL     1      29.848  -0.390  53.586  1.00  0.00     0.027 C 
ENDBRANCH   1  30
TORSDOF 8
ENDMDL
MODEL 7
REMARK VINA RESULT:      -8.1      2.695      7.090
REMARK  8 active torsions:
REMARK  status: ('A' for Active; 'I' for Inactive)
REMARK    1  A    between atoms: C2_2  and  N1_3 
REMARK    2  A    between atoms: C5_7  and  N3_8 
REMARK    3  A    between atoms: N3_8  and  C6_9 
REMARK    4  A    between atoms: C6_9  and  C11_15 
REMARK    5  A    between atoms: C8_11  and  C9_12 
REMARK    6  A    between atoms: C12_17  and  N5_18 
REMARK    7  A    between atoms: N5_18  and  C13_19 
REMARK    8  A    between atoms: C17_23  and  N6_24 
ROOT
HETATM    1  N1  UNL     1      28.017   0.360  53.495  1.00  0.00    -0.324 N 
HETATM    2  C3  UNL     1      28.708   1.443  53.090  1.00  0.00     0.212 A 
HETATM    3  N2  UNL     1      27.764   2.348  52.701  1.00  0.00    -0.236 NA
HETATM    4  C4  UNL     1      26.539   1.796  52.878  1.00  0.00     0.151 A 
HETATM    5  C5  UNL     1      25.311   2.360  52.616  1.00  0.00     0.176 A 
HETATM    6  N4  UNL     1      24.248   1.596  52.884  1.00  0.00    -0.043 NA
HETATM    7  C12 UNL     1      24.318   0.344  53.381  1.00  0.00     0.726 A 
HETATM    8  N7  UNL     1      25.552  -0.135  53.609  1.00  0.00    -0.042 NA
HETATM    9  C19 UNL     1      26.688   0.524  53.386  1.00  0.00     0.182 A 
ENDROOT
BRANCH   7  10
HETATM   10  N5  UNL     1      23.141  -0.412  53.639  1.00  0.00    -0.218 N 
HETATM   11  H10 UNL     1      23.237  -1.292  54.192  1.00  0.00     0.178 HD
BRANCH  10  12
HETATM   12  C13 UNL     1      21.829  -0.017  53.173  1.00  0.00     0.101 C 
HETATM   13  C14 UNL     1      21.746   0.131  51.670  1.00  0.00     0.026 C 
HETATM   14  C15 UNL     1      20.375   0.644  51.335  1.00  0.00     0.004 C 
HETATM   15  C16 UNL     1      19.263  -0.225  51.855  1.00  0.00     0.035 C 
HETATM   16  C17 UNL     1      19.426  -0.395  53.358  1.00  0.00     0.220 C 
HETATM   17  C18 UNL     1      20.797  -1.019  53.601  1.00  0.00     0.060 C 
BRANCH  16  18
HETATM   18  N6  UNL     1      18.400  -1.252  53.891  1.00  0.00     0.083 N 
HETATM   19  H19 UNL     1      18.711  -2.238  54.003  1.00  0.00     0.313 HD
HETATM   20  H20 UNL     1      18.075  -0.883  54.824  1.00  0.00     0.313 HD
ENDBRANCH  16  18
ENDBRANCH  10  12
ENDBRANCH   7  10
BRANCH   5  21
HETATM   21  N3  UNL     1      25.053   3.653  52.091  1.00  0.00    -0.358 N 
HETATM   22  H7  UNL     1      24.930   4.193  52.970  1.00  0.00     0.162 HD
BRANCH  21  23
HETATM   23  C6  UNL     1      24.974   4.159  50.624  1.00  0.00     0.074 A 
HETATM   24  C7  UNL     1      23.734   4.129  49.612  1.00  0.00     0.062 A 
HETATM   25  C8  UNL     1      24.767   4.572  49.325  1.00  0.00    -0.038 A 
BRANCH  25  26
HETATM   26  C9  UNL     1      25.725   4.974  49.083  1.00  0.00    -0.039 A 
HETATM   27  C10 UNL     1      26.769   5.387  48.824  1.00  0.00     0.097 A 
HETATM   28 CL1  UNL     1      28.440   5.371  48.556  1.00  0.00    -0.111 Cl
HETATM   29  C11 UNL     1      26.520   3.858  49.196  1.00  0.00     0.080 A 
ENDBRANCH  25  26
ENDBRANCH  21  23
ENDBRANCH   5  21
BRANCH   1  30
HETATM   30  C2  UNL     1      28.615  -0.860  53.996  1.00  0.00     0.127 C 
HETATM   31  C1  UNL     1      30.098  -0.925  53.679  1.00  0.00     0.027 C 
ENDBRANCH   1  30
TORSDOF 8
ENDMDL
MODEL 8
REMARK VINA RESULT:      -8.1      3.572      6.515
REMARK  8 active torsions:
REMARK  status: ('A' for Active; 'I' for Inactive)
REMARK    1  A    between atoms: C2_2  and  N1_3 
REMARK    2  A    between atoms: C5_7  and  N3_8 
REMARK    3  A    between atoms: N3_8  and  C6_9 
REMARK    4  A    between atoms: C6_9  and  C11_15 
REMARK    5  A    between atoms: C8_11  and  C9_12 
REMARK    6  A    between atoms: C12_17  and  N5_18 
REMARK    7  A    between atoms: N5_18  and  C13_19 
REMARK    8  A    between atoms: C17_23  and  N6_24 
ROOT
HETATM    1  N1  UNL     1      22.823   3.463  50.885  1.00  0.00    -0.324 N 
HETATM    2  C3  UNL     1      22.780   4.098  49.697  1.00  0.00     0.212 A 
HETATM    3  N2  UNL     1      24.066   4.099  49.243  1.00  0.00    -0.236 NA
HETATM    4  C4  UNL     1      24.847   3.473  50.157  1.00  0.00     0.151 A 
HETATM    5  C5  UNL     1      26.204   3.251  50.099  1.00  0.00     0.176 A 
HETATM    6  N4  UNL     1      26.734   2.602  51.141  1.00  0.00    -0.043 NA
HETATM    7  C12 UNL     1      26.028   2.171  52.207  1.00  0.00     0.726 A 
HETATM    8  N7  UNL     1      24.710   2.427  52.188  1.00  0.00    -0.042 NA
HETATM    9  C19 UNL     1      24.062   3.062  51.212  1.00  0.00     0.182 A 
ENDROOT
BRANCH   7  10
HETATM   10  N5  UNL     1      26.663   1.488  53.281  1.00  0.00    -0.218 N 
HETATM   11  H10 UNL     1      26.288   1.636  54.243  1.00  0.00     0.178 HD
BRANCH  10  12
HETATM   12  C13 UNL     1      27.795   0.606  53.098  1.00  0.00     0.101 C 
HETATM   13  C14 UNL     1      28.981   0.965  53.966  1.00  0.00     0.026 C 
HETATM   14  C15 UNL     1      30.111   0.046  53.602  1.00  0.00     0.004 C 
HETATM   15  C16 UNL     1      29.767  -1.413  53.733  1.00  0.00     0.035 C 
HETATM   16  C17 UNL     1      28.534  -1.710  52.894  1.00  0.00     0.220 C 
HETATM   17  C18 UNL     1      27.409  -0.812  53.401  1.00  0.00     0.060 C 
BRANCH  16  18
HETATM   18  N6  UNL     1      28.149  -3.091  53.021  1.00  0.00     0.083 N 
HETATM   19  H19 UNL     1      27.600  -3.437  52.208  1.00  0.00     0.313 HD
HETATM   20  H20 UNL     1      29.007  -3.692  53.140  1.00  0.00     0.313 HD
ENDBRANCH  16  18
ENDBRANCH  10  12
ENDBRANCH   7  10
BRANCH   5  21
HETATM   21  N3  UNL     1      27.095   3.637  49.065  1.00  0.00    -0.358 N 
HETATM   22  H7  UNL     1      27.348   2.708  48.675  1.00  0.00     0.162 HD
BRANCH  21  23
HETATM   23  C6  UNL     1      27.579   5.041  48.609  1.00  0.00     0.074 A 
HETATM   24  C7  UNL     1      26.761   6.417  48.544  1.00  0.00     0.062 A 
HETATM   25  C8  UNL     1      27.877   6.335  48.240  1.00  0.00    -0.038 A 
BRANCH  25  26
HETATM   26  C9  UNL     1      28.904   6.238  47.964  1.00  0.00    -0.039 A 
HETATM   27  C10 UNL     1      30.016   6.154  47.675  1.00  0.00     0.097 A 
HETATM   28 CL1  UNL     1      31.637   6.617  47.526  1.00  0.00    -0.111 Cl
HETATM   29  C11 UNL     1      29.415   7.436  48.405  1.00  0.00     0.080 A 
ENDBRANCH  25  26
ENDBRANCH  21  23
ENDBRANCH   5  21
BRANCH   1  30
HETATM   30  C2  UNL     1      21.675   3.228  51.736  1.00  0.00     0.127 C 
HETATM   31  C1  UNL     1      20.538   4.181  51.415  1.00  0.00     0.027 C 
ENDBRANCH   1  30
TORSDOF 8
ENDMDL
MODEL 9
REMARK VINA RESULT:      -7.9      1.748      2.269
REMARK  8 active torsions:
REMARK  status: ('A' for Active; 'I' for Inactive)
REMARK    1  A    between atoms: C2_2  and  N1_3 
REMARK    2  A    between atoms: C5_7  and  N3_8 
REMARK    3  A    between atoms: N3_8  and  C6_9 
REMARK    4  A    between atoms: C6_9  and  C11_15 
REMARK    5  A    between atoms: C8_11  and  C9_12 
REMARK    6  A    between atoms: C12_17  and  N5_18 
REMARK    7  A    between atoms: N5_18  and  C13_19 
REMARK    8  A    between atoms: C17_23  and  N6_24 
ROOT
HETATM    1  N1  UNL     1      26.428   4.909  49.343  1.00  0.00    -0.324 N 
HETATM    2  C3  UNL     1      25.602   5.966  49.222  1.00  0.00     0.212 A 
HETATM    3  N2  UNL     1      24.528   5.676  50.011  1.00  0.00    -0.236 NA
HETATM    4  C4  UNL     1      24.727   4.465  50.584  1.00  0.00     0.151 A 
HETATM    5  C5  UNL     1      23.897   3.791  51.450  1.00  0.00     0.176 A 
HETATM    6  N4  UNL     1      24.335   2.602  51.874  1.00  0.00    -0.043 NA
HETATM    7  C12 UNL     1      25.509   2.049  51.505  1.00  0.00     0.726 A 
HETATM    8  N7  UNL     1      26.263   2.768  50.656  1.00  0.00    -0.042 NA
HETATM    9  C19 UNL     1      25.940   3.964  50.163  1.00  0.00     0.182 A 
ENDROOT
BRANCH   7  10
HETATM   10  N5  UNL     1      25.909   0.776  51.996  1.00  0.00    -0.218 N 
HETATM   11  H10 UNL     1      25.202   0.009  51.997  1.00  0.00     0.178 HD
BRANCH  10  12
HETATM   12  C13 UNL     1      27.242   0.501  52.489  1.00  0.00     0.101 C 
HETATM   13  C14 UNL     1      27.618   1.331  53.696  1.00  0.00     0.026 C 
HETATM   14  C15 UNL     1      29.049   1.027  54.035  1.00  0.00     0.004 C 
HETATM   15  C16 UNL     1      29.312  -0.433  54.280  1.00  0.00     0.035 C 
HETATM   16  C17 UNL     1      28.861  -1.231  53.066  1.00  0.00     0.220 C 
HETATM   17  C18 UNL     1      27.375  -0.947  52.859  1.00  0.00     0.060 C 
BRANCH  16  18
HETATM   18  N6  UNL     1      29.062  -2.640  53.275  1.00  0.00     0.083 N 
HETATM   19  H19 UNL     1      28.987  -3.197  52.399  1.00  0.00     0.313 HD
HETATM   20  H20 UNL     1      30.008  -2.805  53.711  1.00  0.00     0.313 HD
ENDBRANCH  16  18
ENDBRANCH  10  12
ENDBRANCH   7  10
BRANCH   5  21
HETATM   21  N3  UNL     1      22.634   4.217  51.936  1.00  0.00    -0.358 N 
HETATM   22  H7  UNL     1      22.834   5.217  52.136  1.00  0.00     0.162 HD
BRANCH  21  23
HETATM   23  C6  UNL     1      21.301   3.440  52.125  1.00  0.00     0.074 A 
HETATM   24  C7  UNL     1      19.831   3.821  51.617  1.00  0.00     0.062 A 
HETATM   25  C8  UNL     1      20.058   2.852  52.213  1.00  0.00    -0.038 A 
BRANCH  25  26
HETATM   26  C9  UNL     1      20.288   1.968  52.764  1.00  0.00    -0.039 A 
HETATM   27  C10 UNL     1      20.533   1.000  53.339  1.00  0.00     0.097 A 
HETATM   28 CL1  UNL     1      20.795  -0.653  53.587  1.00  0.00    -0.111 Cl
HETATM   29  C11 UNL     1      20.197   1.009  51.782  1.00  0.00     0.080 A 
ENDBRANCH  25  26
ENDBRANCH  21  23
ENDBRANCH   5  21
BRANCH   1  30
HETATM   30  C2  UNL     1      27.706   4.779  48.673  1.00  0.00     0.127 C 
HETATM   31  C1  UNL     1      28.193   6.113  48.140  1.00  0.00     0.027 C 
ENDBRANCH   1  30
TORSDOF 8
ENDMDL
