MODEL 1
REMARK VINA RESULT:      -8.6      0.000      0.000
REMARK  1 active torsions:
REMARK  status: ('A' for Active; 'I' for Inactive)
REMARK    1  A    between atoms: C13_17  and  N5_18 
ROOT
HETATM    1  C1  UNL     1      21.091   2.200  49.992  1.00  0.00     0.031 C 
HETATM    2  C2  UNL     1      22.387   1.924  50.608  1.00  0.00     0.046 C 
HETATM    3  C3  UNL     1      23.264   2.780  50.037  1.00  0.00     0.041 C 
HETATM    4  C4  UNL     1      24.612   3.352  49.853  1.00  0.00    -0.003 C 
HETATM    5  C5  UNL     1      25.926   3.357  50.186  1.00  0.00     0.086 C 
HETATM    6  N1  UNL     1      26.564   2.522  51.115  1.00  0.00    -0.350 N 
HETATM    7  C6  UNL     1      27.094   2.023  52.313  1.00  0.00     0.141 A 
HETATM    8  N2  UNL     1      28.308   2.430  52.682  1.00  0.00    -0.224 NA
HETATM    9  C7  UNL     1      28.945   2.042  53.793  1.00  0.00     0.236 A 
HETATM   10  N3  UNL     1      28.372   1.176  54.646  1.00  0.00    -0.240 NA
HETATM   11  C8  UNL     1      27.137   0.748  54.293  1.00  0.00     0.089 A 
HETATM   12  C9  UNL     1      26.560  -0.149  55.201  1.00  0.00     0.149 A 
HETATM   13  N4  UNL     1      25.347  -0.686  55.044  1.00  0.00    -0.260 NA
HETATM   14  C10 UNL     1      24.595  -0.387  53.981  1.00  0.00     0.080 A 
HETATM   15  C11 UNL     1      25.269   0.496  53.168  1.00  0.00     0.048 A 
HETATM   16  C12 UNL     1      26.476   1.142  53.153  1.00  0.00     0.042 A 
HETATM   17  C13 UNL     1      23.211  -0.712  53.418  1.00  0.00     0.348 C 
HETATM   18  C14 UNL     1      22.892   0.223  52.409  1.00  0.00    -0.064 C 
HETATM   19  C15 UNL     1      22.655   0.982  51.604  1.00  0.00    -0.092 C 
HETATM   20  H7  UNL     1      26.831   1.729  50.524  1.00  0.00     0.166 HD
ENDROOT
BRANCH  17  21
HETATM   21  N5  UNL     1      22.236  -0.682  54.496  1.00  0.00     0.100 N 
HETATM   22  H12 UNL     1      21.909   0.298  54.610  1.00  0.00     0.315 HD
HETATM   23  H13 UNL     1      21.398  -1.272  54.273  1.00  0.00     0.315 HD
ENDBRANCH  17  21
TORSDOF 1
ENDMDL
MODEL 2
REMARK VINA RESULT:      -8.4      1.701      4.210
REMARK  1 active torsions:
REMARK  status: ('A' for Active; 'I' for Inactive)
REMARK    1  A    between atoms: C13_17  and  N5_18 
ROOT
HETATM    1  C1  UNL     1      20.248  -0.885  53.821  1.00  0.00     0.031 C 
HETATM    2  C2  UNL     1      21.629  -0.410  53.878  1.00  0.00     0.046 C 
HETATM    3  C3  UNL     1      22.248  -1.165  54.813  1.00  0.00     0.041 C 
HETATM    4  C4  UNL     1      23.419  -1.559  55.621  1.00  0.00    -0.003 C 
HETATM    5  C5  UNL     1      24.722  -1.371  55.943  1.00  0.00     0.086 C 
HETATM    6  N1  UNL     1      25.596  -0.416  55.403  1.00  0.00    -0.350 N 
HETATM    7  C6  UNL     1      26.548   0.204  54.582  1.00  0.00     0.141 A 
HETATM    8  N2  UNL     1      27.837  -0.019  54.835  1.00  0.00    -0.224 NA
HETATM    9  C7  UNL     1      28.858   0.502  54.144  1.00  0.00     0.236 A 
HETATM   10  N3  UNL     1      28.635   1.322  53.103  1.00  0.00    -0.240 NA
HETATM   11  C8  UNL     1      27.332   1.563  52.826  1.00  0.00     0.089 A 
HETATM   12  C9  UNL     1      27.127   2.415  51.733  1.00  0.00     0.149 A 
HETATM   13  N4  UNL     1      25.919   2.776  51.290  1.00  0.00    -0.260 NA
HETATM   14  C10 UNL     1      24.808   2.330  51.883  1.00  0.00     0.080 A 
HETATM   15  C11 UNL     1      25.140   1.509  52.937  1.00  0.00     0.048 A 
HETATM   16  C12 UNL     1      26.278   1.031  53.531  1.00  0.00     0.042 A 
HETATM   17  C13 UNL     1      23.291   2.440  51.724  1.00  0.00     0.348 C 
HETATM   18  C14 UNL     1      22.673   1.426  52.487  1.00  0.00    -0.064 C 
HETATM   19  C15 UNL     1      22.196   0.605  53.103  1.00  0.00    -0.092 C 
HETATM   20  H7  UNL     1      25.442   0.378  56.032  1.00  0.00     0.166 HD
ENDROOT
BRANCH  17  21
HETATM   21  N5  UNL     1      22.948   2.329  50.316  1.00  0.00     0.100 N 
HETATM   22  H12 UNL     1      23.640   1.699  49.862  1.00  0.00     0.315 HD
HETATM   23  H13 UNL     1      21.998   1.903  50.183  1.00  0.00     0.315 HD
ENDBRANCH  17  21
TORSDOF 1
ENDMDL
MODEL 3
REMARK VINA RESULT:      -8.2      1.349      4.521
REMARK  1 active torsions:
REMARK  status: ('A' for Active; 'I' for Inactive)
REMARK    1  A    between atoms: C13_17  and  N5_18 
ROOT
HETATM    1  C1  UNL     1      26.792   3.548  49.418  1.00  0.00     0.031 C 
HETATM    2  C2  UNL     1      25.976   2.859  50.416  1.00  0.00     0.046 C 
HETATM    3  C3  UNL     1      24.708   2.891  49.951  1.00  0.00     0.041 C 
HETATM    4  C4  UNL     1      23.264   2.595  50.046  1.00  0.00    -0.003 C 
HETATM    5  C5  UNL     1      22.235   2.053  50.741  1.00  0.00     0.086 C 
HETATM    6  N1  UNL     1      22.301   1.415  51.988  1.00  0.00    -0.350 N 
HETATM    7  C6  UNL     1      22.425   0.423  52.971  1.00  0.00     0.141 A 
HETATM    8  N2  UNL     1      21.343  -0.286  53.289  1.00  0.00    -0.224 NA
HETATM    9  C7  UNL     1      21.304  -1.261  54.205  1.00  0.00     0.236 A 
HETATM   10  N3  UNL     1      22.406  -1.599  54.896  1.00  0.00    -0.240 NA
HETATM   11  C8  UNL     1      23.519  -0.892  54.590  1.00  0.00     0.089 A 
HETATM   12  C9  UNL     1      24.655  -1.268  55.318  1.00  0.00     0.149 A 
HETATM   13  N4  UNL     1      25.855  -0.701  55.167  1.00  0.00    -0.260 NA
HETATM   14  C10 UNL     1      26.043   0.285  54.284  1.00  0.00     0.080 A 
HETATM   15  C11 UNL     1      24.860   0.562  53.638  1.00  0.00     0.048 A 
HETATM   16  C12 UNL     1      23.567   0.110  53.649  1.00  0.00     0.042 A 
HETATM   17  C13 UNL     1      27.178   1.170  53.767  1.00  0.00     0.348 C 
HETATM   18  C14 UNL     1      26.770   1.785  52.563  1.00  0.00    -0.064 C 
HETATM   19  C15 UNL     1      26.426   2.268  51.599  1.00  0.00    -0.092 C 
HETATM   20  H7  UNL     1      22.171   2.204  52.627  1.00  0.00     0.166 HD
ENDROOT
BRANCH  17  21
HETATM   21  N5  UNL     1      28.368   0.358  53.572  1.00  0.00     0.100 N 
HETATM   22  H12 UNL     1      28.067  -0.594  53.282  1.00  0.00     0.315 HD
HETATM   23  H13 UNL     1      28.976   0.744  52.809  1.00  0.00     0.315 HD
ENDBRANCH  17  21
TORSDOF 1
ENDMDL
MODEL 4
REMARK VINA RESULT:      -7.8      1.726      4.225
REMARK  1 active torsions:
REMARK  status: ('A' for Active; 'I' for Inactive)
REMARK    1  A    between atoms: C13_17  and  N5_18 
ROOT
HETATM    1  C1  UNL     1      21.117  -1.669  54.586  1.00  0.00     0.031 C 
HETATM    2  C2  UNL     1      21.954  -0.868  53.695  1.00  0.00     0.046 C 
HETATM    3  C3  UNL     1      21.108  -0.251  52.841  1.00  0.00     0.041 C 
HETATM    4  C4  UNL     1      20.807   0.638  51.701  1.00  0.00    -0.003 C 
HETATM    5  C5  UNL     1      21.255   1.457  50.719  1.00  0.00     0.086 C 
HETATM    6  N1  UNL     1      22.590   1.778  50.431  1.00  0.00    -0.350 N 
HETATM    7  C6  UNL     1      23.833   2.428  50.428  1.00  0.00     0.141 A 
HETATM    8  N2  UNL     1      23.989   3.481  49.627  1.00  0.00    -0.224 NA
HETATM    9  C7  UNL     1      25.112   4.200  49.512  1.00  0.00     0.236 A 
HETATM   10  N3  UNL     1      26.204   3.888  50.231  1.00  0.00    -0.240 NA
HETATM   11  C8  UNL     1      26.069   2.821  51.053  1.00  0.00     0.089 A 
HETATM   12  C9  UNL     1      27.218   2.521  51.796  1.00  0.00     0.149 A 
HETATM   13  N4  UNL     1      27.295   1.512  52.668  1.00  0.00    -0.260 NA
HETATM   14  C10 UNL     1      26.248   0.712  52.887  1.00  0.00     0.080 A 
HETATM   15  C11 UNL     1      25.189   1.106  52.102  1.00  0.00     0.048 A 
HETATM   16  C12 UNL     1      24.918   2.078  51.177  1.00  0.00     0.042 A 
HETATM   17  C13 UNL     1      25.875  -0.486  53.761  1.00  0.00     0.348 C 
HETATM   18  C14 UNL     1      24.472  -0.642  53.755  1.00  0.00    -0.064 C 
HETATM   19  C15 UNL     1      23.345  -0.749  53.738  1.00  0.00    -0.092 C 
HETATM   20  H7  UNL     1      22.840   1.035  49.772  1.00  0.00     0.166 HD
ENDROOT
BRANCH  17  21
HETATM   21  N5  UNL     1      26.378  -0.272  55.108  1.00  0.00     0.100 N 
HETATM   22  H12 UNL     1      27.302  -0.744  55.188  1.00  0.00     0.315 HD
HETATM   23  H13 UNL     1      26.526   0.748  55.306  1.00  0.00     0.315 HD
ENDBRANCH  17  21
TORSDOF 1
ENDMDL
MODEL 5
REMARK VINA RESULT:      -7.4      2.187      4.876
REMARK  1 active torsions:
REMARK  status: ('A' for Active; 'I' for Inactive)
REMARK    1  A    between atoms: C13_17  and  N5_18 
ROOT
HETATM    1  C1  UNL     1      21.679  -1.405  54.515  1.00  0.00     0.031 C 
HETATM    2  C2  UNL     1      22.406  -0.351  53.810  1.00  0.00     0.046 C 
HETATM    3  C3  UNL     1      23.707  -0.716  53.828  1.00  0.00     0.041 C 
HETATM    4  C4  UNL     1      25.135  -0.510  53.513  1.00  0.00    -0.003 C 
HETATM    5  C5  UNL     1      26.101   0.259  52.954  1.00  0.00     0.086 C 
HETATM    6  N1  UNL     1      25.929   1.492  52.309  1.00  0.00    -0.350 N 
HETATM    7  C6  UNL     1      25.716   2.456  51.313  1.00  0.00     0.141 A 
HETATM    8  N2  UNL     1      26.761   2.852  50.587  1.00  0.00    -0.224 NA
HETATM    9  C7  UNL     1      26.717   3.762  49.607  1.00  0.00     0.236 A 
HETATM   10  N3  UNL     1      25.560   4.362  49.279  1.00  0.00    -0.240 NA
HETATM   11  C8  UNL     1      24.483   3.975  50.002  1.00  0.00     0.089 A 
HETATM   12  C9  UNL     1      23.289   4.609  49.636  1.00  0.00     0.149 A 
HETATM   13  N4  UNL     1      22.111   4.368  50.219  1.00  0.00    -0.260 NA
HETATM   14  C10 UNL     1      22.005   3.481  51.213  1.00  0.00     0.080 A 
HETATM   15  C11 UNL     1      23.238   2.931  51.479  1.00  0.00     0.048 A 
HETATM   16  C12 UNL     1      24.521   3.040  51.010  1.00  0.00     0.042 A 
HETATM   17  C13 UNL     1      20.925   2.883  52.116  1.00  0.00     0.348 C 
HETATM   18  C14 UNL     1      21.433   1.719  52.733  1.00  0.00    -0.064 C 
HETATM   19  C15 UNL     1      21.858   0.788  53.217  1.00  0.00    -0.092 C 
HETATM   20  H7  UNL     1      26.018   2.146  53.093  1.00  0.00     0.166 HD
ENDROOT
BRANCH  17  21
HETATM   21  N5  UNL     1      19.745   2.589  51.320  1.00  0.00     0.100 N 
HETATM   22  H12 UNL     1      19.132   3.430  51.325  1.00  0.00     0.315 HD
HETATM   23  H13 UNL     1      19.994   2.386  50.322  1.00  0.00     0.315 HD
ENDBRANCH  17  21
TORSDOF 1
ENDMDL
MODEL 6
REMARK VINA RESULT:      -7.3      2.101      5.205
REMARK  1 active torsions:
REMARK  status: ('A' for Active; 'I' for Inactive)
REMARK    1  A    between atoms: C13_17  and  N5_18 
ROOT
HETATM    1  C1  UNL     1      26.431   3.120  50.039  1.00  0.00     0.031 C 
HETATM    2  C2  UNL     1      25.259   2.592  50.734  1.00  0.00     0.046 C 
HETATM    3  C3  UNL     1      24.183   3.065  50.067  1.00  0.00     0.041 C 
HETATM    4  C4  UNL     1      22.730   3.212  49.850  1.00  0.00    -0.003 C 
HETATM    5  C5  UNL     1      21.464   2.926  50.242  1.00  0.00     0.086 C 
HETATM    6  N1  UNL     1      21.076   2.147  51.342  1.00  0.00    -0.350 N 
HETATM    7  C6  UNL     1      20.705   1.051  52.133  1.00  0.00     0.141 A 
HETATM    8  N2  UNL     1      19.428   0.669  52.119  1.00  0.00    -0.224 NA
HETATM    9  C7  UNL     1      18.924  -0.354  52.819  1.00  0.00     0.236 A 
HETATM   10  N3  UNL     1      19.711  -1.093  53.619  1.00  0.00    -0.240 NA
HETATM   11  C8  UNL     1      21.013  -0.725  53.648  1.00  0.00     0.089 A 
HETATM   12  C9  UNL     1      21.813  -1.516  54.483  1.00  0.00     0.149 A 
HETATM   13  N4  UNL     1      23.125  -1.325  54.652  1.00  0.00    -0.260 NA
HETATM   14  C10 UNL     1      23.764  -0.341  54.013  1.00  0.00     0.080 A 
HETATM   15  C11 UNL     1      22.875   0.360  53.230  1.00  0.00     0.048 A 
HETATM   16  C12 UNL     1      21.539   0.324  52.931  1.00  0.00     0.042 A 
HETATM   17  C13 UNL     1      25.182   0.215  53.875  1.00  0.00     0.348 C 
HETATM   18  C14 UNL     1      25.235   1.070  52.752  1.00  0.00    -0.064 C 
HETATM   19  C15 UNL     1      25.257   1.750  51.848  1.00  0.00    -0.092 C 
HETATM   20  H7  UNL     1      21.027   2.853  52.083  1.00  0.00     0.166 HD
ENDROOT
BRANCH  17  21
HETATM   21  N5  UNL     1      26.119  -0.888  53.746  1.00  0.00     0.100 N 
HETATM   22  H12 UNL     1      25.746  -1.550  53.036  1.00  0.00     0.315 HD
HETATM   23  H13 UNL     1      27.057  -0.560  53.409  1.00  0.00     0.315 HD
ENDBRANCH  17  21
TORSDOF 1
ENDMDL
MODEL 7
REMARK VINA RESULT:      -7.0      2.036      4.455
REMARK  1 active torsions:
REMARK  status: ('A' for Active; 'I' for Inactive)
REMARK    1  A    between atoms: C13_17  and  N5_18 
ROOT
HETATM    1  C1  UNL     1      18.923   3.121  51.700  1.00  0.00     0.031 C 
HETATM    2  C2  UNL     1      20.277   2.660  51.999  1.00  0.00     0.046 C 
HETATM    3  C3  UNL     1      20.137   1.508  52.691  1.00  0.00     0.041 C 
HETATM    4  C4  UNL     1      20.667   0.335  53.414  1.00  0.00    -0.003 C 
HETATM    5  C5  UNL     1      21.738  -0.360  53.869  1.00  0.00     0.086 C 
HETATM    6  N1  UNL     1      23.091  -0.021  53.718  1.00  0.00    -0.350 N 
HETATM    7  C6  UNL     1      24.391   0.072  53.202  1.00  0.00     0.141 A 
HETATM    8  N2  UNL     1      25.243  -0.919  53.461  1.00  0.00    -0.224 NA
HETATM    9  C7  UNL     1      26.512  -0.972  53.041  1.00  0.00     0.236 A 
HETATM   10  N3  UNL     1      27.032   0.019  52.297  1.00  0.00    -0.240 NA
HETATM   11  C8  UNL     1      26.184   1.038  52.019  1.00  0.00     0.089 A 
HETATM   12  C9  UNL     1      26.747   2.054  51.237  1.00  0.00     0.149 A 
HETATM   13  N4  UNL     1      26.081   3.145  50.846  1.00  0.00    -0.260 NA
HETATM   14  C10 UNL     1      24.804   3.330  51.191  1.00  0.00     0.080 A 
HETATM   15  C11 UNL     1      24.369   2.271  51.954  1.00  0.00     0.048 A 
HETATM   16  C12 UNL     1      24.879   1.099  52.446  1.00  0.00     0.042 A 
HETATM   17  C13 UNL     1      23.685   4.348  50.968  1.00  0.00     0.348 C 
HETATM   18  C14 UNL     1      22.451   3.764  51.329  1.00  0.00    -0.064 C 
HETATM   19  C15 UNL     1      21.472   3.278  51.622  1.00  0.00    -0.092 C 
HETATM   20  H7  UNL     1      23.250   0.553  54.552  1.00  0.00     0.166 HD
ENDROOT
BRANCH  17  21
HETATM   21  N5  UNL     1      23.686   4.766  49.576  1.00  0.00     0.100 N 
HETATM   22  H12 UNL     1      23.355   5.750  49.531  1.00  0.00     0.315 HD
HETATM   23  H13 UNL     1      24.652   4.739  49.167  1.00  0.00     0.315 HD
ENDBRANCH  17  21
TORSDOF 1
ENDMDL
MODEL 8
REMARK VINA RESULT:      -6.8      2.168      3.747
REMARK  1 active torsions:
REMARK  status: ('A' for Active; 'I' for Inactive)
REMARK    1  A    between atoms: C13_17  and  N5_18 
ROOT
HETATM    1  C1  UNL     1      17.729  -0.066  51.746  1.00  0.00     0.031 C 
HETATM    2  C2  UNL     1      19.120   0.310  51.502  1.00  0.00     0.046 C 
HETATM    3  C3  UNL     1      19.105   1.123  50.422  1.00  0.00     0.041 C 
HETATM    4  C4  UNL     1      19.758   1.971  49.405  1.00  0.00    -0.003 C 
HETATM    5  C5  UNL     1      20.897   2.495  48.890  1.00  0.00     0.086 C 
HETATM    6  N1  UNL     1      22.205   2.292  49.353  1.00  0.00    -0.350 N 
HETATM    7  C6  UNL     1      23.409   2.449  50.053  1.00  0.00     0.141 A 
HETATM    8  N2  UNL     1      24.306   3.311  49.576  1.00  0.00    -0.224 NA
HETATM    9  C7  UNL     1      25.498   3.567  50.130  1.00  0.00     0.236 A 
HETATM   10  N3  UNL     1      25.881   2.939  51.254  1.00  0.00    -0.240 NA
HETATM   11  C8  UNL     1      24.986   2.059  51.759  1.00  0.00     0.089 A 
HETATM   12  C9  UNL     1      25.406   1.423  52.934  1.00  0.00     0.149 A 
HETATM   13  N4  UNL     1      24.672   0.524  53.596  1.00  0.00    -0.260 NA
HETATM   14  C10 UNL     1      23.459   0.173  53.159  1.00  0.00     0.080 A 
HETATM   15  C11 UNL     1      23.163   0.860  52.004  1.00  0.00     0.048 A 
HETATM   16  C12 UNL     1      23.760   1.791  51.196  1.00  0.00     0.042 A 
HETATM   17  C13 UNL     1      22.304  -0.740  53.572  1.00  0.00     0.348 C 
HETATM   18  C14 UNL     1      21.149  -0.380  52.844  1.00  0.00    -0.064 C 
HETATM   19  C15 UNL     1      20.234  -0.076  52.251  1.00  0.00    -0.092 C 
HETATM   20  H7  UNL     1      22.481   1.460  48.822  1.00  0.00     0.166 HD
ENDROOT
BRANCH  17  21
HETATM   21  N5  UNL     1      22.086  -0.618  55.005  1.00  0.00     0.100 N 
HETATM   22  H12 UNL     1      21.457   0.193  55.170  1.00  0.00     0.315 HD
HETATM   23  H13 UNL     1      21.615  -1.470  55.396  1.00  0.00     0.315 HD
ENDBRANCH  17  21
TORSDOF 1
ENDMDL
MODEL 9
REMARK VINA RESULT:      -6.8      2.719      6.081
REMARK  1 active torsions:
REMARK  status: ('A' for Active; 'I' for Inactive)
REMARK    1  A    between atoms: C13_17  and  N5_18 
ROOT
HETATM    1  C1  UNL     1      23.459   3.267  48.643  1.00  0.00     0.031 C 
HETATM    2  C2  UNL     1      22.630   2.559  49.616  1.00  0.00     0.046 C 
HETATM    3  C3  UNL     1      21.377   2.555  49.109  1.00  0.00     0.041 C 
HETATM    4  C4  UNL     1      19.940   2.220  49.158  1.00  0.00    -0.003 C 
HETATM    5  C5  UNL     1      18.903   1.652  49.820  1.00  0.00     0.086 C 
HETATM    6  N1  UNL     1      18.946   1.019  51.071  1.00  0.00    -0.350 N 
HETATM    7  C6  UNL     1      19.064   0.034  52.062  1.00  0.00     0.141 A 
HETATM    8  N2  UNL     1      17.992  -0.705  52.346  1.00  0.00    -0.224 NA
HETATM    9  C7  UNL     1      17.949  -1.677  53.264  1.00  0.00     0.236 A 
HETATM   10  N3  UNL     1      19.037  -1.983  53.991  1.00  0.00    -0.240 NA
HETATM   11  C8  UNL     1      20.140  -1.247  53.720  1.00  0.00     0.089 A 
HETATM   12  C9  UNL     1      21.261  -1.590  54.486  1.00  0.00     0.149 A 
HETATM   13  N4  UNL     1      22.450  -0.991  54.372  1.00  0.00    -0.260 NA
HETATM   14  C10 UNL     1      22.639  -0.003  53.493  1.00  0.00     0.080 A 
HETATM   15  C11 UNL     1      21.471   0.240  52.807  1.00  0.00     0.048 A 
HETATM   16  C12 UNL     1      20.192  -0.247  52.778  1.00  0.00     0.042 A 
HETATM   17  C13 UNL     1      23.766   0.912  53.010  1.00  0.00     0.348 C 
HETATM   18  C14 UNL     1      23.382   1.513  51.792  1.00  0.00    -0.064 C 
HETATM   19  C15 UNL     1      23.057   1.983  50.815  1.00  0.00    -0.092 C 
HETATM   20  H7  UNL     1      18.773   1.806  51.703  1.00  0.00     0.166 HD
ENDROOT
BRANCH  17  21
HETATM   21  N5  UNL     1      24.983   0.132  52.857  1.00  0.00     0.100 N 
HETATM   22  H12 UNL     1      25.598   0.325  53.673  1.00  0.00     0.315 HD
HETATM   23  H13 UNL     1      24.783  -0.897  52.849  1.00  0.00     0.315 HD
ENDBRANCH  17  21
TORSDOF 1
ENDMDL
