MODEL 1
REMARK VINA RESULT:      -7.4      0.000      0.000
REMARK  8 active torsions:
REMARK  status: ('A' for Active; 'I' for Inactive)
REMARK    1  A    between atoms: C3_3  and  C4_4 
REMARK    2  A    between atoms: C3_3  and  O4_21 
REMARK    3  A    between atoms: C5_5  and  N1_6 
REMARK    4  A    between atoms: N1_6  and  C6_7 
REMARK    5  A    between atoms: C7_8  and  O1_9 
REMARK    6  A    between atoms: C9_12  and  O2_13 
REMARK    7  A    between atoms: C12_16  and  C13_17 
REMARK    8  A    between atoms: C13_17  and  O3_18 
ROOT
HETATM    1  C6  UNL     1      23.133  -0.547  53.713  1.00  0.00     0.194 A 
HETATM    2  C7  UNL     1      23.504  -1.312  54.931  1.00  0.00     0.166 A 
HETATM    3  N2  UNL     1      24.759  -1.162  55.188  1.00  0.00    -0.223 NA
HETATM    4  C8  UNL     1      25.371  -0.312  54.222  1.00  0.00     0.101 A 
HETATM    5  C9  UNL     1      26.660   0.172  54.025  1.00  0.00     0.098 A 
HETATM    6  C11 UNL     1      26.933   1.012  52.943  1.00  0.00     0.048 A 
HETATM    7  C12 UNL     1      25.944   1.381  52.054  1.00  0.00    -0.031 A 
HETATM    8  C14 UNL     1      24.663   0.915  52.231  1.00  0.00     0.021 A 
HETATM    9  C15 UNL     1      24.411   0.085  53.303  1.00  0.00     0.005 A 
ENDROOT
BRANCH   1  10
HETATM   10  N1  UNL     1      22.168   0.473  54.153  1.00  0.00    -0.383 N 
HETATM   11  H7  UNL     1      22.535   1.280  54.714  1.00  0.00     0.160 HD
BRANCH  10  12
HETATM   12  C5  UNL     1      20.809   0.283  53.780  1.00  0.00     0.086 C 
HETATM   13  C4  UNL     1      20.225  -0.192  52.699  1.00  0.00     0.053 C 
BRANCH  13  14
HETATM   14  C3  UNL     1      18.777  -0.298  52.528  1.00  0.00     0.065 C 
HETATM   15  C2  UNL     1      18.287   0.237  51.439  1.00  0.00     0.006 C 
HETATM   16  C1  UNL     1      19.255   0.878  50.524  1.00  0.00     0.038 C 
BRANCH  14  17
HETATM   17  O4  UNL     1      18.091  -0.955  53.540  1.00  0.00    -0.356 OA
HETATM   18  C16 UNL     1      17.848  -2.330  53.590  1.00  0.00     0.210 C 
ENDBRANCH  14  17
ENDBRANCH  13  14
ENDBRANCH  10  12
ENDBRANCH   1  10
BRANCH   2  19
HETATM   19  O1  UNL     1      22.703  -2.103  55.743  1.00  0.00    -0.346 OA
HETATM   20  H9  UNL     1      22.150  -1.648  56.465  1.00  0.00     0.219 HD
ENDBRANCH   2  19
BRANCH   5  21
HETATM   21  O2  UNL     1      27.637  -0.213  54.933  1.00  0.00    -0.354 OA
HETATM   22  C10 UNL     1      29.001   0.035  54.615  1.00  0.00     0.210 C 
ENDBRANCH   5  21
BRANCH   7  23
HETATM   23  C13 UNL     1      26.214   2.279  50.892  1.00  0.00     0.203 C 
BRANCH  23  24
HETATM   24  O3  UNL     1      27.161   3.231  51.224  1.00  0.00    -0.396 OA
HETATM   25  H16 UNL     1      27.899   3.127  50.548  1.00  0.00     0.209 HD
ENDBRANCH  23  24
ENDBRANCH   7  23
TORSDOF 8
ENDMDL
MODEL 2
REMARK VINA RESULT:      -7.4      0.677      1.558
REMARK  8 active torsions:
REMARK  status: ('A' for Active; 'I' for Inactive)
REMARK    1  A    between atoms: C3_3  and  C4_4 
REMARK    2  A    between atoms: C3_3  and  O4_21 
REMARK    3  A    between atoms: C5_5  and  N1_6 
REMARK    4  A    between atoms: N1_6  and  C6_7 
REMARK    5  A    between atoms: C7_8  and  O1_9 
REMARK    6  A    between atoms: C9_12  and  O2_13 
REMARK    7  A    between atoms: C12_16  and  C13_17 
REMARK    8  A    between atoms: C13_17  and  O3_18 
ROOT
HETATM    1  C6  UNL     1      23.146  -0.532  53.658  1.00  0.00     0.194 A 
HETATM    2  C7  UNL     1      23.482  -1.278  54.899  1.00  0.00     0.166 A 
HETATM    3  N2  UNL     1      24.732  -1.133  55.182  1.00  0.00    -0.223 NA
HETATM    4  C8  UNL     1      25.375  -0.308  54.214  1.00  0.00     0.101 A 
HETATM    5  C9  UNL     1      26.672   0.161  54.038  1.00  0.00     0.098 A 
HETATM    6  C11 UNL     1      26.977   0.979  52.948  1.00  0.00     0.048 A 
HETATM    7  C12 UNL     1      26.012   1.339  52.029  1.00  0.00    -0.031 A 
HETATM    8  C14 UNL     1      24.724   0.888  52.185  1.00  0.00     0.021 A 
HETATM    9  C15 UNL     1      24.439   0.081  53.266  1.00  0.00     0.005 A 
ENDROOT
BRANCH   1  10
HETATM   10  N1  UNL     1      22.181   0.504  54.057  1.00  0.00    -0.383 N 
HETATM   11  H7  UNL     1      22.492   1.210  54.767  1.00  0.00     0.160 HD
BRANCH  10  12
HETATM   12  C5  UNL     1      20.898   0.465  53.443  1.00  0.00     0.086 C 
HETATM   13  C4  UNL     1      20.041  -0.506  53.199  1.00  0.00     0.053 C 
BRANCH  13  14
HETATM   14  C3  UNL     1      18.750  -0.313  52.541  1.00  0.00     0.065 C 
HETATM   15  C2  UNL     1      17.833  -1.209  52.803  1.00  0.00     0.006 C 
HETATM   16  C1  UNL     1      18.217  -2.297  53.727  1.00  0.00     0.038 C 
BRANCH  14  17
HETATM   17  O4  UNL     1      18.647   0.799  51.716  1.00  0.00    -0.356 OA
HETATM   18  C16 UNL     1      18.409   0.763  50.340  1.00  0.00     0.210 C 
ENDBRANCH  14  17
ENDBRANCH  13  14
ENDBRANCH  10  12
ENDBRANCH   1  10
BRANCH   2  19
HETATM   19  O1  UNL     1      22.656  -2.046  55.706  1.00  0.00    -0.346 OA
HETATM   20  H9  UNL     1      21.654  -1.874  55.674  1.00  0.00     0.219 HD
ENDBRANCH   2  19
BRANCH   5  21
HETATM   21  O2  UNL     1      27.624  -0.214  54.975  1.00  0.00    -0.354 OA
HETATM   22  C10 UNL     1      28.998  -0.162  54.612  1.00  0.00     0.210 C 
ENDBRANCH   5  21
BRANCH   7  23
HETATM   23  C13 UNL     1      26.317   2.213  50.857  1.00  0.00     0.203 C 
BRANCH  23  24
HETATM   24  O3  UNL     1      27.201   3.215  51.215  1.00  0.00    -0.396 OA
HETATM   25  H16 UNL     1      27.109   3.923  50.506  1.00  0.00     0.209 HD
ENDBRANCH  23  24
ENDBRANCH   7  23
TORSDOF 8
ENDMDL
MODEL 3
REMARK VINA RESULT:      -7.2      2.399      7.499
REMARK  8 active torsions:
REMARK  status: ('A' for Active; 'I' for Inactive)
REMARK    1  A    between atoms: C3_3  and  C4_4 
REMARK    2  A    between atoms: C3_3  and  O4_21 
REMARK    3  A    between atoms: C5_5  and  N1_6 
REMARK    4  A    between atoms: N1_6  and  C6_7 
REMARK    5  A    between atoms: C7_8  and  O1_9 
REMARK    6  A    between atoms: C9_12  and  O2_13 
REMARK    7  A    between atoms: C12_16  and  C13_17 
REMARK    8  A    between atoms: C13_17  and  O3_18 
ROOT
HETATM    1  C6  UNL     1      24.202   2.554  52.355  1.00  0.00     0.194 A 
HETATM    2  C7  UNL     1      23.705   3.859  51.849  1.00  0.00     0.166 A 
HETATM    3  N2  UNL     1      22.417   3.901  51.909  1.00  0.00    -0.223 NA
HETATM    4  C8  UNL     1      21.899   2.684  52.440  1.00  0.00     0.101 A 
HETATM    5  C9  UNL     1      20.623   2.204  52.715  1.00  0.00     0.098 A 
HETATM    6  C11 UNL     1      20.459   0.925  53.251  1.00  0.00     0.048 A 
HETATM    7  C12 UNL     1      21.544   0.114  53.518  1.00  0.00    -0.031 A 
HETATM    8  C14 UNL     1      22.814   0.570  53.255  1.00  0.00     0.021 A 
HETATM    9  C15 UNL     1      22.958   1.835  52.726  1.00  0.00     0.005 A 
ENDROOT
BRANCH   1  10
HETATM   10  N1  UNL     1      25.000   2.860  53.551  1.00  0.00    -0.383 N 
HETATM   11  H7  UNL     1      24.638   3.598  54.202  1.00  0.00     0.160 HD
BRANCH  10  12
HETATM   12  C5  UNL     1      26.206   2.127  53.731  1.00  0.00     0.086 C 
HETATM   13  C4  UNL     1      26.465   0.867  54.017  1.00  0.00     0.053 C 
BRANCH  13  14
HETATM   14  C3  UNL     1      27.812   0.318  54.157  1.00  0.00     0.065 C 
HETATM   15  C2  UNL     1      28.060  -0.775  53.482  1.00  0.00     0.006 C 
HETATM   16  C1  UNL     1      26.950  -1.314  52.666  1.00  0.00     0.038 C 
BRANCH  14  17
HETATM   17  O4  UNL     1      28.673   1.021  54.990  1.00  0.00    -0.356 OA
HETATM   18  C16 UNL     1      29.596   1.981  54.571  1.00  0.00     0.210 C 
ENDBRANCH  14  17
ENDBRANCH  13  14
ENDBRANCH  10  12
ENDBRANCH   1  10
BRANCH   2  19
HETATM   19  O1  UNL     1      24.428   4.939  51.361  1.00  0.00    -0.346 OA
HETATM   20  H9  UNL     1      25.390   5.054  51.669  1.00  0.00     0.219 HD
ENDBRANCH   2  19
BRANCH   5  21
HETATM   21  O2  UNL     1      19.549   3.037  52.438  1.00  0.00    -0.354 OA
HETATM   22  C10 UNL     1      18.722   2.738  51.321  1.00  0.00     0.210 C 
ENDBRANCH   5  21
BRANCH   7  23
HETATM   23  C13 UNL     1      21.391  -1.256  54.091  1.00  0.00     0.203 C 
BRANCH  23  24
HETATM   24  O3  UNL     1      22.131  -1.382  55.254  1.00  0.00    -0.396 OA
HETATM   25  H16 UNL     1      21.463  -1.582  55.980  1.00  0.00     0.209 HD
ENDBRANCH  23  24
ENDBRANCH   7  23
TORSDOF 8
ENDMDL
MODEL 4
REMARK VINA RESULT:      -6.8      3.285      7.371
REMARK  8 active torsions:
REMARK  status: ('A' for Active; 'I' for Inactive)
REMARK    1  A    between atoms: C3_3  and  C4_4 
REMARK    2  A    between atoms: C3_3  and  O4_21 
REMARK    3  A    between atoms: C5_5  and  N1_6 
REMARK    4  A    between atoms: N1_6  and  C6_7 
REMARK    5  A    between atoms: C7_8  and  O1_9 
REMARK    6  A    between atoms: C9_12  and  O2_13 
REMARK    7  A    between atoms: C12_16  and  C13_17 
REMARK    8  A    between atoms: C13_17  and  O3_18 
ROOT
HETATM    1  C6  UNL     1      25.070   2.653  51.932  1.00  0.00     0.194 A 
HETATM    2  C7  UNL     1      25.557   2.144  53.240  1.00  0.00     0.166 A 
HETATM    3  N2  UNL     1      24.770   1.222  53.681  1.00  0.00    -0.223 NA
HETATM    4  C8  UNL     1      23.698   0.997  52.770  1.00  0.00     0.101 A 
HETATM    5  C9  UNL     1      22.599   0.145  52.746  1.00  0.00     0.098 A 
HETATM    6  C11 UNL     1      21.712   0.179  51.668  1.00  0.00     0.048 A 
HETATM    7  C12 UNL     1      21.899   1.048  50.612  1.00  0.00    -0.031 A 
HETATM    8  C14 UNL     1      22.979   1.898  50.615  1.00  0.00     0.021 A 
HETATM    9  C15 UNL     1      23.845   1.852  51.687  1.00  0.00     0.005 A 
ENDROOT
BRANCH   1  10
HETATM   10  N1  UNL     1      26.114   2.316  50.952  1.00  0.00    -0.383 N 
HETATM   11  H7  UNL     1      26.327   1.301  50.798  1.00  0.00     0.160 HD
BRANCH  10  12
HETATM   12  C5  UNL     1      26.753   3.400  50.288  1.00  0.00     0.086 C 
HETATM   13  C4  UNL     1      26.474   4.084  49.197  1.00  0.00     0.053 C 
BRANCH  13  14
HETATM   14  C3  UNL     1      27.291   5.184  48.688  1.00  0.00     0.065 C 
HETATM   15  C2  UNL     1      26.661   6.309  48.458  1.00  0.00     0.006 C 
HETATM   16  C1  UNL     1      25.210   6.323  48.742  1.00  0.00     0.038 C 
BRANCH  14  17
HETATM   17  O4  UNL     1      28.639   4.909  48.507  1.00  0.00    -0.356 OA
HETATM   18  C16 UNL     1      29.635   5.863  48.284  1.00  0.00     0.210 C 
ENDBRANCH  14  17
ENDBRANCH  13  14
ENDBRANCH  10  12
ENDBRANCH   1  10
BRANCH   2  19
HETATM   19  O1  UNL     1      26.674   2.532  53.966  1.00  0.00    -0.346 OA
HETATM   20  H9  UNL     1      27.528   1.989  53.864  1.00  0.00     0.219 HD
ENDBRANCH   2  19
BRANCH   5  21
HETATM   21  O2  UNL     1      22.433  -0.719  53.819  1.00  0.00    -0.354 OA
HETATM   22  C10 UNL     1      21.339  -0.508  54.703  1.00  0.00     0.210 C 
ENDBRANCH   5  21
BRANCH   7  23
HETATM   23  C13 UNL     1      20.964   1.101  49.450  1.00  0.00     0.203 C 
BRANCH  23  24
HETATM   24  O3  UNL     1      21.663   1.012  48.258  1.00  0.00    -0.396 OA
HETATM   25  H16 UNL     1      22.176   1.874  48.181  1.00  0.00     0.209 HD
ENDBRANCH  23  24
ENDBRANCH   7  23
TORSDOF 8
ENDMDL
MODEL 5
REMARK VINA RESULT:      -6.8      2.439      6.750
REMARK  8 active torsions:
REMARK  status: ('A' for Active; 'I' for Inactive)
REMARK    1  A    between atoms: C3_3  and  C4_4 
REMARK    2  A    between atoms: C3_3  and  O4_21 
REMARK    3  A    between atoms: C5_5  and  N1_6 
REMARK    4  A    between atoms: N1_6  and  C6_7 
REMARK    5  A    between atoms: C7_8  and  O1_9 
REMARK    6  A    between atoms: C9_12  and  O2_13 
REMARK    7  A    between atoms: C12_16  and  C13_17 
REMARK    8  A    between atoms: C13_17  and  O3_18 
ROOT
HETATM    1  C6  UNL     1      23.970   0.388  53.446  1.00  0.00     0.194 A 
HETATM    2  C7  UNL     1      22.692  -0.364  53.348  1.00  0.00     0.166 A 
HETATM    3  N2  UNL     1      22.051  -0.018  52.283  1.00  0.00    -0.223 NA
HETATM    4  C8  UNL     1      22.779   0.967  51.555  1.00  0.00     0.101 A 
HETATM    5  C9  UNL     1      22.562   1.667  50.373  1.00  0.00     0.098 A 
HETATM    6  C11 UNL     1      23.507   2.592  49.926  1.00  0.00     0.048 A 
HETATM    7  C12 UNL     1      24.667   2.834  50.635  1.00  0.00    -0.031 A 
HETATM    8  C14 UNL     1      24.901   2.153  51.805  1.00  0.00     0.021 A 
HETATM    9  C15 UNL     1      23.958   1.243  52.233  1.00  0.00     0.005 A 
ENDROOT
BRANCH   1  10
HETATM   10  N1  UNL     1      25.040  -0.617  53.361  1.00  0.00    -0.383 N 
HETATM   11  H7  UNL     1      24.757  -1.617  53.214  1.00  0.00     0.160 HD
BRANCH  10  12
HETATM   12  C5  UNL     1      26.378  -0.152  53.487  1.00  0.00     0.086 C 
HETATM   13  C4  UNL     1      27.431  -0.591  54.147  1.00  0.00     0.053 C 
BRANCH  13  14
HETATM   14  C3  UNL     1      28.738   0.062  54.132  1.00  0.00     0.065 C 
HETATM   15  C2  UNL     1      29.740  -0.670  53.714  1.00  0.00     0.006 C 
HETATM   16  C1  UNL     1      29.423  -2.057  53.313  1.00  0.00     0.038 C 
BRANCH  14  17
HETATM   17  O4  UNL     1      28.766   1.381  54.562  1.00  0.00    -0.356 OA
HETATM   18  C16 UNL     1      28.859   2.499  53.730  1.00  0.00     0.210 C 
ENDBRANCH  14  17
ENDBRANCH  13  14
ENDBRANCH  10  12
ENDBRANCH   1  10
BRANCH   2  19
HETATM   19  O1  UNL     1      22.170  -1.314  54.214  1.00  0.00    -0.346 OA
HETATM   20  H9  UNL     1      22.818  -1.901  54.734  1.00  0.00     0.219 HD
ENDBRANCH   2  19
BRANCH   5  21
HETATM   21  O2  UNL     1      21.389   1.406  49.678  1.00  0.00    -0.354 OA
HETATM   22  C10 UNL     1      21.265   1.882  48.345  1.00  0.00     0.210 C 
ENDBRANCH   5  21
BRANCH   7  23
HETATM   23  C13 UNL     1      25.690   3.818  50.173  1.00  0.00     0.203 C 
BRANCH  23  24
HETATM   24  O3  UNL     1      26.911   3.567  50.774  1.00  0.00    -0.396 OA
HETATM   25  H16 UNL     1      27.570   3.471  50.020  1.00  0.00     0.209 HD
ENDBRANCH  23  24
ENDBRANCH   7  23
TORSDOF 8
ENDMDL
MODEL 6
REMARK VINA RESULT:      -6.7      2.367      4.551
REMARK  8 active torsions:
REMARK  status: ('A' for Active; 'I' for Inactive)
REMARK    1  A    between atoms: C3_3  and  C4_4 
REMARK    2  A    between atoms: C3_3  and  O4_21 
REMARK    3  A    between atoms: C5_5  and  N1_6 
REMARK    4  A    between atoms: N1_6  and  C6_7 
REMARK    5  A    between atoms: C7_8  and  O1_9 
REMARK    6  A    between atoms: C9_12  and  O2_13 
REMARK    7  A    between atoms: C12_16  and  C13_17 
REMARK    8  A    between atoms: C13_17  and  O3_18 
ROOT
HETATM    1  C6  UNL     1      24.923   2.432  51.787  1.00  0.00     0.194 A 
HETATM    2  C7  UNL     1      26.377   2.596  51.526  1.00  0.00     0.166 A 
HETATM    3  N2  UNL     1      27.048   1.692  52.155  1.00  0.00    -0.223 NA
HETATM    4  C8  UNL     1      26.175   0.837  52.889  1.00  0.00     0.101 A 
HETATM    5  C9  UNL     1      26.356  -0.267  53.714  1.00  0.00     0.098 A 
HETATM    6  C11 UNL     1      25.252  -0.893  54.296  1.00  0.00     0.048 A 
HETATM    7  C12 UNL     1      23.968  -0.440  54.069  1.00  0.00    -0.031 A 
HETATM    8  C14 UNL     1      23.766   0.649  53.255  1.00  0.00     0.021 A 
HETATM    9  C15 UNL     1      24.867   1.256  52.690  1.00  0.00     0.005 A 
ENDROOT
BRANCH   1  10
HETATM   10  N1  UNL     1      24.311   2.117  50.487  1.00  0.00    -0.383 N 
HETATM   11  H7  UNL     1      24.944   1.788  49.718  1.00  0.00     0.160 HD
BRANCH  10  12
HETATM   12  C5  UNL     1      22.903   2.285  50.376  1.00  0.00     0.086 C 
HETATM   13  C4  UNL     1      21.912   1.460  50.104  1.00  0.00     0.053 C 
BRANCH  13  14
HETATM   14  C3  UNL     1      20.507   1.858  50.041  1.00  0.00     0.065 C 
HETATM   15  C2  UNL     1      19.695   1.227  50.851  1.00  0.00     0.006 C 
HETATM   16  C1  UNL     1      20.299   0.196  51.722  1.00  0.00     0.038 C 
BRANCH  14  17
HETATM   17  O4  UNL     1      20.197   2.859  49.131  1.00  0.00    -0.356 OA
HETATM   18  C16 UNL     1      20.290   2.745  47.742  1.00  0.00     0.210 C 
ENDBRANCH  14  17
ENDBRANCH  13  14
ENDBRANCH  10  12
ENDBRANCH   1  10
BRANCH   2  19
HETATM   19  O1  UNL     1      27.022   3.543  50.743  1.00  0.00    -0.346 OA
HETATM   20  H9  UNL     1      27.522   3.226  49.916  1.00  0.00     0.219 HD
ENDBRANCH   2  19
BRANCH   5  21
HETATM   21  O2  UNL     1      27.656  -0.704  53.927  1.00  0.00    -0.354 OA
HETATM   22  C10 UNL     1      28.466  -0.010  54.867  1.00  0.00     0.210 C 
ENDBRANCH   5  21
BRANCH   7  23
HETATM   23  C13 UNL     1      22.774  -1.095  54.680  1.00  0.00     0.203 C 
BRANCH  23  24
HETATM   24  O3  UNL     1      23.122  -1.747  55.850  1.00  0.00    -0.396 OA
HETATM   25  H16 UNL     1      22.293  -1.745  56.419  1.00  0.00     0.209 HD
ENDBRANCH  23  24
ENDBRANCH   7  23
TORSDOF 8
ENDMDL
MODEL 7
REMARK VINA RESULT:      -6.5      3.340      6.605
REMARK  8 active torsions:
REMARK  status: ('A' for Active; 'I' for Inactive)
REMARK    1  A    between atoms: C3_3  and  C4_4 
REMARK    2  A    between atoms: C3_3  and  O4_21 
REMARK    3  A    between atoms: C5_5  and  N1_6 
REMARK    4  A    between atoms: N1_6  and  C6_7 
REMARK    5  A    between atoms: C7_8  and  O1_9 
REMARK    6  A    between atoms: C9_12  and  O2_13 
REMARK    7  A    between atoms: C12_16  and  C13_17 
REMARK    8  A    between atoms: C13_17  and  O3_18 
ROOT
HETATM    1  C6  UNL     1      24.845   2.705  51.790  1.00  0.00     0.194 A 
HETATM    2  C7  UNL     1      26.305   2.481  51.624  1.00  0.00     0.166 A 
HETATM    3  N2  UNL     1      26.648   1.359  52.160  1.00  0.00    -0.223 NA
HETATM    4  C8  UNL     1      25.516   0.707  52.729  1.00  0.00     0.101 A 
HETATM    5  C9  UNL     1      25.318  -0.491  53.409  1.00  0.00     0.098 A 
HETATM    6  C11 UNL     1      24.040  -0.842  53.847  1.00  0.00     0.048 A 
HETATM    7  C12 UNL     1      22.952  -0.022  53.620  1.00  0.00    -0.031 A 
HETATM    8  C14 UNL     1      23.125   1.165  52.949  1.00  0.00     0.021 A 
HETATM    9  C15 UNL     1      24.394   1.497  52.524  1.00  0.00     0.005 A 
ENDROOT
BRANCH   1  10
HETATM   10  N1  UNL     1      24.282   2.726  50.431  1.00  0.00    -0.383 N 
HETATM   11  H7  UNL     1      24.060   1.804  49.983  1.00  0.00     0.160 HD
BRANCH  10  12
HETATM   12  C5  UNL     1      24.082   4.000  49.832  1.00  0.00     0.086 C 
HETATM   13  C4  UNL     1      24.865   4.814  49.152  1.00  0.00     0.053 C 
BRANCH  13  14
HETATM   14  C3  UNL     1      24.439   6.106  48.618  1.00  0.00     0.065 C 
HETATM   15  C2  UNL     1      25.396   6.923  48.259  1.00  0.00     0.006 C 
HETATM   16  C1  UNL     1      26.781   6.437  48.439  1.00  0.00     0.038 C 
BRANCH  14  17
HETATM   17  O4  UNL     1      23.068   6.316  48.552  1.00  0.00    -0.356 OA
HETATM   18  C16 UNL     1      22.452   7.520  48.205  1.00  0.00     0.210 C 
ENDBRANCH  14  17
ENDBRANCH  13  14
ENDBRANCH  10  12
ENDBRANCH   1  10
BRANCH   2  19
HETATM   19  O1  UNL     1      27.248   3.291  51.007  1.00  0.00    -0.346 OA
HETATM   20  H9  UNL     1      26.920   4.082  50.459  1.00  0.00     0.219 HD
ENDBRANCH   2  19
BRANCH   5  21
HETATM   21  O2  UNL     1      26.426  -1.298  53.625  1.00  0.00    -0.354 OA
HETATM   22  C10 UNL     1      26.890  -2.120  52.562  1.00  0.00     0.210 C 
ENDBRANCH   5  21
BRANCH   7  23
HETATM   23  C13 UNL     1      21.577  -0.380  54.078  1.00  0.00     0.203 C 
BRANCH  23  24
HETATM   24  O3  UNL     1      21.630  -1.359  55.055  1.00  0.00    -0.396 OA
HETATM   25  H16 UNL     1      20.781  -1.888  54.955  1.00  0.00     0.209 HD
ENDBRANCH  23  24
ENDBRANCH   7  23
TORSDOF 8
ENDMDL
MODEL 8
REMARK VINA RESULT:      -6.5      3.064      7.508
REMARK  8 active torsions:
REMARK  status: ('A' for Active; 'I' for Inactive)
REMARK    1  A    between atoms: C3_3  and  C4_4 
REMARK    2  A    between atoms: C3_3  and  O4_21 
REMARK    3  A    between atoms: C5_5  and  N1_6 
REMARK    4  A    between atoms: N1_6  and  C6_7 
REMARK    5  A    between atoms: C7_8  and  O1_9 
REMARK    6  A    between atoms: C9_12  and  O2_13 
REMARK    7  A    between atoms: C12_16  and  C13_17 
REMARK    8  A    between atoms: C13_17  and  O3_18 
ROOT
HETATM    1  C6  UNL     1      26.356   2.588  50.823  1.00  0.00     0.194 A 
HETATM    2  C7  UNL     1      26.407   3.725  49.868  1.00  0.00     0.166 A 
HETATM    3  N2  UNL     1      25.224   4.203  49.679  1.00  0.00    -0.223 NA
HETATM    4  C8  UNL     1      24.263   3.485  50.447  1.00  0.00     0.101 A 
HETATM    5  C9  UNL     1      22.885   3.574  50.619  1.00  0.00     0.098 A 
HETATM    6  C11 UNL     1      22.229   2.687  51.474  1.00  0.00     0.048 A 
HETATM    7  C12 UNL     1      22.920   1.710  52.163  1.00  0.00    -0.031 A 
HETATM    8  C14 UNL     1      24.282   1.606  52.009  1.00  0.00     0.021 A 
HETATM    9  C15 UNL     1      24.914   2.489  51.161  1.00  0.00     0.005 A 
ENDROOT
BRANCH   1  10
HETATM   10  N1  UNL     1      27.136   3.008  51.996  1.00  0.00    -0.383 N 
HETATM   11  H7  UNL     1      27.506   3.990  52.008  1.00  0.00     0.160 HD
BRANCH  10  12
HETATM   12  C5  UNL     1      27.328   2.046  53.026  1.00  0.00     0.086 C 
HETATM   13  C4  UNL     1      27.815   0.821  53.040  1.00  0.00     0.053 C 
BRANCH  13  14
HETATM   14  C3  UNL     1      27.920  -0.005  54.241  1.00  0.00     0.065 C 
HETATM   15  C2  UNL     1      29.073  -0.593  54.435  1.00  0.00     0.006 C 
HETATM   16  C1  UNL     1      30.118  -0.348  53.418  1.00  0.00     0.038 C 
BRANCH  14  17
HETATM   17  O4  UNL     1      26.785  -0.069  55.038  1.00  0.00    -0.356 OA
HETATM   18  C16 UNL     1      25.562  -0.626  54.657  1.00  0.00     0.210 C 
ENDBRANCH  14  17
ENDBRANCH  13  14
ENDBRANCH  10  12
ENDBRANCH   1  10
BRANCH   2  19
HETATM   19  O1  UNL     1      27.505   4.271  49.218  1.00  0.00    -0.346 OA
HETATM   20  H9  UNL     1      27.781   3.875  48.323  1.00  0.00     0.219 HD
ENDBRANCH   2  19
BRANCH   5  21
HETATM   21  O2  UNL     1      22.213   4.564  49.915  1.00  0.00    -0.354 OA
HETATM   22  C10 UNL     1      21.467   4.196  48.762  1.00  0.00     0.210 C 
ENDBRANCH   5  21
BRANCH   7  23
HETATM   23  C13 UNL     1      22.238   0.752  53.083  1.00  0.00     0.203 C 
BRANCH  23  24
HETATM   24  O3  UNL     1      22.314  -0.537  52.584  1.00  0.00    -0.396 OA
HETATM   25  H16 UNL     1      21.395  -0.928  52.703  1.00  0.00     0.209 HD
ENDBRANCH  23  24
ENDBRANCH   7  23
TORSDOF 8
ENDMDL
MODEL 9
REMARK VINA RESULT:      -6.5      3.365      5.336
REMARK  8 active torsions:
REMARK  status: ('A' for Active; 'I' for Inactive)
REMARK    1  A    between atoms: C3_3  and  C4_4 
REMARK    2  A    between atoms: C3_3  and  O4_21 
REMARK    3  A    between atoms: C5_5  and  N1_6 
REMARK    4  A    between atoms: N1_6  and  C6_7 
REMARK    5  A    between atoms: C7_8  and  O1_9 
REMARK    6  A    between atoms: C9_12  and  O2_13 
REMARK    7  A    between atoms: C12_16  and  C13_17 
REMARK    8  A    between atoms: C13_17  and  O3_18 
ROOT
HETATM    1  C6  UNL     1      25.077   2.736  51.788  1.00  0.00     0.194 A 
HETATM    2  C7  UNL     1      26.463   2.820  51.259  1.00  0.00     0.166 A 
HETATM    3  N2  UNL     1      27.140   1.781  51.613  1.00  0.00    -0.223 NA
HETATM    4  C8  UNL     1      26.337   0.899  52.391  1.00  0.00     0.101 A 
HETATM    5  C9  UNL     1      26.552  -0.328  53.010  1.00  0.00     0.098 A 
HETATM    6  C11 UNL     1      25.517  -0.944  53.718  1.00  0.00     0.048 A 
HETATM    7  C12 UNL     1      24.271  -0.361  53.820  1.00  0.00    -0.031 A 
HETATM    8  C14 UNL     1      24.036   0.851  53.215  1.00  0.00     0.021 A 
HETATM    9  C15 UNL     1      25.068   1.446  52.521  1.00  0.00     0.005 A 
ENDROOT
BRANCH   1  10
HETATM   10  N1  UNL     1      24.197   2.670  50.611  1.00  0.00    -0.383 N 
HETATM   11  H7  UNL     1      24.425   1.961  49.873  1.00  0.00     0.160 HD
BRANCH  10  12
HETATM   12  C5  UNL     1      23.103   3.577  50.569  1.00  0.00     0.086 C 
HETATM   13  C4  UNL     1      22.780   4.640  51.279  1.00  0.00     0.053 C 
BRANCH  13  14
HETATM   14  C3  UNL     1      21.578   5.441  51.055  1.00  0.00     0.065 C 
HETATM   15  C2  UNL     1      21.772   6.713  50.816  1.00  0.00     0.006 C 
HETATM   16  C1  UNL     1      23.176   7.176  50.804  1.00  0.00     0.038 C 
BRANCH  14  17
HETATM   17  O4  UNL     1      20.370   4.759  51.120  1.00  0.00    -0.356 OA
HETATM   18  C16 UNL     1      19.517   4.524  50.041  1.00  0.00     0.210 C 
ENDBRANCH  14  17
ENDBRANCH  13  14
ENDBRANCH  10  12
ENDBRANCH   1  10
BRANCH   2  19
HETATM   19  O1  UNL     1      27.046   3.820  50.492  1.00  0.00    -0.346 OA
HETATM   20  H9  UNL     1      28.040   3.998  50.608  1.00  0.00     0.219 HD
ENDBRANCH   2  19
BRANCH   5  21
HETATM   21  O2  UNL     1      27.813  -0.895  52.893  1.00  0.00    -0.354 OA
HETATM   22  C10 UNL     1      28.803  -0.566  53.859  1.00  0.00     0.210 C 
ENDBRANCH   5  21
BRANCH   7  23
HETATM   23  C13 UNL     1      23.151  -1.003  54.571  1.00  0.00     0.203 C 
BRANCH  23  24
HETATM   24  O3  UNL     1      23.602  -1.504  55.780  1.00  0.00    -0.396 OA
HETATM   25  H16 UNL     1      23.686  -2.497  55.647  1.00  0.00     0.209 HD
ENDBRANCH  23  24
ENDBRANCH   7  23
TORSDOF 8
ENDMDL
