MODEL 1
REMARK VINA RESULT:      -7.8      0.000      0.000
REMARK  1 active torsions:
REMARK  status: ('A' for Active; 'I' for Inactive)
REMARK    1  A    between atoms: C2_2  and  C3_3 
REMARK       I    between atoms: C3_3  and  N1_5 
ROOT
HETATM    1  C3  UNL     1      25.248   5.623  49.413  1.00  0.00     0.242 C 
HETATM    2  O1  UNL     1      25.678   6.435  50.299  1.00  0.00    -0.268 OA
HETATM    3  N1  UNL     1      23.897   5.849  49.708  1.00  0.00    -0.344 N 
HETATM    4  C4  UNL     1      23.643   6.831  50.799  1.00  0.00     0.127 C 
HETATM    5  C5  UNL     1      23.814   6.211  52.156  1.00  0.00     0.027 C 
HETATM    6  C6  UNL     1      23.075   4.922  52.262  1.00  0.00    -0.021 C 
HETATM    7  C7  UNL     1      22.266   5.461  51.335  1.00  0.00     0.142 C 
HETATM    8  N2  UNL     1      21.088   5.155  50.579  1.00  0.00    -0.381 N 
HETATM    9  C8  UNL     1      21.280   3.866  49.952  1.00  0.00     0.053 C 
HETATM   10  C9  UNL     1      20.381   3.058  50.449  1.00  0.00     0.050 C 
HETATM   11  C10 UNL     1      19.236   3.373  51.217  1.00  0.00     0.097 C 
HETATM   12  N3  UNL     1      18.323   3.644  51.834  1.00  0.00    -0.192 NA
HETATM   13  C11 UNL     1      20.620   1.597  50.134  1.00  0.00     0.061 C 
HETATM   14  C12 UNL     1      22.072   1.425  49.711  1.00  0.00     0.023 C 
HETATM   15  C13 UNL     1      22.922   1.243  50.891  1.00  0.00     0.039 C 
HETATM   16  C14 UNL     1      23.630   1.463  52.025  1.00  0.00    -0.023 A 
HETATM   17 BR1  UNL     1      24.751   0.591  53.338  1.00  0.00    -0.126 Br
HETATM   18  C15 UNL     1      24.077   2.510  52.992  1.00  0.00     0.115 A 
HETATM   19  C16 UNL     1      23.846   3.873  53.052  1.00  0.00    -0.001 C 
HETATM   20  C17 UNL     1      22.537   2.548  48.831  1.00  0.00    -0.010 C 
HETATM   21  C18 UNL     1      22.462   3.847  49.101  1.00  0.00    -0.016 C 
HETATM   22  C19 UNL     1      23.017   5.146  48.827  1.00  0.00     0.166 C 
HETATM   23  H9  UNL     1      20.545   6.041  50.799  1.00  0.00     0.160 HD
ENDROOT
BRANCH   1  24
HETATM   24  C2  UNL     1      26.455   5.143  48.841  1.00  0.00     0.064 C 
HETATM   25  C1  UNL     1      26.703   3.924  49.307  1.00  0.00     0.017 C 
ENDBRANCH   1  24
TORSDOF 1
ENDMDL
MODEL 2
REMARK VINA RESULT:      -6.9      5.826      8.360
REMARK  1 active torsions:
REMARK  status: ('A' for Active; 'I' for Inactive)
REMARK    1  A    between atoms: C2_2  and  C3_3 
REMARK       I    between atoms: C3_3  and  N1_5 
ROOT
HETATM    1  C3  UNL     1      28.608  11.659  48.457  1.00  0.00     0.242 C 
HETATM    2  O1  UNL     1      29.730  11.780  47.862  1.00  0.00    -0.268 OA
HETATM    3  N1  UNL     1      28.864  10.356  48.904  1.00  0.00    -0.344 N 
HETATM    4  C4  UNL     1      30.189   9.802  48.510  1.00  0.00     0.127 C 
HETATM    5  C5  UNL     1      30.182   9.294  47.097  1.00  0.00     0.027 C 
HETATM    6  C6  UNL     1      29.011   8.410  46.843  1.00  0.00    -0.021 C 
HETATM    7  C7  UNL     1      29.086   8.153  48.160  1.00  0.00     0.142 C 
HETATM    8  N2  UNL     1      28.439   7.376  49.176  1.00  0.00    -0.381 N 
HETATM    9  C8  UNL     1      27.019   7.636  49.103  1.00  0.00     0.053 C 
HETATM   10  C9  UNL     1      26.436   6.509  48.788  1.00  0.00     0.050 C 
HETATM   11  C10 UNL     1      26.976   5.203  48.794  1.00  0.00     0.097 C 
HETATM   12  N3  UNL     1      27.427   4.161  48.802  1.00  0.00    -0.192 NA
HETATM   13  C11 UNL     1      24.987   6.655  48.375  1.00  0.00     0.061 C 
HETATM   14  C12 UNL     1      24.733   8.111  48.010  1.00  0.00     0.023 C 
HETATM   15  C13 UNL     1      25.089   8.346  46.607  1.00  0.00     0.039 C 
HETATM   16  C14 UNL     1      25.785   8.530  45.460  1.00  0.00    -0.023 A 
HETATM   17 BR1  UNL     1      25.578   8.857  43.564  1.00  0.00    -0.126 Br
HETATM   18  C15 UNL     1      27.156   8.664  44.881  1.00  0.00     0.115 A 
HETATM   19  C16 UNL     1      28.413   8.620  45.458  1.00  0.00    -0.001 C 
HETATM   20  C17 UNL     1      25.426   9.055  48.948  1.00  0.00    -0.010 C 
HETATM   21  C18 UNL     1      26.717   9.053  49.261  1.00  0.00    -0.016 C 
HETATM   22  C19 UNL     1      27.820   9.844  49.737  1.00  0.00     0.166 C 
HETATM   23  H9  UNL     1      29.309   6.919  49.578  1.00  0.00     0.160 HD
ENDROOT
BRANCH   1  24
HETATM   24  C2  UNL     1      27.999  12.916  48.202  1.00  0.00     0.064 C 
HETATM   25  C1  UNL     1      26.795  12.718  47.677  1.00  0.00     0.017 C 
ENDBRANCH   1  24
TORSDOF 1
ENDMDL
MODEL 3
REMARK VINA RESULT:      -6.9      8.147     10.932
REMARK  1 active torsions:
REMARK  status: ('A' for Active; 'I' for Inactive)
REMARK    1  A    between atoms: C2_2  and  C3_3 
REMARK       I    between atoms: C3_3  and  N1_5 
ROOT
HETATM    1  C3  UNL     1      34.375   5.668  48.502  1.00  0.00     0.242 C 
HETATM    2  O1  UNL     1      34.706   4.999  47.467  1.00  0.00    -0.268 OA
HETATM    3  N1  UNL     1      33.006   5.394  48.372  1.00  0.00    -0.344 N 
HETATM    4  C4  UNL     1      32.640   4.539  47.209  1.00  0.00     0.127 C 
HETATM    5  C5  UNL     1      32.582   5.329  45.934  1.00  0.00     0.027 C 
HETATM    6  C6  UNL     1      31.778   6.572  46.100  1.00  0.00    -0.021 C 
HETATM    7  C7  UNL     1      31.138   5.874  47.054  1.00  0.00     0.142 C 
HETATM    8  N2  UNL     1      30.071   6.010  48.001  1.00  0.00    -0.381 N 
HETATM    9  C8  UNL     1      30.295   7.222  48.757  1.00  0.00     0.053 C 
HETATM   10  C9  UNL     1      29.297   8.027  48.501  1.00  0.00     0.050 C 
HETATM   11  C10 UNL     1      28.068   7.736  47.865  1.00  0.00     0.097 C 
HETATM   12  N3  UNL     1      27.087   7.486  47.352  1.00  0.00    -0.192 NA
HETATM   13  C11 UNL     1      29.514   9.450  48.965  1.00  0.00     0.061 C 
HETATM   14  C12 UNL     1      31.003   9.661  49.201  1.00  0.00     0.023 C 
HETATM   15  C13 UNL     1      31.661  10.039  47.946  1.00  0.00     0.039 C 
HETATM   16  C14 UNL     1      32.205  10.005  46.706  1.00  0.00    -0.023 A 
HETATM   17 BR1  UNL     1      33.081  11.101  45.374  1.00  0.00    -0.126 Br
HETATM   18  C15 UNL     1      32.552   9.115  45.558  1.00  0.00     0.115 A 
HETATM   19  C16 UNL     1      32.376   7.757  45.354  1.00  0.00    -0.001 C 
HETATM   20  C17 UNL     1      31.642   8.471  49.852  1.00  0.00    -0.010 C 
HETATM   21  C18 UNL     1      31.588   7.212  49.429  1.00  0.00    -0.016 C 
HETATM   22  C19 UNL     1      32.234   5.928  49.452  1.00  0.00     0.166 C 
HETATM   23  H9  UNL     1      29.543   5.126  47.745  1.00  0.00     0.160 HD
ENDROOT
BRANCH   1  24
HETATM   24  C2  UNL     1      35.630   6.150  48.957  1.00  0.00     0.064 C 
HETATM   25  C1  UNL     1      35.786   7.406  48.554  1.00  0.00     0.017 C 
ENDBRANCH   1  24
TORSDOF 1
ENDMDL
MODEL 4
REMARK VINA RESULT:      -6.9      8.989     11.417
REMARK  1 active torsions:
REMARK  status: ('A' for Active; 'I' for Inactive)
REMARK    1  A    between atoms: C2_2  and  C3_3 
REMARK       I    between atoms: C3_3  and  N1_5 
ROOT
HETATM    1  C3  UNL     1      29.398   8.405  46.986  1.00  0.00     0.242 C 
HETATM    2  O1  UNL     1      29.596   9.600  46.586  1.00  0.00    -0.268 OA
HETATM    3  N1  UNL     1      30.514   8.389  47.832  1.00  0.00    -0.344 N 
HETATM    4  C4  UNL     1      31.308   9.649  47.856  1.00  0.00     0.127 C 
HETATM    5  C5  UNL     1      32.230   9.747  46.675  1.00  0.00     0.027 C 
HETATM    6  C6  UNL     1      33.014   8.494  46.491  1.00  0.00    -0.021 C 
HETATM    7  C7  UNL     1      32.850   8.353  47.818  1.00  0.00     0.142 C 
HETATM    8  N2  UNL     1      33.190   7.463  48.889  1.00  0.00    -0.381 N 
HETATM    9  C8  UNL     1      32.810   6.124  48.496  1.00  0.00     0.053 C 
HETATM   10  C9  UNL     1      33.906   5.415  48.429  1.00  0.00     0.050 C 
HETATM   11  C10 UNL     1      35.196   5.735  48.912  1.00  0.00     0.097 C 
HETATM   12  N3  UNL     1      36.225   6.009  49.304  1.00  0.00    -0.192 NA
HETATM   13  C11 UNL     1      33.737   4.076  47.746  1.00  0.00     0.061 C 
HETATM   14  C12 UNL     1      32.452   4.107  46.931  1.00  0.00     0.023 C 
HETATM   15  C13 UNL     1      32.712   4.677  45.605  1.00  0.00     0.039 C 
HETATM   16  C14 UNL     1      32.977   5.539  44.594  1.00  0.00    -0.023 A 
HETATM   17 BR1  UNL     1      33.243   5.638  42.681  1.00  0.00    -0.126 Br
HETATM   18  C15 UNL     1      33.185   6.977  44.250  1.00  0.00     0.115 A 
HETATM   19  C16 UNL     1      33.185   8.124  45.024  1.00  0.00    -0.001 C 
HETATM   20  C17 UNL     1      31.344   4.812  47.656  1.00  0.00    -0.010 C 
HETATM   21  C18 UNL     1      31.391   6.034  48.177  1.00  0.00    -0.016 C 
HETATM   22  C19 UNL     1      30.618   7.176  48.584  1.00  0.00     0.166 C 
HETATM   23  H9  UNL     1      33.591   8.188  49.552  1.00  0.00     0.160 HD
ENDROOT
BRANCH   1  24
HETATM   24  C2  UNL     1      28.226   8.044  46.271  1.00  0.00     0.064 C 
HETATM   25  C1  UNL     1      28.328   8.478  45.020  1.00  0.00     0.017 C 
ENDBRANCH   1  24
TORSDOF 1
ENDMDL
MODEL 5
REMARK VINA RESULT:      -6.8      2.412      3.416
REMARK  1 active torsions:
REMARK  status: ('A' for Active; 'I' for Inactive)
REMARK    1  A    between atoms: C2_2  and  C3_3 
REMARK       I    between atoms: C3_3  and  N1_5 
ROOT
HETATM    1  C3  UNL     1      24.667   2.703  52.011  1.00  0.00     0.242 C 
HETATM    2  O1  UNL     1      24.523   3.216  53.171  1.00  0.00    -0.268 OA
HETATM    3  N1  UNL     1      24.128   3.808  51.339  1.00  0.00    -0.344 N 
HETATM    4  C4  UNL     1      23.698   4.934  52.214  1.00  0.00     0.127 C 
HETATM    5  C5  UNL     1      22.351   4.677  52.826  1.00  0.00     0.027 C 
HETATM    6  C6  UNL     1      21.362   4.240  51.803  1.00  0.00    -0.021 C 
HETATM    7  C7  UNL     1      22.126   4.947  50.953  1.00  0.00     0.142 C 
HETATM    8  N2  UNL     1      22.197   5.316  49.570  1.00  0.00    -0.381 N 
HETATM    9  C8  UNL     1      22.080   4.111  48.779  1.00  0.00     0.053 C 
HETATM   10  C9  UNL     1      20.982   4.215  48.076  1.00  0.00     0.050 C 
HETATM   11  C10 UNL     1      20.180   5.358  47.855  1.00  0.00     0.097 C 
HETATM   12  N3  UNL     1      19.547   6.285  47.689  1.00  0.00    -0.192 NA
HETATM   13  C11 UNL     1      20.543   2.925  47.419  1.00  0.00     0.061 C 
HETATM   14  C12 UNL     1      21.243   1.766  48.113  1.00  0.00     0.023 C 
HETATM   15  C13 UNL     1      20.477   1.349  49.292  1.00  0.00     0.039 C 
HETATM   16  C14 UNL     1      19.915   1.307  50.524  1.00  0.00    -0.023 A 
HETATM   17 BR1  UNL     1      18.768   0.242  51.661  1.00  0.00    -0.126 Br
HETATM   18  C15 UNL     1      19.835   1.999  51.845  1.00  0.00     0.115 A 
HETATM   19  C16 UNL     1      20.428   3.155  52.322  1.00  0.00    -0.001 C 
HETATM   20  C17 UNL     1      22.673   2.085  48.436  1.00  0.00    -0.010 C 
HETATM   21  C18 UNL     1      23.114   3.140  49.111  1.00  0.00    -0.016 C 
HETATM   22  C19 UNL     1      24.185   3.666  49.916  1.00  0.00     0.166 C 
HETATM   23  H9  UNL     1      22.315   6.361  49.709  1.00  0.00     0.160 HD
ENDROOT
BRANCH   1  24
HETATM   24  C2  UNL     1      25.247   1.444  52.315  1.00  0.00     0.064 C 
HETATM   25  C1  UNL     1      24.286   0.594  52.662  1.00  0.00     0.017 C 
ENDBRANCH   1  24
TORSDOF 1
ENDMDL
MODEL 6
REMARK VINA RESULT:      -6.8      8.455     10.784
REMARK  1 active torsions:
REMARK  status: ('A' for Active; 'I' for Inactive)
REMARK    1  A    between atoms: C2_2  and  C3_3 
REMARK       I    between atoms: C3_3  and  N1_5 
ROOT
HETATM    1  C3  UNL     1      33.504   5.736  45.456  1.00  0.00     0.242 C 
HETATM    2  O1  UNL     1      34.187   5.098  46.325  1.00  0.00    -0.268 OA
HETATM    3  N1  UNL     1      33.617   6.968  46.115  1.00  0.00    -0.344 N 
HETATM    4  C4  UNL     1      34.404   6.939  47.379  1.00  0.00     0.127 C 
HETATM    5  C5  UNL     1      33.589   6.423  48.529  1.00  0.00     0.027 C 
HETATM    6  C6  UNL     1      32.266   7.103  48.607  1.00  0.00    -0.021 C 
HETATM    7  C7  UNL     1      32.904   8.126  48.014  1.00  0.00     0.142 C 
HETATM    8  N2  UNL     1      32.665   9.457  47.539  1.00  0.00    -0.381 N 
HETATM    9  C8  UNL     1      31.500   9.424  46.683  1.00  0.00     0.053 C 
HETATM   10  C9  UNL     1      30.582  10.162  47.251  1.00  0.00     0.050 C 
HETATM   11  C10 UNL     1      30.720  11.073  48.324  1.00  0.00     0.097 C 
HETATM   12  N3  UNL     1      30.848  11.799  49.187  1.00  0.00    -0.192 NA
HETATM   13  C11 UNL     1      29.201  10.003  46.654  1.00  0.00     0.061 C 
HETATM   14  C12 UNL     1      29.166   8.707  45.856  1.00  0.00     0.023 C 
HETATM   15  C13 UNL     1      28.842   7.582  46.739  1.00  0.00     0.039 C 
HETATM   16  C14 UNL     1      28.916   6.608  47.677  1.00  0.00    -0.023 A 
HETATM   17 BR1  UNL     1      27.903   5.183  48.506  1.00  0.00    -0.126 Br
HETATM   18  C15 UNL     1      29.819   5.934  48.658  1.00  0.00     0.115 A 
HETATM   19  C16 UNL     1      31.144   6.150  48.996  1.00  0.00    -0.001 C 
HETATM   20  C17 UNL     1      30.433   8.489  45.083  1.00  0.00    -0.010 C 
HETATM   21  C18 UNL     1      31.669   8.499  45.571  1.00  0.00    -0.016 C 
HETATM   22  C19 UNL     1      33.019   8.041  45.380  1.00  0.00     0.166 C 
HETATM   23  H9  UNL     1      33.478   9.930  48.030  1.00  0.00     0.160 HD
ENDROOT
BRANCH   1  24
HETATM   24  C2  UNL     1      33.176   4.713  44.528  1.00  0.00     0.064 C 
HETATM   25  C1  UNL     1      34.076   4.708  43.551  1.00  0.00     0.017 C 
ENDBRANCH   1  24
TORSDOF 1
ENDMDL
MODEL 7
REMARK VINA RESULT:      -6.7      8.504     10.880
REMARK  1 active torsions:
REMARK  status: ('A' for Active; 'I' for Inactive)
REMARK    1  A    between atoms: C2_2  and  C3_3 
REMARK       I    between atoms: C3_3  and  N1_5 
ROOT
HETATM    1  C3  UNL     1      31.261  11.133  47.842  1.00  0.00     0.242 C 
HETATM    2  O1  UNL     1      30.534  11.765  47.005  1.00  0.00    -0.268 OA
HETATM    3  N1  UNL     1      31.899  10.357  46.865  1.00  0.00    -0.344 N 
HETATM    4  C4  UNL     1      31.467  10.622  45.465  1.00  0.00     0.127 C 
HETATM    5  C5  UNL     1      30.175   9.930  45.141  1.00  0.00     0.027 C 
HETATM    6  C6  UNL     1      30.209   8.497  45.546  1.00  0.00    -0.021 C 
HETATM    7  C7  UNL     1      31.534   8.611  45.357  1.00  0.00     0.142 C 
HETATM    8  N2  UNL     1      32.736   7.834  45.429  1.00  0.00    -0.381 N 
HETATM    9  C8  UNL     1      32.773   7.186  46.722  1.00  0.00     0.053 C 
HETATM   10  C9  UNL     1      32.727   5.897  46.509  1.00  0.00     0.050 C 
HETATM   11  C10 UNL     1      32.904   5.195  45.294  1.00  0.00     0.097 C 
HETATM   12  N3  UNL     1      33.047   4.647  44.311  1.00  0.00    -0.192 NA
HETATM   13  C11 UNL     1      32.455   5.074  47.749  1.00  0.00     0.061 C 
HETATM   14  C12 UNL     1      31.869   5.987  48.816  1.00  0.00     0.023 C 
HETATM   15  C13 UNL     1      30.416   6.091  48.646  1.00  0.00     0.039 C 
HETATM   16  C14 UNL     1      29.186   6.408  48.177  1.00  0.00    -0.023 A 
HETATM   17 BR1  UNL     1      27.296   6.151  48.503  1.00  0.00    -0.126 Br
HETATM   18  C15 UNL     1      28.447   7.200  47.149  1.00  0.00     0.115 A 
HETATM   19  C16 UNL     1      28.882   8.024  46.126  1.00  0.00    -0.001 C 
HETATM   20  C17 UNL     1      32.545   7.326  48.843  1.00  0.00    -0.010 C 
HETATM   21  C18 UNL     1      32.712   8.149  47.813  1.00  0.00    -0.016 C 
HETATM   22  C19 UNL     1      32.918   9.515  47.412  1.00  0.00     0.166 C 
HETATM   23  H9  UNL     1      33.115   8.071  44.466  1.00  0.00     0.160 HD
ENDROOT
BRANCH   1  24
HETATM   24  C2  UNL     1      30.855  11.705  49.077  1.00  0.00     0.064 C 
HETATM   25  C1  UNL     1      29.829  12.521  48.862  1.00  0.00     0.017 C 
ENDBRANCH   1  24
TORSDOF 1
ENDMDL
MODEL 8
REMARK VINA RESULT:      -6.7      8.108     10.358
REMARK  1 active torsions:
REMARK  status: ('A' for Active; 'I' for Inactive)
REMARK    1  A    between atoms: C2_2  and  C3_3 
REMARK       I    between atoms: C3_3  and  N1_5 
ROOT
HETATM    1  C3  UNL     1      33.059   7.678  48.567  1.00  0.00     0.242 C 
HETATM    2  O1  UNL     1      33.049   6.519  48.034  1.00  0.00    -0.268 OA
HETATM    3  N1  UNL     1      31.768   7.563  49.098  1.00  0.00    -0.344 N 
HETATM    4  C4  UNL     1      31.080   6.272  48.816  1.00  0.00     0.127 C 
HETATM    5  C5  UNL     1      30.492   6.247  47.434  1.00  0.00     0.027 C 
HETATM    6  C6  UNL     1      29.697   7.476  47.159  1.00  0.00    -0.021 C 
HETATM    7  C7  UNL     1      29.513   7.497  48.490  1.00  0.00     0.142 C 
HETATM    8  N2  UNL     1      28.857   8.264  49.507  1.00  0.00    -0.381 N 
HETATM    9  C8  UNL     1      29.232   9.650  49.335  1.00  0.00     0.053 C 
HETATM   10  C9  UNL     1      28.142  10.313  49.048  1.00  0.00     0.050 C 
HETATM   11  C10 UNL     1      26.797   9.891  49.157  1.00  0.00     0.097 C 
HETATM   12  N3  UNL     1      25.723   9.536  49.249  1.00  0.00    -0.192 NA
HETATM   13  C11 UNL     1      28.387  11.718  48.542  1.00  0.00     0.061 C 
HETATM   14  C12 UNL     1      29.834  11.821  48.082  1.00  0.00     0.023 C 
HETATM   15  C13 UNL     1      29.954  11.370  46.693  1.00  0.00     0.039 C 
HETATM   16  C14 UNL     1      30.010  10.598  45.581  1.00  0.00    -0.023 A 
HETATM   17 BR1  UNL     1      30.239  10.671  43.661  1.00  0.00    -0.126 Br
HETATM   18  C15 UNL     1      29.992   9.192  45.079  1.00  0.00     0.115 A 
HETATM   19  C16 UNL     1      29.875   7.977  45.732  1.00  0.00    -0.001 C 
HETATM   20  C17 UNL     1      30.770  11.100  49.007  1.00  0.00    -0.010 C 
HETATM   21  C18 UNL     1      30.676   9.833  49.397  1.00  0.00    -0.016 C 
HETATM   22  C19 UNL     1      31.398   8.693  49.895  1.00  0.00     0.166 C 
HETATM   23  H9  UNL     1      28.352   7.462  49.984  1.00  0.00     0.160 HD
ENDROOT
BRANCH   1  24
HETATM   24  C2  UNL     1      34.346   8.158  48.207  1.00  0.00     0.064 C 
HETATM   25  C1  UNL     1      34.212   9.163  47.350  1.00  0.00     0.017 C 
ENDBRANCH   1  24
TORSDOF 1
ENDMDL
MODEL 9
REMARK VINA RESULT:      -6.6      8.818     11.169
REMARK  1 active torsions:
REMARK  status: ('A' for Active; 'I' for Inactive)
REMARK    1  A    between atoms: C2_2  and  C3_3 
REMARK       I    between atoms: C3_3  and  N1_5 
ROOT
HETATM    1  C3  UNL     1      32.348   4.306  47.214  1.00  0.00     0.242 C 
HETATM    2  O1  UNL     1      32.234   3.989  48.444  1.00  0.00    -0.268 OA
HETATM    3  N1  UNL     1      33.014   5.511  47.476  1.00  0.00    -0.344 N 
HETATM    4  C4  UNL     1      33.245   5.805  48.918  1.00  0.00     0.127 C 
HETATM    5  C5  UNL     1      32.017   6.365  49.575  1.00  0.00     0.027 C 
HETATM    6  C6  UNL     1      31.430   7.476  48.775  1.00  0.00    -0.021 C 
HETATM    7  C7  UNL     1      32.691   7.656  48.344  1.00  0.00     0.142 C 
HETATM    8  N2  UNL     1      33.456   8.500  47.475  1.00  0.00    -0.381 N 
HETATM    9  C8  UNL     1      32.797   8.533  46.188  1.00  0.00     0.053 C 
HETATM   10  C9  UNL     1      32.418   9.767  45.980  1.00  0.00     0.050 C 
HETATM   11  C10 UNL     1      32.795  10.937  46.678  1.00  0.00     0.097 C 
HETATM   12  N3  UNL     1      33.106  11.866  47.251  1.00  0.00    -0.192 NA
HETATM   13  C11 UNL     1      31.453   9.932  44.827  1.00  0.00     0.061 C 
HETATM   14  C12 UNL     1      30.843   8.574  44.508  1.00  0.00     0.023 C 
HETATM   15  C13 UNL     1      29.677   8.334  45.364  1.00  0.00     0.039 C 
HETATM   16  C14 UNL     1      28.884   8.064  46.429  1.00  0.00    -0.023 A 
HETATM   17 BR1  UNL     1      27.036   7.869  46.967  1.00  0.00    -0.126 Br
HETATM   18  C15 UNL     1      28.881   7.684  47.873  1.00  0.00     0.115 A 
HETATM   19  C16 UNL     1      29.908   7.451  48.771  1.00  0.00    -0.001 C 
HETATM   20  C17 UNL     1      31.856   7.471  44.589  1.00  0.00    -0.010 C 
HETATM   21  C18 UNL     1      32.651   7.200  45.619  1.00  0.00    -0.016 C 
HETATM   22  C19 UNL     1      33.424   6.184  46.282  1.00  0.00     0.166 C 
HETATM   23  H9  UNL     1      34.220   8.756  48.166  1.00  0.00     0.160 HD
ENDROOT
BRANCH   1  24
HETATM   24  C2  UNL     1      31.723   3.209  46.566  1.00  0.00     0.064 C 
HETATM   25  C1  UNL     1      32.455   2.117  46.756  1.00  0.00     0.017 C 
ENDBRANCH   1  24
TORSDOF 1
ENDMDL
