MODEL 1
REMARK VINA RESULT:      -8.0      0.000      0.000
REMARK  4 active torsions:
REMARK  status: ('A' for Active; 'I' for Inactive)
REMARK    1  A    between atoms: N1_2  and  O1_3 
REMARK    2  A    between atoms: N1_2  and  C2_4 
REMARK    3  A    between atoms: C2_4  and  C3_5 
REMARK    4  A    between atoms: C4_6  and  C5_7 
ROOT
HETATM    1  C5  UNL     1      23.832   1.863  53.055  1.00  0.00     0.029 C 
HETATM    2  C6  UNL     1      23.058   0.842  53.381  1.00  0.00     0.053 C 
HETATM    3  C7  UNL     1      23.314  -0.368  54.130  1.00  0.00     0.064 C 
HETATM    4  C8  UNL     1      22.216  -1.312  54.310  1.00  0.00     0.101 C 
HETATM    5  N2  UNL     1      21.315  -2.073  54.438  1.00  0.00    -0.191 NA
HETATM    6  C9  UNL     1      24.407  -0.809  54.714  1.00  0.00     0.139 C 
HETATM    7  N3  UNL     1      25.766  -0.539  54.988  1.00  0.00    -0.264 NA
HETATM    8  C10 UNL     1      26.493  -0.137  54.005  1.00  0.00     0.038 C 
HETATM    9  C11 UNL     1      27.867   0.087  54.518  1.00  0.00     0.051 C 
HETATM   10  C12 UNL     1      28.747   0.978  54.019  1.00  0.00     0.136 C 
HETATM   11  O2  UNL     1      28.544   1.845  52.958  1.00  0.00    -0.361 OA
HETATM   12  C13 UNL     1      27.461   2.257  52.220  1.00  0.00     0.199 C 
HETATM   13  C14 UNL     1      26.163   1.605  52.292  1.00  0.00     0.111 C 
HETATM   14  C15 UNL     1      26.130   0.112  52.553  1.00  0.00     0.086 C 
HETATM   15  N4  UNL     1      25.229   2.153  53.298  1.00  0.00    -0.383 N 
HETATM   16  H18 UNL     1      25.080   2.694  54.169  1.00  0.00     0.160 HD
ENDROOT
BRANCH   1  17
HETATM   17  C4  UNL     1      23.261   2.974  52.267  1.00  0.00     0.026 C 
HETATM   18  C3  UNL     1      23.315   4.315  52.308  1.00  0.00    -0.008 C 
BRANCH  18  19
HETATM   19  C2  UNL     1      22.751   5.477  51.523  1.00  0.00     0.147 C 
BRANCH  19  20
HETATM   20  N1  UNL     1      23.854   6.389  51.303  1.00  0.00    -0.200 NA
HETATM   21  C1  UNL     1      24.753   5.817  50.333  1.00  0.00     0.143 C 
BRANCH  20  22
HETATM   22  O1  UNL     1      24.492   6.725  52.447  1.00  0.00    -0.313 OA
HETATM   23  H4  UNL     1      24.922   5.894  52.816  1.00  0.00     0.237 HD
ENDBRANCH  20  22
ENDBRANCH  19  20
ENDBRANCH  18  19
ENDBRANCH   1  17
TORSDOF 4
ENDMDL
MODEL 2
REMARK VINA RESULT:      -7.4      2.215      5.364
REMARK  4 active torsions:
REMARK  status: ('A' for Active; 'I' for Inactive)
REMARK    1  A    between atoms: N1_2  and  O1_3 
REMARK    2  A    between atoms: N1_2  and  C2_4 
REMARK    3  A    between atoms: C2_4  and  C3_5 
REMARK    4  A    between atoms: C4_6  and  C5_7 
ROOT
HETATM    1  C5  UNL     1      24.918   0.604  52.804  1.00  0.00     0.029 C 
HETATM    2  C6  UNL     1      24.000  -0.082  53.463  1.00  0.00     0.053 C 
HETATM    3  C7  UNL     1      22.611  -0.365  53.179  1.00  0.00     0.064 C 
HETATM    4  C8  UNL     1      21.861  -1.169  54.138  1.00  0.00     0.101 C 
HETATM    5  N2  UNL     1      21.264  -1.817  54.932  1.00  0.00    -0.191 NA
HETATM    6  C9  UNL     1      21.846  -0.016  52.167  1.00  0.00     0.139 C 
HETATM    7  N3  UNL     1      21.792   0.685  50.942  1.00  0.00    -0.264 NA
HETATM    8  C10 UNL     1      22.303   1.867  50.920  1.00  0.00     0.038 C 
HETATM    9  C11 UNL     1      22.139   2.406  49.548  1.00  0.00     0.051 C 
HETATM   10  C12 UNL     1      22.959   3.301  48.962  1.00  0.00     0.136 C 
HETATM   11  O2  UNL     1      24.096   3.874  49.510  1.00  0.00    -0.361 OA
HETATM   12  C13 UNL     1      24.871   3.647  50.622  1.00  0.00     0.199 C 
HETATM   13  C14 UNL     1      24.461   2.762  51.701  1.00  0.00     0.111 C 
HETATM   14  C15 UNL     1      22.983   2.662  52.018  1.00  0.00     0.086 C 
HETATM   15  N4  UNL     1      24.883   1.352  51.565  1.00  0.00    -0.383 N 
HETATM   16  H18 UNL     1      25.195   0.574  50.957  1.00  0.00     0.160 HD
ENDROOT
BRANCH   1  17
HETATM   17  C4  UNL     1      26.279   0.708  53.368  1.00  0.00     0.026 C 
HETATM   18  C3  UNL     1      26.952   0.136  54.378  1.00  0.00    -0.008 C 
BRANCH  18  19
HETATM   19  C2  UNL     1      28.337   0.214  54.980  1.00  0.00     0.147 C 
BRANCH  19  20
HETATM   20  N1  UNL     1      29.195   0.758  53.948  1.00  0.00    -0.200 NA
HETATM   21  C1  UNL     1      30.131  -0.255  53.531  1.00  0.00     0.143 C 
BRANCH  20  22
HETATM   22  O1  UNL     1      29.819   1.894  54.332  1.00  0.00    -0.313 OA
HETATM   23  H4  UNL     1      29.195   2.400  54.937  1.00  0.00     0.237 HD
ENDBRANCH  20  22
ENDBRANCH  19  20
ENDBRANCH  18  19
ENDBRANCH   1  17
TORSDOF 4
ENDMDL
MODEL 3
REMARK VINA RESULT:      -7.3      2.840      5.143
REMARK  4 active torsions:
REMARK  status: ('A' for Active; 'I' for Inactive)
REMARK    1  A    between atoms: N1_2  and  O1_3 
REMARK    2  A    between atoms: N1_2  and  C2_4 
REMARK    3  A    between atoms: C2_4  and  C3_5 
REMARK    4  A    between atoms: C4_6  and  C5_7 
ROOT
HETATM    1  C5  UNL     1      24.214   0.551  52.537  1.00  0.00     0.029 C 
HETATM    2  C6  UNL     1      23.929   1.575  51.752  1.00  0.00     0.053 C 
HETATM    3  C7  UNL     1      24.762   2.580  51.129  1.00  0.00     0.064 C 
HETATM    4  C8  UNL     1      24.115   3.597  50.306  1.00  0.00     0.101 C 
HETATM    5  N2  UNL     1      23.572   4.422  49.649  1.00  0.00    -0.191 NA
HETATM    6  C9  UNL     1      26.063   2.768  51.162  1.00  0.00     0.139 C 
HETATM    7  N3  UNL     1      27.291   2.289  51.669  1.00  0.00    -0.264 NA
HETATM    8  C10 UNL     1      27.335   1.998  52.923  1.00  0.00     0.038 C 
HETATM    9  C11 UNL     1      28.704   1.517  53.229  1.00  0.00     0.051 C 
HETATM   10  C12 UNL     1      29.018   0.639  54.203  1.00  0.00     0.136 C 
HETATM   11  O2  UNL     1      28.145   0.022  55.083  1.00  0.00    -0.361 OA
HETATM   12  C13 UNL     1      26.781  -0.109  55.183  1.00  0.00     0.199 C 
HETATM   13  C14 UNL     1      25.853   0.669  54.376  1.00  0.00     0.111 C 
HETATM   14  C15 UNL     1      26.256   2.077  53.986  1.00  0.00     0.086 C 
HETATM   15  N4  UNL     1      25.455   0.054  53.092  1.00  0.00    -0.383 N 
HETATM   16  H18 UNL     1      25.654  -0.622  52.332  1.00  0.00     0.160 HD
ENDROOT
BRANCH   1  17
HETATM   17  C4  UNL     1      23.116  -0.313  53.018  1.00  0.00     0.026 C 
HETATM   18  C3  UNL     1      21.955  -0.127  53.666  1.00  0.00    -0.008 C 
BRANCH  18  19
HETATM   19  C2  UNL     1      20.812  -0.978  54.170  1.00  0.00     0.147 C 
BRANCH  19  20
HETATM   20  N1  UNL     1      19.714  -0.766  53.250  1.00  0.00    -0.200 NA
HETATM   21  C1  UNL     1      19.740   0.599  52.791  1.00  0.00     0.143 C 
BRANCH  20  22
HETATM   22  O1  UNL     1      18.516  -1.098  53.781  1.00  0.00    -0.313 OA
HETATM   23  H4  UNL     1      18.378  -0.540  54.607  1.00  0.00     0.237 HD
ENDBRANCH  20  22
ENDBRANCH  19  20
ENDBRANCH  18  19
ENDBRANCH   1  17
TORSDOF 4
ENDMDL
MODEL 4
REMARK VINA RESULT:      -7.2      2.592      6.989
REMARK  4 active torsions:
REMARK  status: ('A' for Active; 'I' for Inactive)
REMARK    1  A    between atoms: N1_2  and  O1_3 
REMARK    2  A    between atoms: N1_2  and  C2_4 
REMARK    3  A    between atoms: C2_4  and  C3_5 
REMARK    4  A    between atoms: C4_6  and  C5_7 
ROOT
HETATM    1  C5  UNL     1      25.572   1.741  51.700  1.00  0.00     0.029 C 
HETATM    2  C6  UNL     1      26.285   2.461  50.852  1.00  0.00     0.053 C 
HETATM    3  C7  UNL     1      26.042   3.743  50.227  1.00  0.00     0.064 C 
HETATM    4  C8  UNL     1      27.054   4.268  49.317  1.00  0.00     0.101 C 
HETATM    5  N2  UNL     1      27.883   4.675  48.573  1.00  0.00    -0.191 NA
HETATM    6  C9  UNL     1      25.027   4.574  50.323  1.00  0.00     0.139 C 
HETATM    7  N3  UNL     1      23.770   4.805  50.923  1.00  0.00    -0.264 NA
HETATM    8  C10 UNL     1      22.928   3.831  50.913  1.00  0.00     0.038 C 
HETATM    9  C11 UNL     1      21.693   4.292  51.593  1.00  0.00     0.051 C 
HETATM   10  C12 UNL     1      20.833   3.499  52.263  1.00  0.00     0.136 C 
HETATM   11  O2  UNL     1      20.935   2.131  52.452  1.00  0.00    -0.361 OA
HETATM   12  C13 UNL     1      21.911   1.183  52.258  1.00  0.00     0.199 C 
HETATM   13  C14 UNL     1      23.130   1.449  51.510  1.00  0.00     0.111 C 
HETATM   14  C15 UNL     1      23.058   2.427  50.355  1.00  0.00     0.086 C 
HETATM   15  N4  UNL     1      24.273   1.939  52.309  1.00  0.00    -0.383 N 
HETATM   16  H18 UNL     1      24.624   2.394  53.171  1.00  0.00     0.160 HD
ENDROOT
BRANCH   1  17
HETATM   17  C4  UNL     1      26.107   0.445  52.168  1.00  0.00     0.026 C 
HETATM   18  C3  UNL     1      27.290  -0.007  52.614  1.00  0.00    -0.008 C 
BRANCH  18  19
HETATM   19  C2  UNL     1      27.870  -1.315  53.100  1.00  0.00     0.147 C 
BRANCH  19  20
HETATM   20  N1  UNL     1      28.926  -0.968  54.028  1.00  0.00    -0.200 NA
HETATM   21  C1  UNL     1      28.493   0.137  54.844  1.00  0.00     0.143 C 
BRANCH  20  22
HETATM   22  O1  UNL     1      30.101  -0.710  53.411  1.00  0.00    -0.313 OA
HETATM   23  H4  UNL     1      30.151   0.280  53.242  1.00  0.00     0.237 HD
ENDBRANCH  20  22
ENDBRANCH  19  20
ENDBRANCH  18  19
ENDBRANCH   1  17
TORSDOF 4
ENDMDL
MODEL 5
REMARK VINA RESULT:      -7.1      2.528      4.708
REMARK  4 active torsions:
REMARK  status: ('A' for Active; 'I' for Inactive)
REMARK    1  A    between atoms: N1_2  and  O1_3 
REMARK    2  A    between atoms: N1_2  and  C2_4 
REMARK    3  A    between atoms: C2_4  and  C3_5 
REMARK    4  A    between atoms: C4_6  and  C5_7 
ROOT
HETATM    1  C5  UNL     1      26.008   2.415  50.891  1.00  0.00     0.029 C 
HETATM    2  C6  UNL     1      26.645   1.493  51.591  1.00  0.00     0.053 C 
HETATM    3  C7  UNL     1      26.175   0.461  52.489  1.00  0.00     0.064 C 
HETATM    4  C8  UNL     1      27.164  -0.409  53.117  1.00  0.00     0.101 C 
HETATM    5  N2  UNL     1      27.982  -1.101  53.626  1.00  0.00    -0.191 NA
HETATM    6  C9  UNL     1      24.960   0.136  52.874  1.00  0.00     0.139 C 
HETATM    7  N3  UNL     1      23.585   0.439  52.753  1.00  0.00    -0.264 NA
HETATM    8  C10 UNL     1      23.247   1.677  52.844  1.00  0.00     0.038 C 
HETATM    9  C11 UNL     1      21.775   1.759  52.686  1.00  0.00     0.051 C 
HETATM   10  C12 UNL     1      21.105   2.815  52.183  1.00  0.00     0.136 C 
HETATM   11  O2  UNL     1      21.648   4.002  51.719  1.00  0.00    -0.361 OA
HETATM   12  C13 UNL     1      22.910   4.453  51.417  1.00  0.00     0.199 C 
HETATM   13  C14 UNL     1      24.115   3.723  51.779  1.00  0.00     0.111 C 
HETATM   14  C15 UNL     1      24.099   2.914  53.060  1.00  0.00     0.086 C 
HETATM   15  N4  UNL     1      24.608   2.763  50.769  1.00  0.00    -0.383 N 
HETATM   16  H18 UNL     1      24.418   2.169  49.941  1.00  0.00     0.160 HD
ENDROOT
BRANCH   1  17
HETATM   17  C4  UNL     1      26.789   3.341  50.045  1.00  0.00     0.026 C 
HETATM   18  C3  UNL     1      26.544   4.483  49.383  1.00  0.00    -0.008 C 
BRANCH  18  19
HETATM   19  C2  UNL     1      27.312   5.454  48.516  1.00  0.00     0.147 C 
BRANCH  19  20
HETATM   20  N1  UNL     1      26.711   6.753  48.734  1.00  0.00    -0.200 NA
HETATM   21  C1  UNL     1      27.487   7.753  48.046  1.00  0.00     0.143 C 
BRANCH  20  22
HETATM   22  O1  UNL     1      26.558   7.046  50.045  1.00  0.00    -0.313 OA
HETATM   23  H4  UNL     1      26.159   6.241  50.497  1.00  0.00     0.237 HD
ENDBRANCH  20  22
ENDBRANCH  19  20
ENDBRANCH  18  19
ENDBRANCH   1  17
TORSDOF 4
ENDMDL
MODEL 6
REMARK VINA RESULT:      -6.8      3.570      6.377
REMARK  4 active torsions:
REMARK  status: ('A' for Active; 'I' for Inactive)
REMARK    1  A    between atoms: N1_2  and  O1_3 
REMARK    2  A    between atoms: N1_2  and  C2_4 
REMARK    3  A    between atoms: C2_4  and  C3_5 
REMARK    4  A    between atoms: C4_6  and  C5_7 
ROOT
HETATM    1  C5  UNL     1      21.776   0.783  52.505  1.00  0.00     0.029 C 
HETATM    2  C6  UNL     1      22.893   0.174  52.861  1.00  0.00     0.053 C 
HETATM    3  C7  UNL     1      24.209   0.677  53.190  1.00  0.00     0.064 C 
HETATM    4  C8  UNL     1      25.246  -0.286  53.546  1.00  0.00     0.101 C 
HETATM    5  N2  UNL     1      26.079  -1.083  53.824  1.00  0.00    -0.191 NA
HETATM    6  C9  UNL     1      24.681   1.904  53.231  1.00  0.00     0.139 C 
HETATM    7  N3  UNL     1      24.375   3.271  53.048  1.00  0.00    -0.264 NA
HETATM    8  C10 UNL     1      23.732   3.590  51.979  1.00  0.00     0.038 C 
HETATM    9  C11 UNL     1      23.520   5.058  51.998  1.00  0.00     0.051 C 
HETATM   10  C12 UNL     1      22.486   5.700  51.418  1.00  0.00     0.136 C 
HETATM   11  O2  UNL     1      21.439   5.129  50.714  1.00  0.00    -0.361 OA
HETATM   12  C13 UNL     1      20.964   3.854  50.523  1.00  0.00     0.199 C 
HETATM   13  C14 UNL     1      21.708   2.668  50.917  1.00  0.00     0.111 C 
HETATM   14  C15 UNL     1      23.221   2.721  50.845  1.00  0.00     0.086 C 
HETATM   15  N4  UNL     1      21.442   2.174  52.284  1.00  0.00    -0.383 N 
HETATM   16  H18 UNL     1      21.100   2.360  53.244  1.00  0.00     0.160 HD
ENDROOT
BRANCH   1  17
HETATM   17  C4  UNL     1      20.571  -0.029  52.233  1.00  0.00     0.026 C 
HETATM   18  C3  UNL     1      19.245   0.141  52.355  1.00  0.00    -0.008 C 
BRANCH  18  19
HETATM   19  C2  UNL     1      17.991  -0.659  52.087  1.00  0.00     0.147 C 
BRANCH  19  20
HETATM   20  N1  UNL     1      17.474  -1.047  53.382  1.00  0.00    -0.200 NA
HETATM   21  C1  UNL     1      17.775  -2.437  53.614  1.00  0.00     0.143 C 
BRANCH  20  22
HETATM   22  O1  UNL     1      16.154  -0.786  53.518  1.00  0.00    -0.313 OA
HETATM   23  H4  UNL     1      15.666  -1.268  52.783  1.00  0.00     0.237 HD
ENDBRANCH  20  22
ENDBRANCH  19  20
ENDBRANCH  18  19
ENDBRANCH   1  17
TORSDOF 4
ENDMDL
MODEL 7
REMARK VINA RESULT:      -6.8      3.769      7.034
REMARK  4 active torsions:
REMARK  status: ('A' for Active; 'I' for Inactive)
REMARK    1  A    between atoms: N1_2  and  O1_3 
REMARK    2  A    between atoms: N1_2  and  C2_4 
REMARK    3  A    between atoms: C2_4  and  C3_5 
REMARK    4  A    between atoms: C4_6  and  C5_7 
ROOT
HETATM    1  C5  UNL     1      26.447   5.153  49.110  1.00  0.00     0.029 C 
HETATM    2  C6  UNL     1      25.575   5.868  48.422  1.00  0.00     0.053 C 
HETATM    3  C7  UNL     1      24.198   6.227  48.680  1.00  0.00     0.064 C 
HETATM    4  C8  UNL     1      23.503   7.046  47.691  1.00  0.00     0.101 C 
HETATM    5  N2  UNL     1      22.951   7.704  46.873  1.00  0.00    -0.191 NA
HETATM    6  C9  UNL     1      23.403   5.942  49.688  1.00  0.00     0.139 C 
HETATM    7  N3  UNL     1      23.297   5.273  50.928  1.00  0.00    -0.264 NA
HETATM    8  C10 UNL     1      23.746   4.068  50.984  1.00  0.00     0.038 C 
HETATM    9  C11 UNL     1      23.537   3.570  52.365  1.00  0.00     0.051 C 
HETATM   10  C12 UNL     1      24.303   2.649  52.983  1.00  0.00     0.136 C 
HETATM   11  O2  UNL     1      25.416   2.007  52.465  1.00  0.00    -0.361 OA
HETATM   12  C13 UNL     1      26.217   2.168  51.360  1.00  0.00     0.199 C 
HETATM   13  C14 UNL     1      25.867   3.046  50.255  1.00  0.00     0.111 C 
HETATM   14  C15 UNL     1      24.400   3.214  49.914  1.00  0.00     0.086 C 
HETATM   15  N4  UNL     1      26.358   4.436  50.365  1.00  0.00    -0.383 N 
HETATM   16  H18 UNL     1      26.701   5.212  50.960  1.00  0.00     0.160 HD
ENDROOT
BRANCH   1  17
HETATM   17  C4  UNL     1      27.809   4.966  48.569  1.00  0.00     0.026 C 
HETATM   18  C3  UNL     1      28.888   5.743  48.380  1.00  0.00    -0.008 C 
BRANCH  18  19
HETATM   19  C2  UNL     1      30.290   5.588  47.836  1.00  0.00     0.147 C 
BRANCH  19  20
HETATM   20  N1  UNL     1      31.181   6.060  48.874  1.00  0.00    -0.200 NA
HETATM   21  C1  UNL     1      32.544   5.859  48.454  1.00  0.00     0.143 C 
BRANCH  20  22
HETATM   22  O1  UNL     1      30.934   5.490  50.075  1.00  0.00    -0.313 OA
HETATM   23  H4  UNL     1      29.968   5.212  50.092  1.00  0.00     0.237 HD
ENDBRANCH  20  22
ENDBRANCH  19  20
ENDBRANCH  18  19
ENDBRANCH   1  17
TORSDOF 4
ENDMDL
MODEL 8
REMARK VINA RESULT:      -6.7      2.740      5.035
REMARK  4 active torsions:
REMARK  status: ('A' for Active; 'I' for Inactive)
REMARK    1  A    between atoms: N1_2  and  O1_3 
REMARK    2  A    between atoms: N1_2  and  C2_4 
REMARK    3  A    between atoms: C2_4  and  C3_5 
REMARK    4  A    between atoms: C4_6  and  C5_7 
ROOT
HETATM    1  C5  UNL     1      23.233   1.729  51.745  1.00  0.00     0.029 C 
HETATM    2  C6  UNL     1      24.046   1.117  52.588  1.00  0.00     0.053 C 
HETATM    3  C7  UNL     1      23.869  -0.040  53.437  1.00  0.00     0.064 C 
HETATM    4  C8  UNL     1      24.993  -0.464  54.267  1.00  0.00     0.101 C 
HETATM    5  N2  UNL     1      25.912  -0.789  54.942  1.00  0.00    -0.191 NA
HETATM    6  C9  UNL     1      22.833  -0.829  53.620  1.00  0.00     0.139 C 
HETATM    7  N3  UNL     1      21.496  -1.093  53.249  1.00  0.00    -0.264 NA
HETATM    8  C10 UNL     1      20.687  -0.092  53.223  1.00  0.00     0.038 C 
HETATM    9  C11 UNL     1      19.355  -0.596  52.807  1.00  0.00     0.051 C 
HETATM   10  C12 UNL     1      18.424   0.122  52.148  1.00  0.00     0.136 C 
HETATM   11  O2  UNL     1      18.529   1.439  51.731  1.00  0.00    -0.361 OA
HETATM   12  C13 UNL     1      19.543   2.360  51.631  1.00  0.00     0.199 C 
HETATM   13  C14 UNL     1      20.853   2.158  52.231  1.00  0.00     0.111 C 
HETATM   14  C15 UNL     1      20.930   1.375  53.526  1.00  0.00     0.086 C 
HETATM   15  N4  UNL     1      21.855   1.499  51.367  1.00  0.00    -0.383 N 
HETATM   16  H18 UNL     1      22.064   0.900  50.547  1.00  0.00     0.160 HD
ENDROOT
BRANCH   1  17
HETATM   17  C4  UNL     1      23.722   2.911  51.006  1.00  0.00     0.026 C 
HETATM   18  C3  UNL     1      24.020   4.185  51.310  1.00  0.00    -0.008 C 
BRANCH  18  19
HETATM   19  C2  UNL     1      24.523   5.413  50.587  1.00  0.00     0.147 C 
BRANCH  19  20
HETATM   20  N1  UNL     1      23.954   6.551  51.280  1.00  0.00    -0.200 NA
HETATM   21  C1  UNL     1      24.187   7.741  50.503  1.00  0.00     0.143 C 
BRANCH  20  22
HETATM   22  O1  UNL     1      24.412   6.676  52.545  1.00  0.00    -0.313 OA
HETATM   23  H4  UNL     1      23.805   6.147  53.148  1.00  0.00     0.237 HD
ENDBRANCH  20  22
ENDBRANCH  19  20
ENDBRANCH  18  19
ENDBRANCH   1  17
TORSDOF 4
ENDMDL
MODEL 9
REMARK VINA RESULT:      -6.7      3.168      5.151
REMARK  4 active torsions:
REMARK  status: ('A' for Active; 'I' for Inactive)
REMARK    1  A    between atoms: N1_2  and  O1_3 
REMARK    2  A    between atoms: N1_2  and  C2_4 
REMARK    3  A    between atoms: C2_4  and  C3_5 
REMARK    4  A    between atoms: C4_6  and  C5_7 
ROOT
HETATM    1  C5  UNL     1      23.782   1.309  51.584  1.00  0.00     0.029 C 
HETATM    2  C6  UNL     1      23.886   2.445  50.918  1.00  0.00     0.053 C 
HETATM    3  C7  UNL     1      25.022   3.284  50.605  1.00  0.00     0.064 C 
HETATM    4  C8  UNL     1      24.788   4.502  49.836  1.00  0.00     0.101 C 
HETATM    5  N2  UNL     1      24.578   5.493  49.219  1.00  0.00    -0.191 NA
HETATM    6  C9  UNL     1      26.298   3.157  50.896  1.00  0.00     0.139 C 
HETATM    7  N3  UNL     1      27.267   2.354  51.539  1.00  0.00    -0.264 NA
HETATM    8  C10 UNL     1      26.989   1.937  52.724  1.00  0.00     0.038 C 
HETATM    9  C11 UNL     1      28.133   1.119  53.197  1.00  0.00     0.051 C 
HETATM   10  C12 UNL     1      28.049   0.099  54.074  1.00  0.00     0.136 C 
HETATM   11  O2  UNL     1      26.902  -0.381  54.686  1.00  0.00    -0.361 OA
HETATM   12  C13 UNL     1      25.551  -0.197  54.521  1.00  0.00     0.199 C 
HETATM   13  C14 UNL     1      24.994   0.853  53.683  1.00  0.00     0.111 C 
HETATM   14  C15 UNL     1      25.756   2.159  53.579  1.00  0.00     0.086 C 
HETATM   15  N4  UNL     1      24.749   0.481  52.274  1.00  0.00    -0.383 N 
HETATM   16  H18 UNL     1      24.952  -0.142  51.472  1.00  0.00     0.160 HD
ENDROOT
BRANCH   1  17
HETATM   17  C4  UNL     1      22.451   0.683  51.733  1.00  0.00     0.026 C 
HETATM   18  C3  UNL     1      21.202   0.964  51.329  1.00  0.00    -0.008 C 
BRANCH  18  19
HETATM   19  C2  UNL     1      19.826   0.351  51.458  1.00  0.00     0.147 C 
BRANCH  19  20
HETATM   20  N1  UNL     1      19.003   0.992  50.454  1.00  0.00    -0.200 NA
HETATM   21  C1  UNL     1      17.771   0.258  50.315  1.00  0.00     0.143 C 
BRANCH  20  22
HETATM   22  O1  UNL     1      19.639   1.139  49.270  1.00  0.00    -0.313 OA
HETATM   23  H4  UNL     1      20.019   2.070  49.237  1.00  0.00     0.237 HD
ENDBRANCH  20  22
ENDBRANCH  19  20
ENDBRANCH  18  19
ENDBRANCH   1  17
TORSDOF 4
ENDMDL
