MODEL 1
REMARK VINA RESULT:      -8.7      0.000      0.000
REMARK  7 active torsions:
REMARK  status: ('A' for Active; 'I' for Inactive)
REMARK    1  A    between atoms: O1_2  and  C2_3 
REMARK    2  A    between atoms: C5_7  and  N1_8 
REMARK    3  A    between atoms: N1_8  and  C6_9 
REMARK    4  A    between atoms: C10_13  and  C11_14 
REMARK    5  A    between atoms: C16_19  and  N2_20 
REMARK    6  A    between atoms: N2_20  and  C17_21 
REMARK    7  A    between atoms: C17_21  and  N3_22 
ROOT
HETATM    1  C6  UNL     1      24.052   1.417  51.765  1.00  0.00     0.030 A 
HETATM    2  C7  UNL     1      23.066   0.935  52.594  1.00  0.00     0.029 A 
HETATM    3  C8  UNL     1      23.242  -0.026  53.558  1.00  0.00     0.003 A 
HETATM    4  C9  UNL     1      24.501  -0.570  53.726  1.00  0.00     0.012 A 
HETATM    5  C10 UNL     1      25.521  -0.110  52.908  1.00  0.00    -0.021 A 
HETATM    6  C18 UNL     1      25.287   0.858  51.957  1.00  0.00     0.041 A 
ENDROOT
BRANCH   1   7
HETATM    7  N1  UNL     1      23.840   2.416  50.777  1.00  0.00    -0.367 N 
HETATM    8  H7  UNL     1      23.715   2.110  49.789  1.00  0.00     0.161 HD
BRANCH   7   9
HETATM    9  C5  UNL     1      23.786   3.836  51.057  1.00  0.00     0.202 C 
HETATM   10  C4  UNL     1      23.061   4.575  49.972  1.00  0.00     0.222 C 
HETATM   11  O2  UNL     1      23.609   5.825  49.632  1.00  0.00    -0.344 OA
HETATM   12  C3  UNL     1      24.881   5.992  49.044  1.00  0.00     0.110 A 
HETATM   13  C2  UNL     1      25.671   6.657  48.184  1.00  0.00     0.102 A 
HETATM   14  C20 UNL     1      26.056   5.154  49.380  1.00  0.00    -0.002 A 
HETATM   15  C21 UNL     1      26.819   5.810  48.536  1.00  0.00     0.051 A 
HETATM   16  C19 UNL     1      26.110   4.015  50.370  1.00  0.00     0.157 C 
HETATM   17  N4  UNL     1      25.104   4.309  51.365  1.00  0.00    -0.396 N 
HETATM   18  H19 UNL     1      25.164   5.238  51.792  1.00  0.00     0.155 HD
BRANCH  13  19
HETATM   19  O1  UNL     1      25.402   7.723  47.333  1.00  0.00    -0.353 OA
HETATM   20  C1  UNL     1      24.770   8.908  47.776  1.00  0.00     0.210 C 
ENDBRANCH  13  19
ENDBRANCH   7   9
ENDBRANCH   1   7
BRANCH   5  21
HETATM   21  C11 UNL     1      26.842  -0.698  53.104  1.00  0.00     0.003 A 
HETATM   22  C12 UNL     1      26.985  -1.997  52.613  1.00  0.00     0.014 A 
HETATM   23  C13 UNL     1      28.178  -2.689  52.724  1.00  0.00     0.001 A 
HETATM   24  C14 UNL     1      29.290  -2.108  53.335  1.00  0.00     0.002 A 
HETATM   25  C15 UNL     1      29.126  -0.823  53.811  1.00  0.00     0.032 A 
HETATM   26  C16 UNL     1      27.943  -0.123  53.709  1.00  0.00     0.069 A 
BRANCH  26  27
HETATM   27  N2  UNL     1      27.742   1.198  54.189  1.00  0.00    -0.244 NA
BRANCH  27  28
HETATM   28  C17 UNL     1      28.575   2.101  53.786  1.00  0.00     0.200 C 
BRANCH  28  29
HETATM   29  N3  UNL     1      29.763   2.392  54.541  1.00  0.00    -0.394 N 
HETATM   30  H16 UNL     1      30.552   3.003  54.183  1.00  0.00     0.156 HD
HETATM   31  H17 UNL     1      30.510   2.455  55.259  1.00  0.00     0.156 HD
ENDBRANCH  28  29
ENDBRANCH  27  28
ENDBRANCH  26  27
ENDBRANCH   5  21
TORSDOF 7
ENDMDL
MODEL 2
REMARK VINA RESULT:      -8.4      1.231      1.421
REMARK  7 active torsions:
REMARK  status: ('A' for Active; 'I' for Inactive)
REMARK    1  A    between atoms: O1_2  and  C2_3 
REMARK    2  A    between atoms: C5_7  and  N1_8 
REMARK    3  A    between atoms: N1_8  and  C6_9 
REMARK    4  A    between atoms: C10_13  and  C11_14 
REMARK    5  A    between atoms: C16_19  and  N2_20 
REMARK    6  A    between atoms: N2_20  and  C17_21 
REMARK    7  A    between atoms: C17_21  and  N3_22 
ROOT
HETATM    1  C6  UNL     1      23.975   1.498  52.268  1.00  0.00     0.030 A 
HETATM    2  C7  UNL     1      23.007   0.849  52.999  1.00  0.00     0.029 A 
HETATM    3  C8  UNL     1      23.215  -0.262  53.777  1.00  0.00     0.003 A 
HETATM    4  C9  UNL     1      24.490  -0.791  53.847  1.00  0.00     0.012 A 
HETATM    5  C10 UNL     1      25.492  -0.164  53.123  1.00  0.00    -0.021 A 
HETATM    6  C18 UNL     1      25.226   0.950  52.359  1.00  0.00     0.041 A 
ENDROOT
BRANCH   1   7
HETATM    7  N1  UNL     1      23.729   2.649  51.472  1.00  0.00    -0.367 N 
HETATM    8  H7  UNL     1      23.149   2.538  50.614  1.00  0.00     0.161 HD
BRANCH   7   9
HETATM    9  C5  UNL     1      24.236   3.972  51.779  1.00  0.00     0.202 C 
HETATM   10  C4  UNL     1      23.119   4.963  51.907  1.00  0.00     0.222 C 
HETATM   11  O2  UNL     1      23.383   6.234  51.367  1.00  0.00    -0.344 OA
HETATM   12  C3  UNL     1      23.587   6.479  49.992  1.00  0.00     0.110 A 
HETATM   13  C2  UNL     1      23.421   7.288  48.933  1.00  0.00     0.102 A 
HETATM   14  C20 UNL     1      24.294   5.541  49.089  1.00  0.00    -0.002 A 
HETATM   15  C21 UNL     1      24.125   6.339  48.059  1.00  0.00     0.051 A 
HETATM   16  C19 UNL     1      24.901   4.208  49.453  1.00  0.00     0.157 C 
HETATM   17  N4  UNL     1      25.271   4.310  50.846  1.00  0.00    -0.396 N 
HETATM   18  H19 UNL     1      25.853   5.117  51.090  1.00  0.00     0.155 HD
BRANCH  13  19
HETATM   19  O1  UNL     1      22.802   8.527  48.817  1.00  0.00    -0.353 OA
HETATM   20  C1  UNL     1      21.498   8.774  49.305  1.00  0.00     0.210 C 
ENDBRANCH  13  19
ENDBRANCH   7   9
ENDBRANCH   1   7
BRANCH   5  21
HETATM   21  C11 UNL     1      26.831  -0.738  53.213  1.00  0.00     0.003 A 
HETATM   22  C12 UNL     1      26.954  -2.023  52.683  1.00  0.00     0.014 A 
HETATM   23  C13 UNL     1      28.160  -2.702  52.693  1.00  0.00     0.001 A 
HETATM   24  C14 UNL     1      29.305  -2.120  53.239  1.00  0.00     0.002 A 
HETATM   25  C15 UNL     1      29.160  -0.849  53.757  1.00  0.00     0.032 A 
HETATM   26  C16 UNL     1      27.965  -0.162  53.754  1.00  0.00     0.069 A 
BRANCH  26  27
HETATM   27  N2  UNL     1      27.782   1.144  54.278  1.00  0.00    -0.244 NA
BRANCH  27  28
HETATM   28  C17 UNL     1      28.594   2.061  53.862  1.00  0.00     0.200 C 
BRANCH  28  29
HETATM   29  N3  UNL     1      29.788   2.371  54.599  1.00  0.00    -0.394 N 
HETATM   30  H16 UNL     1      30.657   1.765  54.592  1.00  0.00     0.156 HD
HETATM   31  H17 UNL     1      30.517   2.798  55.203  1.00  0.00     0.156 HD
ENDBRANCH  28  29
ENDBRANCH  27  28
ENDBRANCH  26  27
ENDBRANCH   5  21
TORSDOF 7
ENDMDL
MODEL 3
REMARK VINA RESULT:      -8.3      4.190      5.887
REMARK  7 active torsions:
REMARK  status: ('A' for Active; 'I' for Inactive)
REMARK    1  A    between atoms: O1_2  and  C2_3 
REMARK    2  A    between atoms: C5_7  and  N1_8 
REMARK    3  A    between atoms: N1_8  and  C6_9 
REMARK    4  A    between atoms: C10_13  and  C11_14 
REMARK    5  A    between atoms: C16_19  and  N2_20 
REMARK    6  A    between atoms: N2_20  and  C17_21 
REMARK    7  A    between atoms: C17_21  and  N3_22 
ROOT
HETATM    1  C6  UNL     1      22.232  -0.031  52.582  1.00  0.00     0.030 A 
HETATM    2  C7  UNL     1      21.864  -0.793  53.667  1.00  0.00     0.029 A 
HETATM    3  C8  UNL     1      22.703  -1.180  54.682  1.00  0.00     0.003 A 
HETATM    4  C9  UNL     1      24.027  -0.787  54.632  1.00  0.00     0.012 A 
HETATM    5  C10 UNL     1      24.434  -0.019  53.552  1.00  0.00    -0.021 A 
HETATM    6  C18 UNL     1      23.549   0.342  52.562  1.00  0.00     0.041 A 
ENDROOT
BRANCH   1   7
HETATM    7  N1  UNL     1      21.339   0.357  51.546  1.00  0.00    -0.367 N 
HETATM    8  H7  UNL     1      20.845  -0.393  51.018  1.00  0.00     0.161 HD
BRANCH   7   9
HETATM    9  C5  UNL     1      21.072   1.732  51.177  1.00  0.00     0.202 C 
HETATM   10  C4  UNL     1      20.639   2.537  52.365  1.00  0.00     0.222 C 
HETATM   11  O2  UNL     1      19.619   3.471  52.114  1.00  0.00    -0.344 OA
HETATM   12  C3  UNL     1      18.304   3.119  51.737  1.00  0.00     0.110 A 
HETATM   13  C2  UNL     1      16.985   3.362  51.808  1.00  0.00     0.102 A 
HETATM   14  C20 UNL     1      17.984   1.976  50.851  1.00  0.00    -0.002 A 
HETATM   15  C21 UNL     1      16.696   2.222  50.927  1.00  0.00     0.051 A 
HETATM   16  C19 UNL     1      18.960   1.017  50.212  1.00  0.00     0.157 C 
HETATM   17  N4  UNL     1      20.190   1.757  50.047  1.00  0.00    -0.396 N 
HETATM   18  H19 UNL     1      20.104   2.654  49.560  1.00  0.00     0.155 HD
BRANCH  13  19
HETATM   19  O1  UNL     1      16.272   4.344  52.487  1.00  0.00    -0.353 OA
HETATM   20  C1  UNL     1      15.005   4.099  53.067  1.00  0.00     0.210 C 
ENDBRANCH  13  19
ENDBRANCH   7   9
ENDBRANCH   1   7
BRANCH   5  21
HETATM   21  C11 UNL     1      25.836   0.386  53.521  1.00  0.00     0.003 A 
HETATM   22  C12 UNL     1      26.057   1.751  53.712  1.00  0.00     0.014 A 
HETATM   23  C13 UNL     1      27.331   2.289  53.709  1.00  0.00     0.001 A 
HETATM   24  C14 UNL     1      28.451   1.479  53.513  1.00  0.00     0.002 A 
HETATM   25  C15 UNL     1      28.209   0.133  53.327  1.00  0.00     0.032 A 
HETATM   26  C16 UNL     1      26.945  -0.416  53.327  1.00  0.00     0.069 A 
BRANCH  26  27
HETATM   27  N2  UNL     1      26.662  -1.794  53.138  1.00  0.00    -0.244 NA
BRANCH  27  28
HETATM   28  C17 UNL     1      27.556  -2.497  52.522  1.00  0.00     0.200 C 
BRANCH  28  29
HETATM   29  N3  UNL     1      28.538  -3.243  53.260  1.00  0.00    -0.394 N 
HETATM   30  H16 UNL     1      28.673  -4.290  53.167  1.00  0.00     0.156 HD
HETATM   31  H17 UNL     1      29.302  -3.554  53.890  1.00  0.00     0.156 HD
ENDBRANCH  28  29
ENDBRANCH  27  28
ENDBRANCH  26  27
ENDBRANCH   5  21
TORSDOF 7
ENDMDL
MODEL 4
REMARK VINA RESULT:      -8.2      2.173      3.179
REMARK  7 active torsions:
REMARK  status: ('A' for Active; 'I' for Inactive)
REMARK    1  A    between atoms: O1_2  and  C2_3 
REMARK    2  A    between atoms: C5_7  and  N1_8 
REMARK    3  A    between atoms: N1_8  and  C6_9 
REMARK    4  A    between atoms: C10_13  and  C11_14 
REMARK    5  A    between atoms: C16_19  and  N2_20 
REMARK    6  A    between atoms: N2_20  and  C17_21 
REMARK    7  A    between atoms: C17_21  and  N3_22 
ROOT
HETATM    1  C6  UNL     1      23.096   2.491  50.343  1.00  0.00     0.030 A 
HETATM    2  C7  UNL     1      21.974   1.963  49.749  1.00  0.00     0.029 A 
HETATM    3  C8  UNL     1      21.280   0.869  50.201  1.00  0.00     0.003 A 
HETATM    4  C9  UNL     1      21.725   0.229  51.342  1.00  0.00     0.012 A 
HETATM    5  C10 UNL     1      22.855   0.732  51.969  1.00  0.00    -0.021 A 
HETATM    6  C18 UNL     1      23.511   1.835  51.471  1.00  0.00     0.041 A 
ENDROOT
BRANCH   1   7
HETATM    7  N1  UNL     1      23.794   3.628  49.852  1.00  0.00    -0.367 N 
HETATM    8  H7  UNL     1      23.744   3.831  48.831  1.00  0.00     0.161 HD
BRANCH   7   9
HETATM    9  C5  UNL     1      24.571   4.525  50.682  1.00  0.00     0.202 C 
HETATM   10  C4  UNL     1      24.269   5.958  50.362  1.00  0.00     0.222 C 
HETATM   11  O2  UNL     1      25.380   6.820  50.377  1.00  0.00    -0.344 OA
HETATM   12  C3  UNL     1      26.458   6.731  49.470  1.00  0.00     0.110 A 
HETATM   13  C2  UNL     1      27.386   7.354  48.724  1.00  0.00     0.102 A 
HETATM   14  C20 UNL     1      26.994   5.449  48.957  1.00  0.00    -0.002 A 
HETATM   15  C21 UNL     1      27.897   6.068  48.231  1.00  0.00     0.051 A 
HETATM   16  C19 UNL     1      26.510   4.059  49.293  1.00  0.00     0.157 C 
HETATM   17  N4  UNL     1      25.953   4.146  50.624  1.00  0.00    -0.396 N 
HETATM   18  H19 UNL     1      26.566   4.560  51.332  1.00  0.00     0.155 HD
BRANCH  13  19
HETATM   19  O1  UNL     1      27.667   8.705  48.556  1.00  0.00    -0.353 OA
HETATM   20  C1  UNL     1      28.240   9.496  49.579  1.00  0.00     0.210 C 
ENDBRANCH  13  19
ENDBRANCH   7   9
ENDBRANCH   1   7
BRANCH   5  21
HETATM   21  C11 UNL     1      23.306   0.042  53.172  1.00  0.00     0.003 A 
HETATM   22  C12 UNL     1      22.286  -0.515  53.946  1.00  0.00     0.014 A 
HETATM   23  C13 UNL     1      22.554  -1.201  55.118  1.00  0.00     0.001 A 
HETATM   24  C14 UNL     1      23.864  -1.363  55.570  1.00  0.00     0.002 A 
HETATM   25  C15 UNL     1      24.856  -0.805  54.788  1.00  0.00     0.032 A 
HETATM   26  C16 UNL     1      24.603  -0.119  53.621  1.00  0.00     0.069 A 
BRANCH  26  27
HETATM   27  N2  UNL     1      25.599   0.466  52.795  1.00  0.00    -0.244 NA
BRANCH  27  28
HETATM   28  C17 UNL     1      26.554   1.103  53.391  1.00  0.00     0.200 C 
BRANCH  28  29
HETATM   29  N3  UNL     1      26.323   2.397  53.971  1.00  0.00    -0.394 N 
HETATM   30  H16 UNL     1      26.655   3.305  53.535  1.00  0.00     0.156 HD
HETATM   31  H17 UNL     1      26.041   3.197  54.570  1.00  0.00     0.156 HD
ENDBRANCH  28  29
ENDBRANCH  27  28
ENDBRANCH  26  27
ENDBRANCH   5  21
TORSDOF 7
ENDMDL
MODEL 5
REMARK VINA RESULT:      -7.8      2.363      4.009
REMARK  7 active torsions:
REMARK  status: ('A' for Active; 'I' for Inactive)
REMARK    1  A    between atoms: O1_2  and  C2_3 
REMARK    2  A    between atoms: C5_7  and  N1_8 
REMARK    3  A    between atoms: N1_8  and  C6_9 
REMARK    4  A    between atoms: C10_13  and  C11_14 
REMARK    5  A    between atoms: C16_19  and  N2_20 
REMARK    6  A    between atoms: N2_20  and  C17_21 
REMARK    7  A    between atoms: C17_21  and  N3_22 
ROOT
HETATM    1  C6  UNL     1      24.971   3.684  50.303  1.00  0.00     0.030 A 
HETATM    2  C7  UNL     1      23.916   3.526  49.435  1.00  0.00     0.029 A 
HETATM    3  C8  UNL     1      22.940   2.568  49.543  1.00  0.00     0.003 A 
HETATM    4  C9  UNL     1      23.000   1.679  50.600  1.00  0.00     0.012 A 
HETATM    5  C10 UNL     1      24.050   1.808  51.496  1.00  0.00    -0.021 A 
HETATM    6  C18 UNL     1      25.002   2.789  51.338  1.00  0.00     0.041 A 
ENDROOT
BRANCH   1   7
HETATM    7  N1  UNL     1      25.968   4.689  50.166  1.00  0.00    -0.367 N 
HETATM    8  H7  UNL     1      26.570   4.898  50.989  1.00  0.00     0.161 HD
BRANCH   7   9
HETATM    9  C5  UNL     1      26.200   5.442  48.950  1.00  0.00     0.202 C 
HETATM   10  C4  UNL     1      27.663   5.524  48.635  1.00  0.00     0.222 C 
HETATM   11  O2  UNL     1      28.096   6.762  48.127  1.00  0.00    -0.344 OA
HETATM   12  C3  UNL     1      28.076   7.966  48.865  1.00  0.00     0.110 A 
HETATM   13  C2  UNL     1      28.655   9.141  49.161  1.00  0.00     0.102 A 
HETATM   14  C20 UNL     1      27.011   8.316  49.833  1.00  0.00    -0.002 A 
HETATM   15  C21 UNL     1      27.586   9.463  50.115  1.00  0.00     0.051 A 
HETATM   16  C19 UNL     1      25.800   7.490  50.195  1.00  0.00     0.157 C 
HETATM   17  N4  UNL     1      25.503   6.693  49.028  1.00  0.00    -0.396 N 
HETATM   18  H19 UNL     1      25.408   7.213  48.151  1.00  0.00     0.155 HD
BRANCH  13  19
HETATM   19  O1  UNL     1      29.822   9.730  48.686  1.00  0.00    -0.353 OA
HETATM   20  C1  UNL     1      31.088   9.110  48.802  1.00  0.00     0.210 C 
ENDBRANCH  13  19
ENDBRANCH   7   9
ENDBRANCH   1   7
BRANCH   5  21
HETATM   21  C11 UNL     1      24.092   0.860  52.604  1.00  0.00     0.003 A 
HETATM   22  C12 UNL     1      22.844   0.418  53.046  1.00  0.00     0.014 A 
HETATM   23  C13 UNL     1      22.719  -0.482  54.090  1.00  0.00     0.001 A 
HETATM   24  C14 UNL     1      23.846  -0.985  54.742  1.00  0.00     0.002 A 
HETATM   25  C15 UNL     1      25.069  -0.535  54.287  1.00  0.00     0.032 A 
HETATM   26  C16 UNL     1      25.208   0.362  53.250  1.00  0.00     0.069 A 
BRANCH  26  27
HETATM   27  N2  UNL     1      26.450   0.844  52.760  1.00  0.00    -0.244 NA
BRANCH  27  28
HETATM   28  C17 UNL     1      27.337   1.179  53.639  1.00  0.00     0.200 C 
BRANCH  28  29
HETATM   29  N3  UNL     1      27.625   2.562  53.900  1.00  0.00    -0.394 N 
HETATM   30  H16 UNL     1      28.269   2.893  54.674  1.00  0.00     0.156 HD
HETATM   31  H17 UNL     1      27.677   3.599  53.894  1.00  0.00     0.156 HD
ENDBRANCH  28  29
ENDBRANCH  27  28
ENDBRANCH  26  27
ENDBRANCH   5  21
TORSDOF 7
ENDMDL
MODEL 6
REMARK VINA RESULT:      -7.8      2.929      4.885
REMARK  7 active torsions:
REMARK  status: ('A' for Active; 'I' for Inactive)
REMARK    1  A    between atoms: O1_2  and  C2_3 
REMARK    2  A    between atoms: C5_7  and  N1_8 
REMARK    3  A    between atoms: N1_8  and  C6_9 
REMARK    4  A    between atoms: C10_13  and  C11_14 
REMARK    5  A    between atoms: C16_19  and  N2_20 
REMARK    6  A    between atoms: N2_20  and  C17_21 
REMARK    7  A    between atoms: C17_21  and  N3_22 
ROOT
HETATM    1  C6  UNL     1      24.996   3.033  51.600  1.00  0.00     0.030 A 
HETATM    2  C7  UNL     1      26.220   2.422  51.466  1.00  0.00     0.029 A 
HETATM    3  C8  UNL     1      26.512   1.139  51.859  1.00  0.00     0.003 A 
HETATM    4  C9  UNL     1      25.511   0.382  52.438  1.00  0.00     0.012 A 
HETATM    5  C10 UNL     1      24.263   0.965  52.590  1.00  0.00    -0.021 A 
HETATM    6  C18 UNL     1      24.027   2.257  52.176  1.00  0.00     0.041 A 
ENDROOT
BRANCH   1   7
HETATM    7  N1  UNL     1      24.723   4.364  51.181  1.00  0.00    -0.367 N 
HETATM    8  H7  UNL     1      25.211   4.721  50.333  1.00  0.00     0.161 HD
BRANCH   7   9
HETATM    9  C5  UNL     1      23.807   5.257  51.861  1.00  0.00     0.202 C 
HETATM   10  C4  UNL     1      22.446   5.215  51.236  1.00  0.00     0.222 C 
HETATM   11  O2  UNL     1      21.790   6.456  51.149  1.00  0.00    -0.344 OA
HETATM   12  C3  UNL     1      22.241   7.530  50.351  1.00  0.00     0.110 A 
HETATM   13  C2  UNL     1      21.947   8.573  49.557  1.00  0.00     0.102 A 
HETATM   14  C20 UNL     1      23.672   7.854  50.147  1.00  0.00    -0.002 A 
HETATM   15  C21 UNL     1      23.374   8.872  49.371  1.00  0.00     0.051 A 
HETATM   16  C19 UNL     1      24.863   7.130  50.727  1.00  0.00     0.157 C 
HETATM   17  N4  UNL     1      24.407   6.555  51.972  1.00  0.00    -0.396 N 
HETATM   18  H19 UNL     1      23.957   7.207  52.620  1.00  0.00     0.155 HD
BRANCH  13  19
HETATM   19  O1  UNL     1      20.726   9.086  49.136  1.00  0.00    -0.353 OA
HETATM   20  C1  UNL     1      19.512   8.804  49.805  1.00  0.00     0.210 C 
ENDBRANCH  13  19
ENDBRANCH   7   9
ENDBRANCH   1   7
BRANCH   5  21
HETATM   21  C11 UNL     1      23.221   0.146  53.202  1.00  0.00     0.003 A 
HETATM   22  C12 UNL     1      23.610  -0.525  54.363  1.00  0.00     0.014 A 
HETATM   23  C13 UNL     1      22.736  -1.341  55.059  1.00  0.00     0.001 A 
HETATM   24  C14 UNL     1      21.423  -1.522  54.621  1.00  0.00     0.002 A 
HETATM   25  C15 UNL     1      21.060  -0.847  53.473  1.00  0.00     0.032 A 
HETATM   26  C16 UNL     1      21.921  -0.033  52.770  1.00  0.00     0.069 A 
BRANCH  26  27
HETATM   27  N2  UNL     1      21.580   0.673  51.586  1.00  0.00    -0.244 NA
BRANCH  27  28
HETATM   28  C17 UNL     1      20.455   1.308  51.587  1.00  0.00     0.200 C 
BRANCH  28  29
HETATM   29  N3  UNL     1      20.284   2.498  52.375  1.00  0.00    -0.394 N 
HETATM   30  H16 UNL     1      20.579   2.578  53.390  1.00  0.00     0.156 HD
HETATM   31  H17 UNL     1      20.060   3.447  52.731  1.00  0.00     0.156 HD
ENDBRANCH  28  29
ENDBRANCH  27  28
ENDBRANCH  26  27
ENDBRANCH   5  21
TORSDOF 7
ENDMDL
MODEL 7
REMARK VINA RESULT:      -7.7      2.881      4.356
REMARK  7 active torsions:
REMARK  status: ('A' for Active; 'I' for Inactive)
REMARK    1  A    between atoms: O1_2  and  C2_3 
REMARK    2  A    between atoms: C5_7  and  N1_8 
REMARK    3  A    between atoms: N1_8  and  C6_9 
REMARK    4  A    between atoms: C10_13  and  C11_14 
REMARK    5  A    between atoms: C16_19  and  N2_20 
REMARK    6  A    between atoms: N2_20  and  C17_21 
REMARK    7  A    between atoms: C17_21  and  N3_22 
ROOT
HETATM    1  C6  UNL     1      25.059   3.053  51.623  1.00  0.00     0.030 A 
HETATM    2  C7  UNL     1      26.240   2.433  51.287  1.00  0.00     0.029 A 
HETATM    3  C8  UNL     1      26.560   1.130  51.575  1.00  0.00     0.003 A 
HETATM    4  C9  UNL     1      25.638   0.359  52.257  1.00  0.00     0.012 A 
HETATM    5  C10 UNL     1      24.436   0.949  52.614  1.00  0.00    -0.021 A 
HETATM    6  C18 UNL     1      24.168   2.262  52.297  1.00  0.00     0.041 A 
ENDROOT
BRANCH   1   7
HETATM    7  N1  UNL     1      24.755   4.405  51.309  1.00  0.00    -0.367 N 
HETATM    8  H7  UNL     1      25.255   4.847  50.509  1.00  0.00     0.161 HD
BRANCH   7   9
HETATM    9  C5  UNL     1      23.792   5.210  52.032  1.00  0.00     0.202 C 
HETATM   10  C4  UNL     1      22.405   5.001  51.503  1.00  0.00     0.222 C 
HETATM   11  O2  UNL     1      21.610   6.159  51.437  1.00  0.00    -0.344 OA
HETATM   12  C3  UNL     1      21.884   7.254  50.590  1.00  0.00     0.110 A 
HETATM   13  C2  UNL     1      21.425   8.237  49.798  1.00  0.00     0.102 A 
HETATM   14  C20 UNL     1      23.254   7.729  50.282  1.00  0.00    -0.002 A 
HETATM   15  C21 UNL     1      22.794   8.686  49.509  1.00  0.00     0.051 A 
HETATM   16  C19 UNL     1      24.554   7.156  50.793  1.00  0.00     0.157 C 
HETATM   17  N4  UNL     1      24.248   6.569  52.077  1.00  0.00    -0.396 N 
HETATM   18  H19 UNL     1      23.772   7.184  52.742  1.00  0.00     0.155 HD
BRANCH  13  19
HETATM   19  O1  UNL     1      20.128   8.600  49.451  1.00  0.00    -0.353 OA
HETATM   20  C1  UNL     1      19.794   9.907  49.024  1.00  0.00     0.210 C 
ENDBRANCH  13  19
ENDBRANCH   7   9
ENDBRANCH   1   7
BRANCH   5  21
HETATM   21  C11 UNL     1      23.478   0.116  53.332  1.00  0.00     0.003 A 
HETATM   22  C12 UNL     1      22.146   0.294  52.954  1.00  0.00     0.014 A 
HETATM   23  C13 UNL     1      21.120  -0.423  53.543  1.00  0.00     0.001 A 
HETATM   24  C14 UNL     1      21.383  -1.358  54.546  1.00  0.00     0.002 A 
HETATM   25  C15 UNL     1      22.706  -1.518  54.903  1.00  0.00     0.032 A 
HETATM   26  C16 UNL     1      23.738  -0.810  54.325  1.00  0.00     0.069 A 
BRANCH  26  27
HETATM   27  N2  UNL     1      25.107  -0.951  54.669  1.00  0.00    -0.244 NA
BRANCH  27  28
HETATM   28  C17 UNL     1      25.474  -0.485  55.818  1.00  0.00     0.200 C 
BRANCH  28  29
HETATM   29  N3  UNL     1      25.311  -1.267  57.013  1.00  0.00    -0.394 N 
HETATM   30  H16 UNL     1      25.145  -2.314  57.013  1.00  0.00     0.156 HD
HETATM   31  H17 UNL     1      25.224  -1.607  57.990  1.00  0.00     0.156 HD
ENDBRANCH  28  29
ENDBRANCH  27  28
ENDBRANCH  26  27
ENDBRANCH   5  21
TORSDOF 7
ENDMDL
MODEL 8
REMARK VINA RESULT:      -7.7      2.662      4.296
REMARK  7 active torsions:
REMARK  status: ('A' for Active; 'I' for Inactive)
REMARK    1  A    between atoms: O1_2  and  C2_3 
REMARK    2  A    between atoms: C5_7  and  N1_8 
REMARK    3  A    between atoms: N1_8  and  C6_9 
REMARK    4  A    between atoms: C10_13  and  C11_14 
REMARK    5  A    between atoms: C16_19  and  N2_20 
REMARK    6  A    between atoms: N2_20  and  C17_21 
REMARK    7  A    between atoms: C17_21  and  N3_22 
ROOT
HETATM    1  C6  UNL     1      23.224   2.364  50.315  1.00  0.00     0.030 A 
HETATM    2  C7  UNL     1      22.077   1.900  49.716  1.00  0.00     0.029 A 
HETATM    3  C8  UNL     1      21.300   0.870  50.185  1.00  0.00     0.003 A 
HETATM    4  C9  UNL     1      21.681   0.233  51.351  1.00  0.00     0.012 A 
HETATM    5  C10 UNL     1      22.833   0.673  51.983  1.00  0.00    -0.021 A 
HETATM    6  C18 UNL     1      23.574   1.713  51.468  1.00  0.00     0.041 A 
ENDROOT
BRANCH   1   7
HETATM    7  N1  UNL     1      24.008   3.436  49.806  1.00  0.00    -0.367 N 
HETATM    8  H7  UNL     1      24.086   3.538  48.773  1.00  0.00     0.161 HD
BRANCH   7   9
HETATM    9  C5  UNL     1      24.706   4.396  50.636  1.00  0.00     0.202 C 
HETATM   10  C4  UNL     1      24.277   5.797  50.319  1.00  0.00     0.222 C 
HETATM   11  O2  UNL     1      25.307   6.755  50.332  1.00  0.00    -0.344 OA
HETATM   12  C3  UNL     1      26.385   6.763  49.421  1.00  0.00     0.110 A 
HETATM   13  C2  UNL     1      27.252   7.467  48.673  1.00  0.00     0.102 A 
HETATM   14  C20 UNL     1      27.031   5.534  48.904  1.00  0.00    -0.002 A 
HETATM   15  C21 UNL     1      27.873   6.231  48.176  1.00  0.00     0.051 A 
HETATM   16  C19 UNL     1      26.673   4.106  49.239  1.00  0.00     0.157 C 
HETATM   17  N4  UNL     1      26.116   4.142  50.572  1.00  0.00    -0.396 N 
HETATM   18  H19 UNL     1      26.692   4.607  51.279  1.00  0.00     0.155 HD
BRANCH  13  19
HETATM   19  O1  UNL     1      27.411   8.837  48.506  1.00  0.00    -0.353 OA
HETATM   20  C1  UNL     1      26.477   9.777  49.000  1.00  0.00     0.210 C 
ENDBRANCH  13  19
ENDBRANCH   7   9
ENDBRANCH   1   7
BRANCH   5  21
HETATM   21  C11 UNL     1      23.215  -0.013  53.213  1.00  0.00     0.003 A 
HETATM   22  C12 UNL     1      24.592  -0.129  53.416  1.00  0.00     0.014 A 
HETATM   23  C13 UNL     1      25.112  -0.755  54.535  1.00  0.00     0.001 A 
HETATM   24  C14 UNL     1      24.271  -1.296  55.509  1.00  0.00     0.002 A 
HETATM   25  C15 UNL     1      22.915  -1.169  55.288  1.00  0.00     0.032 A 
HETATM   26  C16 UNL     1      22.384  -0.550  54.177  1.00  0.00     0.069 A 
BRANCH  26  27
HETATM   27  N2  UNL     1      20.995  -0.403  53.920  1.00  0.00    -0.244 NA
BRANCH  27  28
HETATM   28  C17 UNL     1      20.252  -1.444  54.105  1.00  0.00     0.200 C 
BRANCH  28  29
HETATM   29  N3  UNL     1      18.862  -1.428  53.739  1.00  0.00    -0.394 N 
HETATM   30  H16 UNL     1      18.163  -2.160  54.052  1.00  0.00     0.156 HD
HETATM   31  H17 UNL     1      17.926  -1.206  53.349  1.00  0.00     0.156 HD
ENDBRANCH  28  29
ENDBRANCH  27  28
ENDBRANCH  26  27
ENDBRANCH   5  21
TORSDOF 7
ENDMDL
MODEL 9
REMARK VINA RESULT:      -7.6      2.593      5.065
REMARK  7 active torsions:
REMARK  status: ('A' for Active; 'I' for Inactive)
REMARK    1  A    between atoms: O1_2  and  C2_3 
REMARK    2  A    between atoms: C5_7  and  N1_8 
REMARK    3  A    between atoms: N1_8  and  C6_9 
REMARK    4  A    between atoms: C10_13  and  C11_14 
REMARK    5  A    between atoms: C16_19  and  N2_20 
REMARK    6  A    between atoms: N2_20  and  C17_21 
REMARK    7  A    between atoms: C17_21  and  N3_22 
ROOT
HETATM    1  C6  UNL     1      25.685   2.721  51.481  1.00  0.00     0.030 A 
HETATM    2  C7  UNL     1      26.722   1.825  51.605  1.00  0.00     0.029 A 
HETATM    3  C8  UNL     1      26.602   0.533  52.053  1.00  0.00     0.003 A 
HETATM    4  C9  UNL     1      25.350   0.073  52.415  1.00  0.00     0.012 A 
HETATM    5  C10 UNL     1      24.281   0.948  52.304  1.00  0.00    -0.021 A 
HETATM    6  C18 UNL     1      24.459   2.234  51.847  1.00  0.00     0.041 A 
ENDROOT
BRANCH   1   7
HETATM    7  N1  UNL     1      25.840   4.054  51.011  1.00  0.00    -0.367 N 
HETATM    8  H7  UNL     1      25.949   4.812  51.717  1.00  0.00     0.161 HD
BRANCH   7   9
HETATM    9  C5  UNL     1      25.857   4.424  49.611  1.00  0.00     0.202 C 
HETATM   10  C4  UNL     1      27.258   4.485  49.084  1.00  0.00     0.222 C 
HETATM   11  O2  UNL     1      27.514   5.538  48.187  1.00  0.00    -0.344 OA
HETATM   12  C3  UNL     1      27.475   6.903  48.544  1.00  0.00     0.110 A 
HETATM   13  C2  UNL     1      27.977   8.141  48.407  1.00  0.00     0.102 A 
HETATM   14  C20 UNL     1      26.505   7.469  49.511  1.00  0.00    -0.002 A 
HETATM   15  C21 UNL     1      27.004   8.676  49.369  1.00  0.00     0.051 A 
HETATM   16  C19 UNL     1      25.426   6.726  50.261  1.00  0.00     0.157 C 
HETATM   17  N4  UNL     1      25.064   5.605  49.424  1.00  0.00    -0.396 N 
HETATM   18  H19 UNL     1      24.819   5.836  48.457  1.00  0.00     0.155 HD
BRANCH  13  19
HETATM   19  O1  UNL     1      29.021   8.622  47.625  1.00  0.00    -0.353 OA
HETATM   20  C1  UNL     1      29.611   7.858  46.591  1.00  0.00     0.210 C 
ENDBRANCH  13  19
ENDBRANCH   7   9
ENDBRANCH   1   7
BRANCH   5  21
HETATM   21  C11 UNL     1      22.969   0.440  52.691  1.00  0.00     0.003 A 
HETATM   22  C12 UNL     1      22.936  -0.229  53.916  1.00  0.00     0.014 A 
HETATM   23  C13 UNL     1      21.766  -0.769  54.420  1.00  0.00     0.001 A 
HETATM   24  C14 UNL     1      20.566  -0.661  53.715  1.00  0.00     0.002 A 
HETATM   25  C15 UNL     1      20.622   0.005  52.508  1.00  0.00     0.032 A 
HETATM   26  C16 UNL     1      21.780   0.546  51.994  1.00  0.00     0.069 A 
BRANCH  26  27
HETATM   27  N2  UNL     1      21.871   1.236  50.756  1.00  0.00    -0.244 NA
BRANCH  27  28
HETATM   28  C17 UNL     1      21.309   0.680  49.733  1.00  0.00     0.200 C 
BRANCH  28  29
HETATM   29  N3  UNL     1      20.331   1.392  48.957  1.00  0.00    -0.394 N 
HETATM   30  H16 UNL     1      20.204   2.444  48.993  1.00  0.00     0.156 HD
HETATM   31  H17 UNL     1      19.567   1.675  48.313  1.00  0.00     0.156 HD
ENDBRANCH  28  29
ENDBRANCH  27  28
ENDBRANCH  26  27
ENDBRANCH   5  21
TORSDOF 7
ENDMDL
