MODEL 1
REMARK VINA RESULT:      -7.9      0.000      0.000
REMARK  0 active torsions:
REMARK  status: ('A' for Active; 'I' for Inactive)
ROOT
HETATM    1  C1  UNL     1      23.936   4.539  50.482  1.00  0.00     0.081 C 
HETATM    2  C2  UNL     1      23.701   4.805  51.743  1.00  0.00     0.035 C 
HETATM    3  C3  UNL     1      23.644   3.481  52.356  1.00  0.00     0.026 C 
HETATM    4  C4  UNL     1      22.526   2.705  52.416  1.00  0.00     0.135 C 
HETATM    5  O1  UNL     1      21.916   1.485  52.826  1.00  0.00    -0.361 OA
HETATM    6  C5  UNL     1      22.319   0.315  52.100  1.00  0.00     0.200 C 
HETATM    7  C6  UNL     1      22.931  -0.628  53.126  1.00  0.00     0.194 C 
HETATM    8  O2  UNL     1      24.012   0.035  53.757  1.00  0.00    -0.387 OA
HETATM    9  C7  UNL     1      24.675  -0.856  54.543  1.00  0.00     0.193 C 
HETATM   10  C8  UNL     1      25.785  -0.214  55.353  1.00  0.00     0.194 C 
HETATM   11  O3  UNL     1      26.713   0.424  54.608  1.00  0.00    -0.379 OA
HETATM   12  C9  UNL     1      27.348  -0.240  53.607  1.00  0.00     0.151 C 
HETATM   13  C10 UNL     1      26.733   0.384  52.334  1.00  0.00     0.030 C 
HETATM   14  C11 UNL     1      27.140   1.670  52.447  1.00  0.00     0.015 C 
HETATM   15  N1  UNL     1      26.548   2.818  51.793  1.00  0.00    -0.375 N 
HETATM   16  C12 UNL     1      25.514   2.890  50.819  1.00  0.00     0.271 C 
HETATM   17  N2  UNL     1      25.151   4.160  50.290  1.00  0.00    -0.268 NA
HETATM   18  C13 UNL     1      28.304   1.797  53.359  1.00  0.00     0.027 A 
HETATM   19  C14 UNL     1      29.440   1.266  54.095  1.00  0.00     0.015 A 
HETATM   20  C15 UNL     1      28.761   0.329  53.356  1.00  0.00     0.040 A 
HETATM   21  H14 UNL     1      26.855   3.779  52.000  1.00  0.00     0.161 HD
ENDROOT
TORSDOF 0
ENDMDL
MODEL 2
REMARK VINA RESULT:      -7.5      1.953      4.957
REMARK  0 active torsions:
REMARK  status: ('A' for Active; 'I' for Inactive)
ROOT
HETATM    1  C1  UNL     1      26.531   0.229  54.752  1.00  0.00     0.081 C 
HETATM    2  C2  UNL     1      26.463  -0.567  53.713  1.00  0.00     0.035 C 
HETATM    3  C3  UNL     1      25.233  -0.144  53.051  1.00  0.00     0.026 C 
HETATM    4  C4  UNL     1      23.990  -0.607  53.359  1.00  0.00     0.135 C 
HETATM    5  O1  UNL     1      22.589  -0.583  53.108  1.00  0.00    -0.361 OA
HETATM    6  C5  UNL     1      21.908   0.615  53.506  1.00  0.00     0.200 C 
HETATM    7  C6  UNL     1      21.291   1.191  52.238  1.00  0.00     0.194 C 
HETATM    8  O2  UNL     1      22.326   1.424  51.301  1.00  0.00    -0.387 OA
HETATM    9  C7  UNL     1      21.812   2.101  50.238  1.00  0.00     0.193 C 
HETATM   10  C8  UNL     1      22.821   2.300  49.123  1.00  0.00     0.194 C 
HETATM   11  O3  UNL     1      23.941   2.951  49.503  1.00  0.00    -0.379 OA
HETATM   12  C9  UNL     1      23.845   4.163  50.110  1.00  0.00     0.151 C 
HETATM   13  C10 UNL     1      24.224   3.848  51.574  1.00  0.00     0.030 C 
HETATM   14  C11 UNL     1      25.506   3.437  51.432  1.00  0.00     0.015 C 
HETATM   15  N1  UNL     1      26.257   2.628  52.370  1.00  0.00    -0.375 N 
HETATM   16  C12 UNL     1      25.912   2.172  53.672  1.00  0.00     0.271 C 
HETATM   17  N2  UNL     1      26.867   1.426  54.417  1.00  0.00    -0.268 NA
HETATM   18  C13 UNL     1      26.094   3.910  50.154  1.00  0.00     0.027 A 
HETATM   19  C14 UNL     1      26.135   4.775  48.986  1.00  0.00     0.015 A 
HETATM   20  C15 UNL     1      25.092   5.033  49.840  1.00  0.00     0.040 A 
HETATM   21  H14 UNL     1      27.199   2.275  52.150  1.00  0.00     0.161 HD
ENDROOT
TORSDOF 0
ENDMDL
MODEL 3
REMARK VINA RESULT:      -7.5      2.308      5.767
REMARK  0 active torsions:
REMARK  status: ('A' for Active; 'I' for Inactive)
ROOT
HETATM    1  C1  UNL     1      27.877  -0.595  53.506  1.00  0.00     0.081 C 
HETATM    2  C2  UNL     1      27.763   0.515  54.193  1.00  0.00     0.035 C 
HETATM    3  C3  UNL     1      26.934   1.354  53.333  1.00  0.00     0.026 C 
HETATM    4  C4  UNL     1      27.411   2.143  52.330  1.00  0.00     0.135 C 
HETATM    5  O1  UNL     1      27.143   3.068  51.282  1.00  0.00    -0.361 OA
HETATM    6  C5  UNL     1      26.487   2.525  50.128  1.00  0.00     0.200 C 
HETATM    7  C6  UNL     1      25.175   3.285  49.992  1.00  0.00     0.194 C 
HETATM    8  O2  UNL     1      24.432   3.116  51.186  1.00  0.00    -0.387 OA
HETATM    9  C7  UNL     1      23.189   3.640  51.008  1.00  0.00     0.193 C 
HETATM   10  C8  UNL     1      22.351   3.610  52.272  1.00  0.00     0.194 C 
HETATM   11  O3  UNL     1      22.190   2.377  52.798  1.00  0.00    -0.379 OA
HETATM   12  C9  UNL     1      21.697   1.373  52.027  1.00  0.00     0.151 C 
HETATM   13  C10 UNL     1      22.936   0.480  51.789  1.00  0.00     0.030 C 
HETATM   14  C11 UNL     1      23.218   0.078  53.049  1.00  0.00     0.015 C 
HETATM   15  N1  UNL     1      24.489  -0.429  53.524  1.00  0.00    -0.375 N 
HETATM   16  C12 UNL     1      25.681  -0.736  52.812  1.00  0.00     0.271 C 
HETATM   17  N2  UNL     1      26.787  -1.281  53.519  1.00  0.00    -0.268 NA
HETATM   18  C13 UNL     1      22.044   0.223  53.946  1.00  0.00     0.027 A 
HETATM   19  C14 UNL     1      20.623   0.386  54.207  1.00  0.00     0.015 A 
HETATM   20  C15 UNL     1      20.946   0.323  52.874  1.00  0.00     0.040 A 
HETATM   21  H14 UNL     1      24.656  -0.628  54.521  1.00  0.00     0.161 HD
ENDROOT
TORSDOF 0
ENDMDL
MODEL 4
REMARK VINA RESULT:      -7.2      2.293      4.320
REMARK  0 active torsions:
REMARK  status: ('A' for Active; 'I' for Inactive)
ROOT
HETATM    1  C1  UNL     1      21.924  -1.629  54.895  1.00  0.00     0.081 C 
HETATM    2  C2  UNL     1      22.087  -1.979  53.643  1.00  0.00     0.035 C 
HETATM    3  C3  UNL     1      22.655  -0.779  53.035  1.00  0.00     0.026 C 
HETATM    4  C4  UNL     1      21.923   0.259  52.543  1.00  0.00     0.135 C 
HETATM    5  O1  UNL     1      21.898   1.536  51.914  1.00  0.00    -0.361 OA
HETATM    6  C5  UNL     1      22.347   2.633  52.721  1.00  0.00     0.200 C 
HETATM    7  C6  UNL     1      23.540   3.234  51.990  1.00  0.00     0.194 C 
HETATM    8  O2  UNL     1      24.521   2.226  51.827  1.00  0.00    -0.387 OA
HETATM    9  C7  UNL     1      25.657   2.793  51.338  1.00  0.00     0.193 C 
HETATM   10  C8  UNL     1      26.734   1.774  51.020  1.00  0.00     0.194 C 
HETATM   11  O3  UNL     1      27.095   1.007  52.071  1.00  0.00    -0.379 OA
HETATM   12  C9  UNL     1      27.498   1.594  53.228  1.00  0.00     0.151 C 
HETATM   13  C10 UNL     1      26.312   1.330  54.181  1.00  0.00     0.030 C 
HETATM   14  C11 UNL     1      26.324  -0.021  54.251  1.00  0.00     0.015 C 
HETATM   15  N1  UNL     1      25.221  -0.871  54.648  1.00  0.00    -0.375 N 
HETATM   16  C12 UNL     1      23.937  -0.532  55.157  1.00  0.00     0.271 C 
HETATM   17  N2  UNL     1      23.044  -1.575  55.528  1.00  0.00    -0.268 NA
HETATM   18  C13 UNL     1      27.641  -0.577  53.850  1.00  0.00     0.027 A 
HETATM   19  C14 UNL     1      29.068  -0.475  53.592  1.00  0.00     0.015 A 
HETATM   20  C15 UNL     1      28.486   0.698  54.004  1.00  0.00     0.040 A 
HETATM   21  H14 UNL     1      25.276  -1.897  54.587  1.00  0.00     0.161 HD
ENDROOT
TORSDOF 0
ENDMDL
MODEL 5
REMARK VINA RESULT:      -7.1      2.563      4.352
REMARK  0 active torsions:
REMARK  status: ('A' for Active; 'I' for Inactive)
ROOT
HETATM    1  C1  UNL     1      20.155   0.381  52.654  1.00  0.00     0.081 C 
HETATM    2  C2  UNL     1      20.468   0.221  51.392  1.00  0.00     0.035 C 
HETATM    3  C3  UNL     1      21.458   1.268  51.161  1.00  0.00     0.026 C 
HETATM    4  C4  UNL     1      21.159   2.552  50.819  1.00  0.00     0.135 C 
HETATM    5  O1  UNL     1      21.619   3.862  50.500  1.00  0.00    -0.361 OA
HETATM    6  C5  UNL     1      22.179   4.605  51.592  1.00  0.00     0.200 C 
HETATM    7  C6  UNL     1      23.615   4.919  51.196  1.00  0.00     0.194 C 
HETATM    8  O2  UNL     1      24.290   3.699  50.950  1.00  0.00    -0.387 OA
HETATM    9  C7  UNL     1      25.614   3.958  50.771  1.00  0.00     0.193 C 
HETATM   10  C8  UNL     1      26.408   2.724  50.387  1.00  0.00     0.194 C 
HETATM   11  O3  UNL     1      26.319   1.712  51.277  1.00  0.00    -0.379 OA
HETATM   12  C9  UNL     1      26.622   1.932  52.583  1.00  0.00     0.151 C 
HETATM   13  C10 UNL     1      25.239   1.892  53.270  1.00  0.00     0.030 C 
HETATM   14  C11 UNL     1      24.862   0.615  53.032  1.00  0.00     0.015 C 
HETATM   15  N1  UNL     1      23.510   0.098  53.063  1.00  0.00    -0.375 N 
HETATM   16  C12 UNL     1      22.293   0.728  53.446  1.00  0.00     0.271 C 
HETATM   17  N2  UNL     1      21.090  -0.030  53.437  1.00  0.00    -0.268 NA
HETATM   18  C13 UNL     1      26.027  -0.248  52.709  1.00  0.00     0.027 A 
HETATM   19  C14 UNL     1      27.447  -0.555  52.688  1.00  0.00     0.015 A 
HETATM   20  C15 UNL     1      27.142   0.651  53.268  1.00  0.00     0.040 A 
HETATM   21  H14 UNL     1      23.290  -0.867  52.778  1.00  0.00     0.161 HD
ENDROOT
TORSDOF 0
ENDMDL
MODEL 6
REMARK VINA RESULT:      -7.0      1.993      2.795
REMARK  0 active torsions:
REMARK  status: ('A' for Active; 'I' for Inactive)
ROOT
HETATM    1  C1  UNL     1      26.249   5.745  48.684  1.00  0.00     0.081 C 
HETATM    2  C2  UNL     1      25.556   6.198  49.700  1.00  0.00     0.035 C 
HETATM    3  C3  UNL     1      24.726   5.056  50.071  1.00  0.00     0.026 C 
HETATM    4  C4  UNL     1      23.521   4.762  49.510  1.00  0.00     0.135 C 
HETATM    5  O1  UNL     1      22.386   3.903  49.451  1.00  0.00    -0.361 OA
HETATM    6  C5  UNL     1      22.620   2.605  48.889  1.00  0.00     0.200 C 
HETATM    7  C6  UNL     1      22.266   1.603  49.980  1.00  0.00     0.194 C 
HETATM    8  O2  UNL     1      23.069   1.871  51.114  1.00  0.00    -0.387 OA
HETATM    9  C7  UNL     1      22.890   0.877  52.025  1.00  0.00     0.193 C 
HETATM   10  C8  UNL     1      23.624   1.133  53.328  1.00  0.00     0.194 C 
HETATM   11  O3  UNL     1      24.956   1.304  53.186  1.00  0.00    -0.379 OA
HETATM   12  C9  UNL     1      25.693   0.359  52.547  1.00  0.00     0.151 C 
HETATM   13  C10 UNL     1      26.046   1.043  51.207  1.00  0.00     0.030 C 
HETATM   14  C11 UNL     1      26.793   2.088  51.633  1.00  0.00     0.015 C 
HETATM   15  N1  UNL     1      27.061   3.307  50.898  1.00  0.00    -0.375 N 
HETATM   16  C12 UNL     1      26.732   3.667  49.562  1.00  0.00     0.271 C 
HETATM   17  N2  UNL     1      27.167   4.923  49.058  1.00  0.00    -0.268 NA
HETATM   18  C13 UNL     1      27.329   1.858  52.997  1.00  0.00     0.027 A 
HETATM   19  C14 UNL     1      27.682   1.014  54.127  1.00  0.00     0.015 A 
HETATM   20  C15 UNL     1      27.149   0.332  53.062  1.00  0.00     0.040 A 
HETATM   21  H14 UNL     1      27.562   4.099  51.324  1.00  0.00     0.161 HD
ENDROOT
TORSDOF 0
ENDMDL
MODEL 7
REMARK VINA RESULT:      -6.7      2.915      4.562
REMARK  0 active torsions:
REMARK  status: ('A' for Active; 'I' for Inactive)
ROOT
HETATM    1  C1  UNL     1      26.609   7.786  48.748  1.00  0.00     0.081 C 
HETATM    2  C2  UNL     1      26.515   8.099  50.017  1.00  0.00     0.035 C 
HETATM    3  C3  UNL     1      25.378   7.304  50.472  1.00  0.00     0.026 C 
HETATM    4  C4  UNL     1      24.077   7.696  50.384  1.00  0.00     0.135 C 
HETATM    5  O1  UNL     1      22.703   7.405  50.620  1.00  0.00    -0.361 OA
HETATM    6  C5  UNL     1      22.134   6.385  49.788  1.00  0.00     0.200 C 
HETATM    7  C6  UNL     1      21.656   5.289  50.731  1.00  0.00     0.194 C 
HETATM    8  O2  UNL     1      22.762   4.835  51.489  1.00  0.00    -0.387 OA
HETATM    9  C7  UNL     1      22.386   3.740  52.204  1.00  0.00     0.193 C 
HETATM   10  C8  UNL     1      23.473   3.245  53.138  1.00  0.00     0.194 C 
HETATM   11  O3  UNL     1      24.633   2.935  52.520  1.00  0.00    -0.379 OA
HETATM   12  C9  UNL     1      24.633   2.056  51.485  1.00  0.00     0.151 C 
HETATM   13  C10 UNL     1      24.891   2.962  50.261  1.00  0.00     0.030 C 
HETATM   14  C11 UNL     1      26.127   3.437  50.541  1.00  0.00     0.015 C 
HETATM   15  N1  UNL     1      26.731   4.633  49.991  1.00  0.00    -0.375 N 
HETATM   16  C12 UNL     1      26.266   5.517  48.979  1.00  0.00     0.271 C 
HETATM   17  N2  UNL     1      27.090   6.605  48.579  1.00  0.00    -0.268 NA
HETATM   18  C13 UNL     1      26.835   2.577  51.522  1.00  0.00     0.027 A 
HETATM   19  C14 UNL     1      27.036   1.336  52.252  1.00  0.00     0.015 A 
HETATM   20  C15 UNL     1      25.979   1.308  51.376  1.00  0.00     0.040 A 
HETATM   21  H14 UNL     1      27.641   4.983  50.323  1.00  0.00     0.161 HD
ENDROOT
TORSDOF 0
ENDMDL
MODEL 8
REMARK VINA RESULT:      -6.6      9.283     11.751
REMARK  0 active torsions:
REMARK  status: ('A' for Active; 'I' for Inactive)
ROOT
HETATM    1  C1  UNL     1      35.057   4.532  47.535  1.00  0.00     0.081 C 
HETATM    2  C2  UNL     1      35.001   5.023  48.749  1.00  0.00     0.035 C 
HETATM    3  C3  UNL     1      34.449   6.358  48.541  1.00  0.00     0.026 C 
HETATM    4  C4  UNL     1      35.187   7.462  48.238  1.00  0.00     0.135 C 
HETATM    5  O1  UNL     1      35.225   8.857  47.954  1.00  0.00    -0.361 OA
HETATM    6  C5  UNL     1      34.685   9.245  46.683  1.00  0.00     0.200 C 
HETATM    7  C6  UNL     1      33.536  10.197  46.986  1.00  0.00     0.194 C 
HETATM    8  O2  UNL     1      32.599   9.523  47.806  1.00  0.00    -0.387 OA
HETATM    9  C7  UNL     1      31.489  10.299  47.935  1.00  0.00     0.193 C 
HETATM   10  C8  UNL     1      30.468   9.713  48.891  1.00  0.00     0.194 C 
HETATM   11  O3  UNL     1      30.048   8.473  48.558  1.00  0.00    -0.379 OA
HETATM   12  C9  UNL     1      29.541   8.243  47.319  1.00  0.00     0.151 C 
HETATM   13  C10 UNL     1      30.657   7.422  46.635  1.00  0.00     0.030 C 
HETATM   14  C11 UNL     1      30.677   6.310  47.406  1.00  0.00     0.015 C 
HETATM   15  N1  UNL     1      31.770   5.367  47.525  1.00  0.00    -0.375 N 
HETATM   16  C12 UNL     1      33.001   5.292  46.816  1.00  0.00     0.271 C 
HETATM   17  N2  UNL     1      33.891   4.217  47.091  1.00  0.00    -0.268 NA
HETATM   18  C13 UNL     1      29.411   6.147  48.163  1.00  0.00     0.027 A 
HETATM   19  C14 UNL     1      28.006   6.421  48.416  1.00  0.00     0.015 A 
HETATM   20  C15 UNL     1      28.521   7.084  47.330  1.00  0.00     0.040 A 
HETATM   21  H14 UNL     1      31.747   4.593  48.203  1.00  0.00     0.161 HD
ENDROOT
TORSDOF 0
ENDMDL
MODEL 9
REMARK VINA RESULT:      -6.5      5.442      7.761
REMARK  0 active torsions:
REMARK  status: ('A' for Active; 'I' for Inactive)
ROOT
HETATM    1  C1  UNL     1      29.926   8.622  47.883  1.00  0.00     0.081 C 
HETATM    2  C2  UNL     1      29.820   8.859  49.167  1.00  0.00     0.035 C 
HETATM    3  C3  UNL     1      28.376   8.856  49.387  1.00  0.00     0.026 C 
HETATM    4  C4  UNL     1      27.567   9.939  49.223  1.00  0.00     0.135 C 
HETATM    5  O1  UNL     1      26.257  10.494  49.274  1.00  0.00    -0.361 OA
HETATM    6  C5  UNL     1      25.354  10.048  48.254  1.00  0.00     0.200 C 
HETATM    7  C6  UNL     1      24.189   9.389  48.979  1.00  0.00     0.194 C 
HETATM    8  O2  UNL     1      24.695   8.332  49.774  1.00  0.00    -0.387 OA
HETATM    9  C7  UNL     1      23.650   7.627  50.285  1.00  0.00     0.193 C 
HETATM   10  C8  UNL     1      24.088   6.538  51.246  1.00  0.00     0.194 C 
HETATM   11  O3  UNL     1      24.947   5.644  50.712  1.00  0.00    -0.379 OA
HETATM   12  C9  UNL     1      24.615   4.989  49.569  1.00  0.00     0.151 C 
HETATM   13  C10 UNL     1      25.542   5.639  48.517  1.00  0.00     0.030 C 
HETATM   14  C11 UNL     1      26.762   5.285  48.985  1.00  0.00     0.015 C 
HETATM   15  N1  UNL     1      28.021   5.930  48.675  1.00  0.00    -0.375 N 
HETATM   16  C12 UNL     1      28.317   6.974  47.754  1.00  0.00     0.271 C 
HETATM   17  N2  UNL     1      29.667   7.394  47.599  1.00  0.00    -0.268 NA
HETATM   18  C13 UNL     1      26.679   4.121  49.902  1.00  0.00     0.027 A 
HETATM   19  C14 UNL     1      26.012   2.959  50.467  1.00  0.00     0.015 A 
HETATM   20  C15 UNL     1      25.290   3.603  49.493  1.00  0.00     0.040 A 
HETATM   21  H14 UNL     1      28.898   5.662  49.143  1.00  0.00     0.161 HD
ENDROOT
TORSDOF 0
ENDMDL
