MODEL 1
REMARK VINA RESULT:      -7.5      0.000      0.000
REMARK  5 active torsions:
REMARK  status: ('A' for Active; 'I' for Inactive)
REMARK       I    between atoms: N1_2  and  C2_3 
REMARK    1  A    between atoms: C2_3  and  O2_5 
REMARK    2  A    between atoms: O2_5  and  C3_6 
REMARK    3  A    between atoms: C5_9  and  C6_10 
REMARK    4  A    between atoms: C7_11  and  C8_12 
REMARK    5  A    between atoms: C12_18  and  N5_19 
ROOT
HETATM    1  C6  UNL     1      20.970  -0.311  53.544  1.00  0.00    -0.065 C 
HETATM    2  C7  UNL     1      22.145  -0.130  53.505  1.00  0.00    -0.057 C 
ENDROOT
BRANCH   1   3
HETATM    3  C5  UNL     1      19.570  -0.526  53.608  1.00  0.00     0.301 C 
HETATM    4  N2  UNL     1      19.226  -1.909  53.930  1.00  0.00     0.102 N 
HETATM    5  C4  UNL     1      17.837  -2.063  53.547  1.00  0.00     0.303 C 
HETATM    6  H8  UNL     1      19.862  -2.591  53.470  1.00  0.00     0.317 HD
HETATM    7  C3  UNL     1      17.466  -0.786  52.786  1.00  0.00     0.164 C 
HETATM    8  C14 UNL     1      18.858  -0.365  52.294  1.00  0.00     0.083 C 
BRANCH   7   9
HETATM    9  O2  UNL     1      16.517  -0.994  51.815  1.00  0.00    -0.297 OA
BRANCH   9  10
HETATM   10  C2  UNL     1      15.248  -0.403  52.028  1.00  0.00     0.360 C 
HETATM   11  N1  UNL     1      14.726  -0.171  53.358  1.00  0.00    -0.341 N 
HETATM   12  C1  UNL     1      13.402   0.452  53.398  1.00  0.00     0.151 C 
HETATM   13  H4  UNL     1      15.359  -0.477  54.155  1.00  0.00     0.164 HD
HETATM   14  O1  UNL     1      14.386   0.010  51.171  1.00  0.00    -0.239 OA
ENDBRANCH   9  10
ENDBRANCH   7   9
ENDBRANCH   1   3
BRANCH   2  15
HETATM   15  C8  UNL     1      23.567   0.087  53.468  1.00  0.00     0.061 A 
HETATM   16  C9  UNL     1      24.720  -0.542  53.958  1.00  0.00     0.061 A 
HETATM   17  C10 UNL     1      25.874   0.037  53.623  1.00  0.00     0.081 A 
HETATM   18  N3  UNL     1      27.103  -0.379  53.945  1.00  0.00    -0.241 NA
HETATM   19  C13 UNL     1      26.082   1.179  52.858  1.00  0.00     0.081 A 
HETATM   20  C11 UNL     1      28.240   0.234  53.568  1.00  0.00     0.236 A 
HETATM   21  N4  UNL     1      28.306   1.345  52.815  1.00  0.00    -0.223 NA
HETATM   22  C12 UNL     1      27.142   1.896  52.405  1.00  0.00     0.154 A 
HETATM   23  S1  UNL     1      24.261   1.567  52.502  1.00  0.00    -0.075 SA
BRANCH  22  24
HETATM   24  N5  UNL     1      26.913   3.019  51.624  1.00  0.00    -0.306 N 
HETATM   25 BR1  UNL     1      26.424   3.274  49.799  1.00  0.00     0.048 Br
HETATM   26  H12 UNL     1      27.031   3.941  52.137  1.00  0.00     0.175 HD
ENDBRANCH  22  24
ENDBRANCH   2  15
TORSDOF 5
ENDMDL
MODEL 2
REMARK VINA RESULT:      -7.5      6.766     10.778
REMARK  5 active torsions:
REMARK  status: ('A' for Active; 'I' for Inactive)
REMARK       I    between atoms: N1_2  and  C2_3 
REMARK    1  A    between atoms: C2_3  and  O2_5 
REMARK    2  A    between atoms: O2_5  and  C3_6 
REMARK    3  A    between atoms: C5_9  and  C6_10 
REMARK    4  A    between atoms: C7_11  and  C8_12 
REMARK    5  A    between atoms: C12_18  and  N5_19 
ROOT
HETATM    1  C6  UNL     1      26.763   4.335  49.514  1.00  0.00    -0.065 C 
HETATM    2  C7  UNL     1      26.423   3.519  50.310  1.00  0.00    -0.057 C 
ENDROOT
BRANCH   1   3
HETATM    3  C5  UNL     1      27.183   5.310  48.575  1.00  0.00     0.301 C 
HETATM    4  N2  UNL     1      28.623   5.553  48.620  1.00  0.00     0.102 N 
HETATM    5  C4  UNL     1      28.825   6.820  47.945  1.00  0.00     0.303 C 
HETATM    6  H8  UNL     1      28.996   5.535  49.591  1.00  0.00     0.317 HD
HETATM    7  C3  UNL     1      27.427   7.401  47.714  1.00  0.00     0.164 C 
HETATM    8  C14 UNL     1      26.663   6.695  48.843  1.00  0.00     0.083 C 
BRANCH   7   9
HETATM    9  O2  UNL     1      27.404   8.774  47.734  1.00  0.00    -0.297 OA
BRANCH   9  10
HETATM   10  C2  UNL     1      28.355   9.414  48.565  1.00  0.00     0.360 C 
HETATM   11  N1  UNL     1      29.477  10.149  48.018  1.00  0.00    -0.341 N 
HETATM   12  C1  UNL     1      30.362  10.752  49.017  1.00  0.00     0.151 C 
HETATM   13  H4  UNL     1      29.533  10.170  46.957  1.00  0.00     0.164 HD
HETATM   14  O1  UNL     1      28.413   9.472  49.846  1.00  0.00    -0.239 OA
ENDBRANCH   9  10
ENDBRANCH   7   9
ENDBRANCH   1   3
BRANCH   2  15
HETATM   15  C8  UNL     1      26.019   2.535  51.279  1.00  0.00     0.061 A 
HETATM   16  C9  UNL     1      24.842   1.863  51.640  1.00  0.00     0.061 A 
HETATM   17  C10 UNL     1      24.971   0.972  52.624  1.00  0.00     0.081 A 
HETATM   18  N3  UNL     1      24.010   0.194  53.131  1.00  0.00    -0.241 NA
HETATM   19  C13 UNL     1      26.113   0.627  53.338  1.00  0.00     0.081 A 
HETATM   20  C11 UNL     1      24.195  -0.703  54.117  1.00  0.00     0.236 A 
HETATM   21  N4  UNL     1      25.365  -0.948  54.730  1.00  0.00    -0.223 NA
HETATM   22  C12 UNL     1      26.444  -0.238  54.331  1.00  0.00     0.154 A 
HETATM   23  S1  UNL     1      27.314   1.799  52.457  1.00  0.00    -0.075 SA
BRANCH  22  24
HETATM   24  N5  UNL     1      27.757  -0.286  54.773  1.00  0.00    -0.306 N 
HETATM   25 BR1  UNL     1      29.402  -0.796  53.955  1.00  0.00     0.048 Br
HETATM   26  H12 UNL     1      27.893   0.023  55.780  1.00  0.00     0.175 HD
ENDBRANCH  22  24
ENDBRANCH   2  15
TORSDOF 5
ENDMDL
MODEL 3
REMARK VINA RESULT:      -7.0      6.780     10.446
REMARK  5 active torsions:
REMARK  status: ('A' for Active; 'I' for Inactive)
REMARK       I    between atoms: N1_2  and  C2_3 
REMARK    1  A    between atoms: C2_3  and  O2_5 
REMARK    2  A    between atoms: O2_5  and  C3_6 
REMARK    3  A    between atoms: C5_9  and  C6_10 
REMARK    4  A    between atoms: C7_11  and  C8_12 
REMARK    5  A    between atoms: C12_18  and  N5_19 
ROOT
HETATM    1  C6  UNL     1      26.796   4.383  49.481  1.00  0.00    -0.065 C 
HETATM    2  C7  UNL     1      26.452   3.572  50.280  1.00  0.00    -0.057 C 
ENDROOT
BRANCH   1   3
HETATM    3  C5  UNL     1      27.212   5.337  48.518  1.00  0.00     0.301 C 
HETATM    4  N2  UNL     1      28.571   5.817  48.751  1.00  0.00     0.102 N 
HETATM    5  C4  UNL     1      28.688   7.043  47.987  1.00  0.00     0.303 C 
HETATM    6  H8  UNL     1      28.779   5.937  49.764  1.00  0.00     0.317 HD
HETATM    7  C3  UNL     1      27.274   7.365  47.491  1.00  0.00     0.164 C 
HETATM    8  C14 UNL     1      26.451   6.634  48.561  1.00  0.00     0.083 C 
BRANCH   7   9
HETATM    9  O2  UNL     1      27.041   8.713  47.365  1.00  0.00    -0.297 OA
BRANCH   9  10
HETATM   10  C2  UNL     1      26.664   9.175  46.081  1.00  0.00     0.360 C 
HETATM   11  N1  UNL     1      27.258   8.643  44.872  1.00  0.00    -0.341 N 
HETATM   12  C1  UNL     1      26.752   9.230  43.629  1.00  0.00     0.151 C 
HETATM   13  H4  UNL     1      27.991   7.888  45.019  1.00  0.00     0.164 HD
HETATM   14  O1  UNL     1      25.805  10.071  45.755  1.00  0.00    -0.239 OA
ENDBRANCH   9  10
ENDBRANCH   7   9
ENDBRANCH   1   3
BRANCH   2  15
HETATM   15  C8  UNL     1      26.043   2.584  51.243  1.00  0.00     0.061 A 
HETATM   16  C9  UNL     1      24.865   1.907  51.591  1.00  0.00     0.061 A 
HETATM   17  C10 UNL     1      24.989   1.013  52.574  1.00  0.00     0.081 A 
HETATM   18  N3  UNL     1      24.026   0.230  53.071  1.00  0.00    -0.241 NA
HETATM   19  C13 UNL     1      26.125   0.670  53.297  1.00  0.00     0.081 A 
HETATM   20  C11 UNL     1      24.205  -0.669  54.055  1.00  0.00     0.236 A 
HETATM   21  N4  UNL     1      25.371  -0.912  54.677  1.00  0.00    -0.223 NA
HETATM   22  C12 UNL     1      26.450  -0.197  54.289  1.00  0.00     0.154 A 
HETATM   23  S1  UNL     1      27.330   1.849  52.429  1.00  0.00    -0.075 SA
BRANCH  22  24
HETATM   24  N5  UNL     1      27.760  -0.243  54.743  1.00  0.00    -0.306 N 
HETATM   25 BR1  UNL     1      29.412  -0.758  53.942  1.00  0.00     0.048 Br
HETATM   26  H12 UNL     1      27.888   0.073  55.749  1.00  0.00     0.175 HD
ENDBRANCH  22  24
ENDBRANCH   2  15
TORSDOF 5
ENDMDL
MODEL 4
REMARK VINA RESULT:      -6.9      4.940     10.010
REMARK  5 active torsions:
REMARK  status: ('A' for Active; 'I' for Inactive)
REMARK       I    between atoms: N1_2  and  C2_3 
REMARK    1  A    between atoms: C2_3  and  O2_5 
REMARK    2  A    between atoms: O2_5  and  C3_6 
REMARK    3  A    between atoms: C5_9  and  C6_10 
REMARK    4  A    between atoms: C7_11  and  C8_12 
REMARK    5  A    between atoms: C12_18  and  N5_19 
ROOT
HETATM    1  C6  UNL     1      23.588   1.909  52.775  1.00  0.00    -0.065 C 
HETATM    2  C7  UNL     1      22.451   1.583  52.646  1.00  0.00    -0.057 C 
ENDROOT
BRANCH   1   3
HETATM    3  C5  UNL     1      24.947   2.282  52.922  1.00  0.00     0.301 C 
HETATM    4  N2  UNL     1      25.789   1.785  51.837  1.00  0.00     0.102 N 
HETATM    5  C4  UNL     1      27.149   1.869  52.330  1.00  0.00     0.303 C 
HETATM    6  H8  UNL     1      25.516   0.828  51.533  1.00  0.00     0.317 HD
HETATM    7  C3  UNL     1      27.036   2.219  53.818  1.00  0.00     0.164 C 
HETATM    8  C14 UNL     1      25.635   1.665  54.108  1.00  0.00     0.083 C 
BRANCH   7   9
HETATM    9  O2  UNL     1      28.061   1.702  54.572  1.00  0.00    -0.297 OA
BRANCH   9  10
HETATM   10  C2  UNL     1      28.409   0.351  54.331  1.00  0.00     0.360 C 
HETATM   11  N1  UNL     1      29.658  -0.014  53.695  1.00  0.00    -0.341 N 
HETATM   12  C1  UNL     1      29.862  -1.454  53.524  1.00  0.00     0.151 C 
HETATM   13  H4  UNL     1      30.286   0.799  53.424  1.00  0.00     0.164 HD
HETATM   14  O1  UNL     1      27.757  -0.721  54.599  1.00  0.00    -0.239 OA
ENDBRANCH   9  10
ENDBRANCH   7   9
ENDBRANCH   1   3
BRANCH   2  15
HETATM   15  C8  UNL     1      21.079   1.178  52.491  1.00  0.00     0.061 A 
HETATM   16  C9  UNL     1      19.936   1.637  51.821  1.00  0.00     0.061 A 
HETATM   17  C10 UNL     1      18.850   0.873  51.951  1.00  0.00     0.081 A 
HETATM   18  N3  UNL     1      17.652   1.082  51.397  1.00  0.00    -0.241 NA
HETATM   19  C13 UNL     1      18.704  -0.312  52.663  1.00  0.00     0.081 A 
HETATM   20  C11 UNL     1      16.589   0.270  51.547  1.00  0.00     0.236 A 
HETATM   21  N4  UNL     1      16.578  -0.864  52.267  1.00  0.00    -0.223 NA
HETATM   22  C12 UNL     1      17.721  -1.219  52.897  1.00  0.00     0.154 A 
HETATM   23  S1  UNL     1      20.479  -0.422  53.319  1.00  0.00    -0.075 SA
BRANCH  22  24
HETATM   24  N5  UNL     1      17.996  -2.323  53.689  1.00  0.00    -0.306 N 
HETATM   25 BR1  UNL     1      17.215  -4.055  53.847  1.00  0.00     0.048 Br
HETATM   26  H12 UNL     1      18.813  -2.194  54.355  1.00  0.00     0.175 HD
ENDBRANCH  22  24
ENDBRANCH   2  15
TORSDOF 5
ENDMDL
MODEL 5
REMARK VINA RESULT:      -6.9      6.050     10.128
REMARK  5 active torsions:
REMARK  status: ('A' for Active; 'I' for Inactive)
REMARK       I    between atoms: N1_2  and  C2_3 
REMARK    1  A    between atoms: C2_3  and  O2_5 
REMARK    2  A    between atoms: O2_5  and  C3_6 
REMARK    3  A    between atoms: C5_9  and  C6_10 
REMARK    4  A    between atoms: C7_11  and  C8_12 
REMARK    5  A    between atoms: C12_18  and  N5_19 
ROOT
HETATM    1  C6  UNL     1      25.225   3.401  50.362  1.00  0.00    -0.065 C 
HETATM    2  C7  UNL     1      24.797   2.608  51.139  1.00  0.00    -0.057 C 
ENDROOT
BRANCH   1   3
HETATM    3  C5  UNL     1      25.723   4.340  49.424  1.00  0.00     0.301 C 
HETATM    4  N2  UNL     1      27.171   4.254  49.255  1.00  0.00     0.102 N 
HETATM    5  C4  UNL     1      27.565   5.500  48.629  1.00  0.00     0.303 C 
HETATM    6  H8  UNL     1      27.663   4.065  50.151  1.00  0.00     0.317 HD
HETATM    7  C3  UNL     1      26.321   6.395  48.656  1.00  0.00     0.164 C 
HETATM    8  C14 UNL     1      25.582   5.775  49.850  1.00  0.00     0.083 C 
BRANCH   7   9
HETATM    9  O2  UNL     1      26.620   7.731  48.756  1.00  0.00    -0.297 OA
BRANCH   9  10
HETATM   10  C2  UNL     1      27.957   8.106  48.477  1.00  0.00     0.360 C 
HETATM   11  N1  UNL     1      28.876   8.498  49.525  1.00  0.00    -0.341 N 
HETATM   12  C1  UNL     1      30.220   8.852  49.062  1.00  0.00     0.151 C 
HETATM   13  H4  UNL     1      28.477   8.484  50.509  1.00  0.00     0.164 HD
HETATM   14  O1  UNL     1      28.569   8.170  47.350  1.00  0.00    -0.239 OA
ENDBRANCH   9  10
ENDBRANCH   7   9
ENDBRANCH   1   3
BRANCH   2  15
HETATM   15  C8  UNL     1      24.274   1.645  52.071  1.00  0.00     0.061 A 
HETATM   16  C9  UNL     1      24.782   0.685  52.958  1.00  0.00     0.061 A 
HETATM   17  C10 UNL     1      23.868   0.025  53.672  1.00  0.00     0.081 A 
HETATM   18  N3  UNL     1      24.097  -0.916  54.592  1.00  0.00    -0.241 NA
HETATM   19  C13 UNL     1      22.485   0.161  53.649  1.00  0.00     0.081 A 
HETATM   20  C11 UNL     1      23.139  -1.544  55.298  1.00  0.00     0.236 A 
HETATM   21  N4  UNL     1      21.820  -1.315  55.184  1.00  0.00    -0.223 NA
HETATM   22  C12 UNL     1      21.419  -0.386  54.287  1.00  0.00     0.154 A 
HETATM   23  S1  UNL     1      22.397   1.524  52.334  1.00  0.00    -0.075 SA
BRANCH  22  24
HETATM   24  N5  UNL     1      20.143   0.054  53.969  1.00  0.00    -0.306 N 
HETATM   25 BR1  UNL     1      18.930  -0.345  52.553  1.00  0.00     0.048 Br
HETATM   26  H12 UNL     1      19.741   0.764  54.648  1.00  0.00     0.175 HD
ENDBRANCH  22  24
ENDBRANCH   2  15
TORSDOF 5
ENDMDL
MODEL 6
REMARK VINA RESULT:      -6.9      4.895      9.878
REMARK  5 active torsions:
REMARK  status: ('A' for Active; 'I' for Inactive)
REMARK       I    between atoms: N1_2  and  C2_3 
REMARK    1  A    between atoms: C2_3  and  O2_5 
REMARK    2  A    between atoms: O2_5  and  C3_6 
REMARK    3  A    between atoms: C5_9  and  C6_10 
REMARK    4  A    between atoms: C7_11  and  C8_12 
REMARK    5  A    between atoms: C12_18  and  N5_19 
ROOT
HETATM    1  C6  UNL     1      23.520   1.362  52.787  1.00  0.00    -0.065 C 
HETATM    2  C7  UNL     1      22.442   0.860  52.782  1.00  0.00    -0.057 C 
ENDROOT
BRANCH   1   3
HETATM    3  C5  UNL     1      24.812   1.946  52.783  1.00  0.00     0.301 C 
HETATM    4  N2  UNL     1      25.677   1.395  51.743  1.00  0.00     0.102 N 
HETATM    5  C4  UNL     1      27.027   1.759  52.127  1.00  0.00     0.303 C 
HETATM    6  H8  UNL     1      25.542   0.372  51.619  1.00  0.00     0.317 HD
HETATM    7  C3  UNL     1      26.919   2.340  53.541  1.00  0.00     0.164 C 
HETATM    8  C14 UNL     1      25.631   1.648  54.008  1.00  0.00     0.083 C 
BRANCH   7   9
HETATM    9  O2  UNL     1      28.039   2.113  54.303  1.00  0.00    -0.297 OA
BRANCH   9  10
HETATM   10  C2  UNL     1      28.551   0.793  54.304  1.00  0.00     0.360 C 
HETATM   11  N1  UNL     1      29.765   0.443  53.595  1.00  0.00    -0.341 N 
HETATM   12  C1  UNL     1      30.154  -0.965  53.704  1.00  0.00     0.151 C 
HETATM   13  H4  UNL     1      30.236   1.242  53.078  1.00  0.00     0.164 HD
HETATM   14  O1  UNL     1      28.093  -0.260  54.878  1.00  0.00    -0.239 OA
ENDBRANCH   9  10
ENDBRANCH   7   9
ENDBRANCH   1   3
BRANCH   2  15
HETATM   15  C8  UNL     1      21.142   0.243  52.774  1.00  0.00     0.061 A 
HETATM   16  C9  UNL     1      20.456  -0.731  53.513  1.00  0.00     0.061 A 
HETATM   17  C10 UNL     1      19.196  -0.954  53.137  1.00  0.00     0.081 A 
HETATM   18  N3  UNL     1      18.333  -1.810  53.691  1.00  0.00    -0.241 NA
HETATM   19  C13 UNL     1      18.478  -0.351  52.110  1.00  0.00     0.081 A 
HETATM   20  C11 UNL     1      17.063  -1.988  53.283  1.00  0.00     0.236 A 
HETATM   21  N4  UNL     1      16.480  -1.331  52.267  1.00  0.00    -0.223 NA
HETATM   22  C12 UNL     1      17.224  -0.423  51.596  1.00  0.00     0.154 A 
HETATM   23  S1  UNL     1      19.849   0.808  51.503  1.00  0.00    -0.075 SA
BRANCH  22  24
HETATM   24  N5  UNL     1      16.884   0.393  50.528  1.00  0.00    -0.306 N 
HETATM   25 BR1  UNL     1      15.851   0.129  48.947  1.00  0.00     0.048 Br
HETATM   26  H12 UNL     1      17.274   1.379  50.587  1.00  0.00     0.175 HD
ENDBRANCH  22  24
ENDBRANCH   2  15
TORSDOF 5
ENDMDL
MODEL 7
REMARK VINA RESULT:      -6.9      7.582     11.997
REMARK  5 active torsions:
REMARK  status: ('A' for Active; 'I' for Inactive)
REMARK       I    between atoms: N1_2  and  C2_3 
REMARK    1  A    between atoms: C2_3  and  O2_5 
REMARK    2  A    between atoms: O2_5  and  C3_6 
REMARK    3  A    between atoms: C5_9  and  C6_10 
REMARK    4  A    between atoms: C7_11  and  C8_12 
REMARK    5  A    between atoms: C12_18  and  N5_19 
ROOT
HETATM    1  C6  UNL     1      27.804   5.102  48.644  1.00  0.00    -0.065 C 
HETATM    2  C7  UNL     1      26.955   4.448  49.160  1.00  0.00    -0.057 C 
ENDROOT
BRANCH   1   3
HETATM    3  C5  UNL     1      28.817   5.890  48.043  1.00  0.00     0.301 C 
HETATM    4  N2  UNL     1      29.813   6.356  49.005  1.00  0.00     0.102 N 
HETATM    5  C4  UNL     1      30.502   7.451  48.352  1.00  0.00     0.303 C 
HETATM    6  H8  UNL     1      29.388   6.617  49.918  1.00  0.00     0.317 HD
HETATM    7  C3  UNL     1      29.711   7.741  47.072  1.00  0.00     0.164 C 
HETATM    8  C14 UNL     1      28.336   7.202  47.489  1.00  0.00     0.083 C 
BRANCH   7   9
HETATM    9  O2  UNL     1      29.757   9.062  46.698  1.00  0.00    -0.297 OA
BRANCH   9  10
HETATM   10  C2  UNL     1      29.776  10.018  47.743  1.00  0.00     0.360 C 
HETATM   11  N1  UNL     1      30.912  10.889  47.961  1.00  0.00    -0.341 N 
HETATM   12  C1  UNL     1      30.765  11.820  49.081  1.00  0.00     0.151 C 
HETATM   13  H4  UNL     1      31.722  10.757  47.287  1.00  0.00     0.164 HD
HETATM   14  O1  UNL     1      28.880  10.284  48.622  1.00  0.00    -0.239 OA
ENDBRANCH   9  10
ENDBRANCH   7   9
ENDBRANCH   1   3
BRANCH   2  15
HETATM   15  C8  UNL     1      25.927   3.664  49.793  1.00  0.00     0.061 A 
HETATM   16  C9  UNL     1      24.546   3.465  49.652  1.00  0.00     0.061 A 
HETATM   17  C10 UNL     1      24.009   2.573  50.485  1.00  0.00     0.081 A 
HETATM   18  N3  UNL     1      22.728   2.193  50.536  1.00  0.00    -0.241 NA
HETATM   19  C13 UNL     1      24.635   1.819  51.471  1.00  0.00     0.081 A 
HETATM   20  C11 UNL     1      22.237   1.274  51.386  1.00  0.00     0.236 A 
HETATM   21  N4  UNL     1      22.958   0.605  52.302  1.00  0.00    -0.223 NA
HETATM   22  C12 UNL     1      24.280   0.876  52.380  1.00  0.00     0.154 A 
HETATM   23  S1  UNL     1      26.390   2.483  51.205  1.00  0.00    -0.075 SA
BRANCH  22  24
HETATM   24  N5  UNL     1      25.252   0.340  53.212  1.00  0.00    -0.306 N 
HETATM   25 BR1  UNL     1      26.623  -0.962  52.962  1.00  0.00     0.048 Br
HETATM   26  H12 UNL     1      25.246   0.726  54.201  1.00  0.00     0.175 HD
ENDBRANCH  22  24
ENDBRANCH   2  15
TORSDOF 5
ENDMDL
MODEL 8
REMARK VINA RESULT:      -6.8      4.954     10.327
REMARK  5 active torsions:
REMARK  status: ('A' for Active; 'I' for Inactive)
REMARK       I    between atoms: N1_2  and  C2_3 
REMARK    1  A    between atoms: C2_3  and  O2_5 
REMARK    2  A    between atoms: O2_5  and  C3_6 
REMARK    3  A    between atoms: C5_9  and  C6_10 
REMARK    4  A    between atoms: C7_11  and  C8_12 
REMARK    5  A    between atoms: C12_18  and  N5_19 
ROOT
HETATM    1  C6  UNL     1      21.318   0.254  52.911  1.00  0.00    -0.065 C 
HETATM    2  C7  UNL     1      20.198   0.021  52.586  1.00  0.00    -0.057 C 
ENDROOT
BRANCH   1   3
HETATM    3  C5  UNL     1      22.658   0.515  53.293  1.00  0.00     0.301 C 
HETATM    4  N2  UNL     1      23.518   0.827  52.154  1.00  0.00     0.102 N 
HETATM    5  C4  UNL     1      24.876   0.648  52.631  1.00  0.00     0.303 C 
HETATM    6  H8  UNL     1      23.292   0.250  51.319  1.00  0.00     0.317 HD
HETATM    7  C3  UNL     1      24.753   0.002  54.015  1.00  0.00     0.164 C 
HETATM    8  C14 UNL     1      23.382  -0.672  53.866  1.00  0.00     0.083 C 
BRANCH   7   9
HETATM    9  O2  UNL     1      25.806  -0.826  54.319  1.00  0.00    -0.297 OA
BRANCH   9  10
HETATM   10  C2  UNL     1      27.087  -0.227  54.387  1.00  0.00     0.360 C 
HETATM   11  N1  UNL     1      28.251  -0.841  53.784  1.00  0.00    -0.341 N 
HETATM   12  C1  UNL     1      29.496  -0.087  53.945  1.00  0.00     0.151 C 
HETATM   13  H4  UNL     1      28.075  -1.767  53.293  1.00  0.00     0.164 HD
HETATM   14  O1  UNL     1      27.445   0.875  54.940  1.00  0.00    -0.239 OA
ENDBRANCH   9  10
ENDBRANCH   7   9
ENDBRANCH   1   3
BRANCH   2  15
HETATM   15  C8  UNL     1      18.845  -0.271  52.194  1.00  0.00     0.061 A 
HETATM   16  C9  UNL     1      17.944   0.145  51.202  1.00  0.00     0.061 A 
HETATM   17  C10 UNL     1      16.757  -0.463  51.217  1.00  0.00     0.081 A 
HETATM   18  N3  UNL     1      15.743  -0.261  50.370  1.00  0.00    -0.241 NA
HETATM   19  C13 UNL     1      16.296  -1.447  52.084  1.00  0.00     0.081 A 
HETATM   20  C11 UNL     1      14.567  -0.912  50.417  1.00  0.00     0.236 A 
HETATM   21  N4  UNL     1      14.242  -1.858  51.315  1.00  0.00    -0.223 NA
HETATM   22  C12 UNL     1      15.166  -2.180  52.249  1.00  0.00     0.154 A 
HETATM   23  S1  UNL     1      17.860  -1.587  53.145  1.00  0.00    -0.075 SA
BRANCH  22  24
HETATM   24  N5  UNL     1      15.108  -3.109  53.276  1.00  0.00    -0.306 N 
HETATM   25 BR1  UNL     1      15.806  -4.870  53.498  1.00  0.00     0.048 Br
HETATM   26  H12 UNL     1      14.562  -2.788  54.129  1.00  0.00     0.175 HD
ENDBRANCH  22  24
ENDBRANCH   2  15
TORSDOF 5
ENDMDL
MODEL 9
REMARK VINA RESULT:      -6.8      7.501     10.832
REMARK  5 active torsions:
REMARK  status: ('A' for Active; 'I' for Inactive)
REMARK       I    between atoms: N1_2  and  C2_3 
REMARK    1  A    between atoms: C2_3  and  O2_5 
REMARK    2  A    between atoms: O2_5  and  C3_6 
REMARK    3  A    between atoms: C5_9  and  C6_10 
REMARK    4  A    between atoms: C7_11  and  C8_12 
REMARK    5  A    between atoms: C12_18  and  N5_19 
ROOT
HETATM    1  C6  UNL     1      27.647   5.290  48.590  1.00  0.00    -0.065 C 
HETATM    2  C7  UNL     1      28.652   5.781  48.185  1.00  0.00    -0.057 C 
ENDROOT
BRANCH   1   3
HETATM    3  C5  UNL     1      26.441   4.720  49.071  1.00  0.00     0.301 C 
HETATM    4  N2  UNL     1      25.822   5.519  50.126  1.00  0.00     0.102 N 
HETATM    5  C4  UNL     1      24.883   4.633  50.785  1.00  0.00     0.303 C 
HETATM    6  H8  UNL     1      26.524   5.934  50.771  1.00  0.00     0.317 HD
HETATM    7  C3  UNL     1      25.154   3.236  50.216  1.00  0.00     0.164 C 
HETATM    8  C14 UNL     1      26.617   3.410  49.787  1.00  0.00     0.083 C 
BRANCH   7   9
HETATM    9  O2  UNL     1      24.901   2.229  51.115  1.00  0.00    -0.297 OA
BRANCH   9  10
HETATM   10  C2  UNL     1      26.010   1.735  51.845  1.00  0.00     0.360 C 
HETATM   11  N1  UNL     1      26.583   2.469  52.954  1.00  0.00    -0.341 N 
HETATM   12  C1  UNL     1      27.722   1.814  53.600  1.00  0.00     0.151 C 
HETATM   13  H4  UNL     1      26.116   3.397  53.176  1.00  0.00     0.164 HD
HETATM   14  O1  UNL     1      26.668   0.645  51.691  1.00  0.00    -0.239 OA
ENDBRANCH   9  10
ENDBRANCH   7   9
ENDBRANCH   1   3
BRANCH   2  15
HETATM   15  C8  UNL     1      29.864   6.384  47.699  1.00  0.00     0.061 A 
HETATM   16  C9  UNL     1      30.286   7.650  47.267  1.00  0.00     0.061 A 
HETATM   17  C10 UNL     1      31.573   7.739  46.928  1.00  0.00     0.081 A 
HETATM   18  N3  UNL     1      32.218   8.832  46.509  1.00  0.00    -0.241 NA
HETATM   19  C13 UNL     1      32.545   6.745  46.943  1.00  0.00     0.081 A 
HETATM   20  C11 UNL     1      33.525   8.874  46.192  1.00  0.00     0.236 A 
HETATM   21  N4  UNL     1      34.369   7.830  46.254  1.00  0.00    -0.223 NA
HETATM   22  C12 UNL     1      33.869   6.642  46.662  1.00  0.00     0.154 A 
HETATM   23  S1  UNL     1      31.444   5.338  47.576  1.00  0.00    -0.075 SA
BRANCH  22  24
HETATM   24  N5  UNL     1      34.501   5.418  46.826  1.00  0.00    -0.306 N 
HETATM   25 BR1  UNL     1      34.892   3.973  45.646  1.00  0.00     0.048 Br
HETATM   26  H12 UNL     1      34.846   5.231  47.812  1.00  0.00     0.175 HD
ENDBRANCH  22  24
ENDBRANCH   2  15
TORSDOF 5
ENDMDL
