MODEL 1
REMARK VINA RESULT:      -8.1      0.000      0.000
REMARK  8 active torsions:
REMARK  status: ('A' for Active; 'I' for Inactive)
REMARK    1  A    between atoms: C2_2  and  C3_3 
REMARK    2  A    between atoms: C2_2  and  N1_22 
REMARK    3  A    between atoms: C3_3  and  O1_4 
REMARK    4  A    between atoms: O1_4  and  C4_5 
REMARK    5  A    between atoms: C6_7  and  O2_8 
REMARK    6  A    between atoms: C10_13  and  C11_14 
REMARK    7  A    between atoms: N1_22  and  C18_23 
REMARK    8  A    between atoms: C18_23  and  C19_24 
ROOT
HETATM    1  C4  UNL     1      26.963   2.398  51.741  1.00  0.00     0.074 A 
HETATM    2  C5  UNL     1      27.754   2.047  52.815  1.00  0.00     0.074 A 
HETATM    3  C6  UNL     1      27.311   1.167  53.782  1.00  0.00     0.085 A 
HETATM    4  C7  UNL     1      26.043   0.616  53.684  1.00  0.00     0.081 A 
HETATM    5  C8  UNL     1      25.690  -0.251  54.698  1.00  0.00     0.190 A 
HETATM    6  O3  UNL     1      26.464  -0.526  55.650  1.00  0.00    -0.287 OA
HETATM    7  C9  UNL     1      24.415  -0.799  54.594  1.00  0.00     0.089 A 
HETATM    8  C10 UNL     1      23.623  -0.448  53.518  1.00  0.00     0.069 A 
HETATM    9  O4  UNL     1      24.019   0.396  52.566  1.00  0.00    -0.313 OA
HETATM   10  C16 UNL     1      25.226   0.944  52.624  1.00  0.00     0.095 A 
HETATM   11  C17 UNL     1      25.685   1.831  51.657  1.00  0.00     0.075 A 
ENDROOT
BRANCH   1  12
HETATM   12  O1  UNL     1      27.183   3.235  50.679  1.00  0.00    -0.345 OA
BRANCH  12  13
HETATM   13  C3  UNL     1      26.306   3.574  49.657  1.00  0.00     0.227 C 
BRANCH  13  14
HETATM   14  C2  UNL     1      25.749   4.950  49.738  1.00  0.00     0.007 C 
HETATM   15  C1  UNL     1      25.741   6.008  48.908  1.00  0.00     0.060 C 
BRANCH  14  16
HETATM   16  N1  UNL     1      25.024   5.555  50.784  1.00  0.00    -0.388 N 
HETATM   17  H14 UNL     1      25.761   5.979  51.393  1.00  0.00     0.159 HD
BRANCH  16  18
HETATM   18  C18 UNL     1      23.625   5.705  51.162  1.00  0.00     0.197 C 
BRANCH  18  19
HETATM   19  C19 UNL     1      23.342   4.693  52.213  1.00  0.00     0.140 C 
HETATM   20  C20 UNL     1      22.451   3.555  51.836  1.00  0.00     0.092 C 
HETATM   21  O5  UNL     1      23.757   4.683  53.364  1.00  0.00    -0.297 OA
ENDBRANCH  18  19
ENDBRANCH  16  18
ENDBRANCH  14  16
ENDBRANCH  13  14
ENDBRANCH  12  13
ENDBRANCH   1  12
BRANCH   3  22
HETATM   22  O2  UNL     1      28.243   0.928  54.793  1.00  0.00    -0.360 OA
HETATM   23  H6  UNL     1      28.644   1.762  55.226  1.00  0.00     0.217 HD
ENDBRANCH   3  22
BRANCH   8  24
HETATM   24  C11 UNL     1      22.240  -1.001  53.344  1.00  0.00     0.088 A 
HETATM   25  C12 UNL     1      21.430  -0.726  54.539  1.00  0.00    -0.012 A 
HETATM   26  C13 UNL     1      20.390   0.058  54.224  1.00  0.00    -0.003 A 
HETATM   27  C14 UNL     1      20.455   0.346  52.799  1.00  0.00    -0.003 A 
HETATM   28  C15 UNL     1      21.520  -0.255  52.261  1.00  0.00    -0.012 A 
ENDBRANCH   8  24
TORSDOF 8
ENDMDL
MODEL 2
REMARK VINA RESULT:      -7.9      1.436      2.910
REMARK  8 active torsions:
REMARK  status: ('A' for Active; 'I' for Inactive)
REMARK    1  A    between atoms: C2_2  and  C3_3 
REMARK    2  A    between atoms: C2_2  and  N1_22 
REMARK    3  A    between atoms: C3_3  and  O1_4 
REMARK    4  A    between atoms: O1_4  and  C4_5 
REMARK    5  A    between atoms: C6_7  and  O2_8 
REMARK    6  A    between atoms: C10_13  and  C11_14 
REMARK    7  A    between atoms: N1_22  and  C18_23 
REMARK    8  A    between atoms: C18_23  and  C19_24 
ROOT
HETATM    1  C4  UNL     1      26.922   2.407  51.674  1.00  0.00     0.074 A 
HETATM    2  C5  UNL     1      27.745   2.074  52.729  1.00  0.00     0.074 A 
HETATM    3  C6  UNL     1      27.337   1.196  53.713  1.00  0.00     0.085 A 
HETATM    4  C7  UNL     1      26.074   0.629  53.652  1.00  0.00     0.081 A 
HETATM    5  C8  UNL     1      25.757  -0.235  54.680  1.00  0.00     0.190 A 
HETATM    6  O3  UNL     1      26.559  -0.494  55.615  1.00  0.00    -0.287 OA
HETATM    7  C9  UNL     1      24.487  -0.799  54.613  1.00  0.00     0.089 A 
HETATM    8  C10 UNL     1      23.663  -0.465  53.556  1.00  0.00     0.069 A 
HETATM    9  O4  UNL     1      24.025   0.377  52.588  1.00  0.00    -0.313 OA
HETATM   10  C16 UNL     1      25.225   0.940  52.611  1.00  0.00     0.095 A 
HETATM   11  C17 UNL     1      25.649   1.825  51.627  1.00  0.00     0.075 A 
ENDROOT
BRANCH   1  12
HETATM   12  O1  UNL     1      27.105   3.239  50.601  1.00  0.00    -0.345 OA
BRANCH  12  13
HETATM   13  C3  UNL     1      26.146   3.737  49.727  1.00  0.00     0.227 C 
BRANCH  13  14
HETATM   14  C2  UNL     1      25.944   5.207  49.786  1.00  0.00     0.007 C 
HETATM   15  C1  UNL     1      24.927   6.000  50.167  1.00  0.00     0.060 C 
BRANCH  14  16
HETATM   16  N1  UNL     1      26.836   6.242  49.435  1.00  0.00    -0.388 N 
HETATM   17  H14 UNL     1      27.088   6.682  50.349  1.00  0.00     0.159 HD
BRANCH  16  18
HETATM   18  C18 UNL     1      27.421   6.773  48.211  1.00  0.00     0.197 C 
BRANCH  18  19
HETATM   19  C19 UNL     1      28.770   6.166  48.069  1.00  0.00     0.140 C 
HETATM   20  C20 UNL     1      29.817   6.989  47.393  1.00  0.00     0.092 C 
HETATM   21  O5  UNL     1      29.128   5.057  48.444  1.00  0.00    -0.297 OA
ENDBRANCH  18  19
ENDBRANCH  16  18
ENDBRANCH  14  16
ENDBRANCH  13  14
ENDBRANCH  12  13
ENDBRANCH   1  12
BRANCH   3  22
HETATM   22  O2  UNL     1      28.298   0.975  54.702  1.00  0.00    -0.360 OA
HETATM   23  H6  UNL     1      29.170   1.495  54.590  1.00  0.00     0.217 HD
ENDBRANCH   3  22
BRANCH   8  24
HETATM   24  C11 UNL     1      22.283  -1.036  53.422  1.00  0.00     0.088 A 
HETATM   25  C12 UNL     1      21.498  -0.755  54.632  1.00  0.00    -0.012 A 
HETATM   26  C13 UNL     1      20.442   0.013  54.333  1.00  0.00    -0.003 A 
HETATM   27  C14 UNL     1      20.470   0.285  52.903  1.00  0.00    -0.003 A 
HETATM   28  C15 UNL     1      21.529  -0.311  52.347  1.00  0.00    -0.012 A 
ENDBRANCH   8  24
TORSDOF 8
ENDMDL
MODEL 3
REMARK VINA RESULT:      -7.7      1.572      2.458
REMARK  8 active torsions:
REMARK  status: ('A' for Active; 'I' for Inactive)
REMARK    1  A    between atoms: C2_2  and  C3_3 
REMARK    2  A    between atoms: C2_2  and  N1_22 
REMARK    3  A    between atoms: C3_3  and  O1_4 
REMARK    4  A    between atoms: O1_4  and  C4_5 
REMARK    5  A    between atoms: C6_7  and  O2_8 
REMARK    6  A    between atoms: C10_13  and  C11_14 
REMARK    7  A    between atoms: N1_22  and  C18_23 
REMARK    8  A    between atoms: C18_23  and  C19_24 
ROOT
HETATM    1  C4  UNL     1      27.003   2.468  51.698  1.00  0.00     0.074 A 
HETATM    2  C5  UNL     1      27.784   2.098  52.772  1.00  0.00     0.074 A 
HETATM    3  C6  UNL     1      27.330   1.205  53.722  1.00  0.00     0.085 A 
HETATM    4  C7  UNL     1      26.060   0.660  53.606  1.00  0.00     0.081 A 
HETATM    5  C8  UNL     1      25.695  -0.221  54.603  1.00  0.00     0.190 A 
HETATM    6  O3  UNL     1      26.461  -0.514  55.557  1.00  0.00    -0.287 OA
HETATM    7  C9  UNL     1      24.420  -0.763  54.480  1.00  0.00     0.089 A 
HETATM    8  C10 UNL     1      23.637  -0.391  53.403  1.00  0.00     0.069 A 
HETATM    9  O4  UNL     1      24.045   0.466  52.468  1.00  0.00    -0.313 OA
HETATM   10  C16 UNL     1      25.253   1.008  52.544  1.00  0.00     0.095 A 
HETATM   11  C17 UNL     1      25.724   1.908  51.595  1.00  0.00     0.075 A 
ENDROOT
BRANCH   1  12
HETATM   12  O1  UNL     1      27.235   3.321  50.651  1.00  0.00    -0.345 OA
BRANCH  12  13
HETATM   13  C3  UNL     1      26.415   3.586  49.562  1.00  0.00     0.227 C 
BRANCH  13  14
HETATM   14  C2  UNL     1      25.832   4.952  49.531  1.00  0.00     0.007 C 
HETATM   15  C1  UNL     1      24.591   5.438  49.355  1.00  0.00     0.060 C 
BRANCH  14  16
HETATM   16  N1  UNL     1      26.474   6.196  49.694  1.00  0.00    -0.388 N 
HETATM   17  H14 UNL     1      26.395   6.391  50.719  1.00  0.00     0.159 HD
BRANCH  16  18
HETATM   18  C18 UNL     1      27.152   7.164  48.843  1.00  0.00     0.197 C 
BRANCH  18  19
HETATM   19  C19 UNL     1      27.133   8.468  49.556  1.00  0.00     0.140 C 
HETATM   20  C20 UNL     1      25.798   8.998  49.966  1.00  0.00     0.092 C 
HETATM   21  O5  UNL     1      28.094   9.167  49.852  1.00  0.00    -0.297 OA
ENDBRANCH  18  19
ENDBRANCH  16  18
ENDBRANCH  14  16
ENDBRANCH  13  14
ENDBRANCH  12  13
ENDBRANCH   1  12
BRANCH   3  22
HETATM   22  O2  UNL     1      28.253   0.946  54.737  1.00  0.00    -0.360 OA
HETATM   23  H6  UNL     1      28.230   1.595  55.526  1.00  0.00     0.217 HD
ENDBRANCH   3  22
BRANCH   8  24
HETATM   24  C11 UNL     1      22.254  -0.936  53.210  1.00  0.00     0.088 A 
HETATM   25  C12 UNL     1      21.462  -0.756  54.434  1.00  0.00    -0.012 A 
HETATM   26  C13 UNL     1      20.415   0.044  54.196  1.00  0.00    -0.003 A 
HETATM   27  C14 UNL     1      20.456   0.439  52.796  1.00  0.00    -0.003 A 
HETATM   28  C15 UNL     1      21.514  -0.115  52.197  1.00  0.00    -0.012 A 
ENDBRANCH   8  24
TORSDOF 8
ENDMDL
MODEL 4
REMARK VINA RESULT:      -7.4      2.216      4.973
REMARK  8 active torsions:
REMARK  status: ('A' for Active; 'I' for Inactive)
REMARK    1  A    between atoms: C2_2  and  C3_3 
REMARK    2  A    between atoms: C2_2  and  N1_22 
REMARK    3  A    between atoms: C3_3  and  O1_4 
REMARK    4  A    between atoms: O1_4  and  C4_5 
REMARK    5  A    between atoms: C6_7  and  O2_8 
REMARK    6  A    between atoms: C10_13  and  C11_14 
REMARK    7  A    between atoms: N1_22  and  C18_23 
REMARK    8  A    between atoms: C18_23  and  C19_24 
ROOT
HETATM    1  C4  UNL     1      26.692   2.649  51.431  1.00  0.00     0.074 A 
HETATM    2  C5  UNL     1      26.261   3.482  50.420  1.00  0.00     0.074 A 
HETATM    3  C6  UNL     1      24.951   3.475  49.987  1.00  0.00     0.085 A 
HETATM    4  C7  UNL     1      24.035   2.614  50.572  1.00  0.00     0.081 A 
HETATM    5  C8  UNL     1      22.751   2.678  50.072  1.00  0.00     0.190 A 
HETATM    6  O3  UNL     1      22.427   3.465  49.145  1.00  0.00    -0.287 OA
HETATM    7  C9  UNL     1      21.838   1.810  50.663  1.00  0.00     0.089 A 
HETATM    8  C10 UNL     1      22.270   0.976  51.676  1.00  0.00     0.069 A 
HETATM    9  O4  UNL     1      23.526   0.959  52.120  1.00  0.00    -0.313 OA
HETATM   10  C16 UNL     1      24.432   1.768  51.586  1.00  0.00     0.095 A 
HETATM   11  C17 UNL     1      25.754   1.787  52.012  1.00  0.00     0.075 A 
ENDROOT
BRANCH   1  12
HETATM   12  O1  UNL     1      27.919   2.482  52.017  1.00  0.00    -0.345 OA
BRANCH  12  13
HETATM   13  C3  UNL     1      28.228   2.459  53.371  1.00  0.00     0.227 C 
BRANCH  13  14
HETATM   14  C2  UNL     1      28.524   1.113  53.925  1.00  0.00     0.007 C 
HETATM   15  C1  UNL     1      29.562   0.265  53.825  1.00  0.00     0.060 C 
BRANCH  14  16
HETATM   16  N1  UNL     1      27.734   0.307  54.771  1.00  0.00    -0.388 N 
HETATM   17  H14 UNL     1      28.372  -0.476  55.044  1.00  0.00     0.159 HD
BRANCH  16  18
HETATM   18  C18 UNL     1      26.375   0.324  55.292  1.00  0.00     0.197 C 
BRANCH  18  19
HETATM   19  C19 UNL     1      25.689  -0.889  54.775  1.00  0.00     0.140 C 
HETATM   20  C20 UNL     1      25.958  -1.267  53.356  1.00  0.00     0.092 C 
HETATM   21  O5  UNL     1      24.922  -1.624  55.383  1.00  0.00    -0.297 OA
ENDBRANCH  18  19
ENDBRANCH  16  18
ENDBRANCH  14  16
ENDBRANCH  13  14
ENDBRANCH  12  13
ENDBRANCH   1  12
BRANCH   3  22
HETATM   22  O2  UNL     1      24.694   4.382  48.958  1.00  0.00    -0.360 OA
HETATM   23  H6  UNL     1      24.384   3.969  48.076  1.00  0.00     0.217 HD
ENDBRANCH   3  22
BRANCH   8  24
HETATM   24  C11 UNL     1      21.340   0.017  52.357  1.00  0.00     0.088 A 
HETATM   25  C12 UNL     1      22.104  -0.946  53.162  1.00  0.00    -0.012 A 
HETATM   26  C13 UNL     1      21.787  -0.823  54.458  1.00  0.00    -0.003 A 
HETATM   27  C14 UNL     1      20.792   0.233  54.582  1.00  0.00    -0.003 A 
HETATM   28  C15 UNL     1      20.513   0.740  53.378  1.00  0.00    -0.012 A 
ENDBRANCH   8  24
TORSDOF 8
ENDMDL
MODEL 5
REMARK VINA RESULT:      -7.4      2.550      5.610
REMARK  8 active torsions:
REMARK  status: ('A' for Active; 'I' for Inactive)
REMARK    1  A    between atoms: C2_2  and  C3_3 
REMARK    2  A    between atoms: C2_2  and  N1_22 
REMARK    3  A    between atoms: C3_3  and  O1_4 
REMARK    4  A    between atoms: O1_4  and  C4_5 
REMARK    5  A    between atoms: C6_7  and  O2_8 
REMARK    6  A    between atoms: C10_13  and  C11_14 
REMARK    7  A    between atoms: N1_22  and  C18_23 
REMARK    8  A    between atoms: C18_23  and  C19_24 
ROOT
HETATM    1  C4  UNL     1      24.174  -0.776  54.208  1.00  0.00     0.074 A 
HETATM    2  C5  UNL     1      23.052  -1.327  54.789  1.00  0.00     0.074 A 
HETATM    3  C6  UNL     1      21.786  -1.074  54.300  1.00  0.00     0.085 A 
HETATM    4  C7  UNL     1      21.624  -0.248  53.198  1.00  0.00     0.081 A 
HETATM    5  C8  UNL     1      20.323  -0.055  52.783  1.00  0.00     0.190 A 
HETATM    6  O3  UNL     1      19.344  -0.590  53.363  1.00  0.00    -0.287 OA
HETATM    7  C9  UNL     1      20.168   0.776  51.678  1.00  0.00     0.089 A 
HETATM    8  C10 UNL     1      21.293   1.328  51.095  1.00  0.00     0.069 A 
HETATM    9  O4  UNL     1      22.529   1.103  51.540  1.00  0.00    -0.313 OA
HETATM   10  C16 UNL     1      22.725   0.319  52.591  1.00  0.00     0.095 A 
HETATM   11  C17 UNL     1      23.993   0.055  53.095  1.00  0.00     0.075 A 
ENDROOT
BRANCH   1  12
HETATM   12  O1  UNL     1      25.506  -0.880  54.512  1.00  0.00    -0.345 OA
BRANCH  12  13
HETATM   13  C3  UNL     1      26.277  -0.029  55.294  1.00  0.00     0.227 C 
BRANCH  13  14
HETATM   14  C2  UNL     1      27.581   0.361  54.698  1.00  0.00     0.007 C 
HETATM   15  C1  UNL     1      28.704  -0.306  54.380  1.00  0.00     0.060 C 
BRANCH  14  16
HETATM   16  N1  UNL     1      28.019   1.632  54.274  1.00  0.00    -0.388 N 
HETATM   17  H14 UNL     1      28.329   2.102  55.155  1.00  0.00     0.159 HD
BRANCH  16  18
HETATM   18  C18 UNL     1      28.124   2.356  53.014  1.00  0.00     0.197 C 
BRANCH  18  19
HETATM   19  C19 UNL     1      26.923   2.015  52.208  1.00  0.00     0.140 C 
HETATM   20  C20 UNL     1      25.686   2.811  52.465  1.00  0.00     0.092 C 
HETATM   21  O5  UNL     1      26.827   1.148  51.349  1.00  0.00    -0.297 OA
ENDBRANCH  18  19
ENDBRANCH  16  18
ENDBRANCH  14  16
ENDBRANCH  13  14
ENDBRANCH  12  13
ENDBRANCH   1  12
BRANCH   3  22
HETATM   22  O2  UNL     1      20.770  -1.714  55.012  1.00  0.00    -0.360 OA
HETATM   23  H6  UNL     1      19.865  -1.761  54.539  1.00  0.00     0.217 HD
ENDBRANCH   3  22
BRANCH   8  24
HETATM   24  C11 UNL     1      21.199   2.231  49.902  1.00  0.00     0.088 A 
HETATM   25  C12 UNL     1      22.393   3.084  49.816  1.00  0.00    -0.012 A 
HETATM   26  C13 UNL     1      23.064   2.831  48.684  1.00  0.00    -0.003 A 
HETATM   27  C14 UNL     1      22.349   1.793  47.956  1.00  0.00    -0.003 A 
HETATM   28  C15 UNL     1      21.262   1.424  48.640  1.00  0.00    -0.012 A 
ENDBRANCH   8  24
TORSDOF 8
ENDMDL
MODEL 6
REMARK VINA RESULT:      -7.3      1.471      1.856
REMARK  8 active torsions:
REMARK  status: ('A' for Active; 'I' for Inactive)
REMARK    1  A    between atoms: C2_2  and  C3_3 
REMARK    2  A    between atoms: C2_2  and  N1_22 
REMARK    3  A    between atoms: C3_3  and  O1_4 
REMARK    4  A    between atoms: O1_4  and  C4_5 
REMARK    5  A    between atoms: C6_7  and  O2_8 
REMARK    6  A    between atoms: C10_13  and  C11_14 
REMARK    7  A    between atoms: N1_22  and  C18_23 
REMARK    8  A    between atoms: C18_23  and  C19_24 
ROOT
HETATM    1  C4  UNL     1      26.455   1.681  51.650  1.00  0.00     0.074 A 
HETATM    2  C5  UNL     1      27.034   0.711  52.440  1.00  0.00     0.074 A 
HETATM    3  C6  UNL     1      26.284  -0.052  53.313  1.00  0.00     0.085 A 
HETATM    4  C7  UNL     1      24.916   0.151  53.407  1.00  0.00     0.081 A 
HETATM    5  C8  UNL     1      24.253  -0.658  54.306  1.00  0.00     0.190 A 
HETATM    6  O3  UNL     1      24.847  -1.526  54.998  1.00  0.00    -0.287 OA
HETATM    7  C9  UNL     1      22.881  -0.448  54.397  1.00  0.00     0.089 A 
HETATM    8  C10 UNL     1      22.301   0.525  53.605  1.00  0.00     0.069 A 
HETATM    9  O4  UNL     1      22.994   1.277  52.751  1.00  0.00    -0.313 OA
HETATM   10  C16 UNL     1      24.304   1.113  52.632  1.00  0.00     0.095 A 
HETATM   11  C17 UNL     1      25.072   1.874  51.757  1.00  0.00     0.075 A 
ENDROOT
BRANCH   1  12
HETATM   12  O1  UNL     1      26.985   2.546  50.729  1.00  0.00    -0.345 OA
BRANCH  12  13
HETATM   13  C3  UNL     1      26.374   3.082  49.603  1.00  0.00     0.227 C 
BRANCH  13  14
HETATM   14  C2  UNL     1      26.457   4.561  49.486  1.00  0.00     0.007 C 
HETATM   15  C1  UNL     1      27.111   5.402  48.665  1.00  0.00     0.060 C 
BRANCH  14  16
HETATM   16  N1  UNL     1      25.820   5.551  50.263  1.00  0.00    -0.388 N 
HETATM   17  H14 UNL     1      26.486   5.723  51.051  1.00  0.00     0.159 HD
BRANCH  16  18
HETATM   18  C18 UNL     1      24.576   6.305  50.213  1.00  0.00     0.197 C 
BRANCH  18  19
HETATM   19  C19 UNL     1      23.475   5.326  50.016  1.00  0.00     0.140 C 
HETATM   20  C20 UNL     1      22.912   5.206  48.638  1.00  0.00     0.092 C 
HETATM   21  O5  UNL     1      22.969   4.598  50.861  1.00  0.00    -0.297 OA
ENDBRANCH  18  19
ENDBRANCH  16  18
ENDBRANCH  14  16
ENDBRANCH  13  14
ENDBRANCH  12  13
ENDBRANCH   1  12
BRANCH   3  22
HETATM   22  O2  UNL     1      27.035  -0.984  54.031  1.00  0.00    -0.360 OA
HETATM   23  H6  UNL     1      27.345  -0.679  54.956  1.00  0.00     0.217 HD
ENDBRANCH   3  22
BRANCH   8  24
HETATM   24  C11 UNL     1      20.829   0.804  53.652  1.00  0.00     0.088 A 
HETATM   25  C12 UNL     1      20.470   1.807  52.640  1.00  0.00    -0.012 A 
HETATM   26  C13 UNL     1      19.623   1.282  51.745  1.00  0.00    -0.003 A 
HETATM   27  C14 UNL     1      19.374  -0.103  52.116  1.00  0.00    -0.003 A 
HETATM   28  C15 UNL     1      20.061  -0.410  53.220  1.00  0.00    -0.012 A 
ENDBRANCH   8  24
TORSDOF 8
ENDMDL
MODEL 7
REMARK VINA RESULT:      -7.3      1.904      4.873
REMARK  8 active torsions:
REMARK  status: ('A' for Active; 'I' for Inactive)
REMARK    1  A    between atoms: C2_2  and  C3_3 
REMARK    2  A    between atoms: C2_2  and  N1_22 
REMARK    3  A    between atoms: C3_3  and  O1_4 
REMARK    4  A    between atoms: O1_4  and  C4_5 
REMARK    5  A    between atoms: C6_7  and  O2_8 
REMARK    6  A    between atoms: C10_13  and  C11_14 
REMARK    7  A    between atoms: N1_22  and  C18_23 
REMARK    8  A    between atoms: C18_23  and  C19_24 
ROOT
HETATM    1  C4  UNL     1      21.464   2.275  51.964  1.00  0.00     0.074 A 
HETATM    2  C5  UNL     1      20.586   1.565  52.755  1.00  0.00     0.074 A 
HETATM    3  C6  UNL     1      21.020   0.556  53.591  1.00  0.00     0.085 A 
HETATM    4  C7  UNL     1      22.368   0.237  53.646  1.00  0.00     0.081 A 
HETATM    5  C8  UNL     1      22.705  -0.786  54.508  1.00  0.00     0.190 A 
HETATM    6  O3  UNL     1      21.848  -1.392  55.202  1.00  0.00    -0.287 OA
HETATM    7  C9  UNL     1      24.059  -1.101  54.557  1.00  0.00     0.089 A 
HETATM    8  C10 UNL     1      24.939  -0.389  53.764  1.00  0.00     0.069 A 
HETATM    9  O4  UNL     1      24.555   0.591  52.948  1.00  0.00    -0.313 OA
HETATM   10  C16 UNL     1      23.274   0.926  52.868  1.00  0.00     0.095 A 
HETATM   11  C17 UNL     1      22.823   1.940  52.031  1.00  0.00     0.075 A 
ENDROOT
BRANCH   1  12
HETATM   12  O1  UNL     1      21.270   3.298  51.073  1.00  0.00    -0.345 OA
BRANCH  12  13
HETATM   13  C3  UNL     1      21.957   4.501  50.985  1.00  0.00     0.227 C 
BRANCH  13  14
HETATM   14  C2  UNL     1      22.967   4.571  49.897  1.00  0.00     0.007 C 
HETATM   15  C1  UNL     1      22.914   4.446  48.559  1.00  0.00     0.060 C 
BRANCH  14  16
HETATM   16  N1  UNL     1      24.354   4.807  49.985  1.00  0.00    -0.388 N 
HETATM   17  H14 UNL     1      24.582   4.610  50.987  1.00  0.00     0.159 HD
BRANCH  16  18
HETATM   18  C18 UNL     1      25.423   5.220  49.087  1.00  0.00     0.197 C 
BRANCH  18  19
HETATM   19  C19 UNL     1      26.570   4.304  49.318  1.00  0.00     0.140 C 
HETATM   20  C20 UNL     1      26.314   3.090  50.149  1.00  0.00     0.092 C 
HETATM   21  O5  UNL     1      27.715   4.428  48.901  1.00  0.00    -0.297 OA
ENDBRANCH  18  19
ENDBRANCH  16  18
ENDBRANCH  14  16
ENDBRANCH  13  14
ENDBRANCH  12  13
ENDBRANCH   1  12
BRANCH   3  22
HETATM   22  O2  UNL     1      19.995  -0.053  54.316  1.00  0.00    -0.360 OA
HETATM   23  H6  UNL     1      19.377   0.585  54.822  1.00  0.00     0.217 HD
ENDBRANCH   3  22
BRANCH   8  24
HETATM   24  C11 UNL     1      26.411  -0.677  53.767  1.00  0.00     0.088 A 
HETATM   25  C12 UNL     1      27.028  -0.180  52.530  1.00  0.00    -0.012 A 
HETATM   26  C13 UNL     1      27.932   0.768  52.810  1.00  0.00    -0.003 A 
HETATM   27  C14 UNL     1      27.963   0.952  54.253  1.00  0.00    -0.003 A 
HETATM   28  C15 UNL     1      27.089   0.126  54.836  1.00  0.00    -0.012 A 
ENDBRANCH   8  24
TORSDOF 8
ENDMDL
MODEL 8
REMARK VINA RESULT:      -7.3      1.798      4.874
REMARK  8 active torsions:
REMARK  status: ('A' for Active; 'I' for Inactive)
REMARK    1  A    between atoms: C2_2  and  C3_3 
REMARK    2  A    between atoms: C2_2  and  N1_22 
REMARK    3  A    between atoms: C3_3  and  O1_4 
REMARK    4  A    between atoms: O1_4  and  C4_5 
REMARK    5  A    between atoms: C6_7  and  O2_8 
REMARK    6  A    between atoms: C10_13  and  C11_14 
REMARK    7  A    between atoms: N1_22  and  C18_23 
REMARK    8  A    between atoms: C18_23  and  C19_24 
ROOT
HETATM    1  C4  UNL     1      23.176   3.743  52.305  1.00  0.00     0.074 A 
HETATM    2  C5  UNL     1      22.227   2.756  52.138  1.00  0.00     0.074 A 
HETATM    3  C6  UNL     1      22.481   1.444  52.482  1.00  0.00     0.085 A 
HETATM    4  C7  UNL     1      23.714   1.094  53.009  1.00  0.00     0.081 A 
HETATM    5  C8  UNL     1      23.874  -0.240  53.321  1.00  0.00     0.190 A 
HETATM    6  O3  UNL     1      22.962  -1.088  53.141  1.00  0.00    -0.287 OA
HETATM    7  C9  UNL     1      25.115  -0.583  53.848  1.00  0.00     0.089 A 
HETATM    8  C10 UNL     1      26.066   0.405  54.016  1.00  0.00     0.069 A 
HETATM    9  O4  UNL     1      25.853   1.681  53.697  1.00  0.00    -0.313 OA
HETATM   10  C16 UNL     1      24.686   2.055  53.190  1.00  0.00     0.095 A 
HETATM   11  C17 UNL     1      24.417   3.373  52.839  1.00  0.00     0.075 A 
ENDROOT
BRANCH   1  12
HETATM   12  O1  UNL     1      23.154   5.087  52.040  1.00  0.00    -0.345 OA
BRANCH  12  13
HETATM   13  C3  UNL     1      22.716   5.728  50.889  1.00  0.00     0.227 C 
BRANCH  13  14
HETATM   14  C2  UNL     1      23.677   5.711  49.756  1.00  0.00     0.007 C 
HETATM   15  C1  UNL     1      23.551   5.775  48.419  1.00  0.00     0.060 C 
BRANCH  14  16
HETATM   16  N1  UNL     1      25.084   5.621  49.785  1.00  0.00    -0.388 N 
HETATM   17  H14 UNL     1      25.295   5.256  50.742  1.00  0.00     0.159 HD
BRANCH  16  18
HETATM   18  C18 UNL     1      26.187   5.893  48.874  1.00  0.00     0.197 C 
BRANCH  18  19
HETATM   19  C19 UNL     1      27.105   4.725  48.934  1.00  0.00     0.140 C 
HETATM   20  C20 UNL     1      26.572   3.474  49.551  1.00  0.00     0.092 C 
HETATM   21  O5  UNL     1      28.260   4.668  48.532  1.00  0.00    -0.297 OA
ENDBRANCH  18  19
ENDBRANCH  16  18
ENDBRANCH  14  16
ENDBRANCH  13  14
ENDBRANCH  12  13
ENDBRANCH   1  12
BRANCH   3  22
HETATM   22  O2  UNL     1      21.408   0.583  52.244  1.00  0.00    -0.360 OA
HETATM   23  H6  UNL     1      20.662   0.608  52.943  1.00  0.00     0.217 HD
ENDBRANCH   3  22
BRANCH   8  24
HETATM   24  C11 UNL     1      27.422   0.105  54.579  1.00  0.00     0.088 A 
HETATM   25  C12 UNL     1      28.043  -1.004  53.841  1.00  0.00    -0.012 A 
HETATM   26  C13 UNL     1      29.165  -0.589  53.238  1.00  0.00    -0.003 A 
HETATM   27  C14 UNL     1      29.349   0.822  53.543  1.00  0.00    -0.003 A 
HETATM   28  C15 UNL     1      28.352   1.253  54.321  1.00  0.00    -0.012 A 
ENDBRANCH   8  24
TORSDOF 8
ENDMDL
MODEL 9
REMARK VINA RESULT:      -7.2      2.906      5.565
REMARK  8 active torsions:
REMARK  status: ('A' for Active; 'I' for Inactive)
REMARK    1  A    between atoms: C2_2  and  C3_3 
REMARK    2  A    between atoms: C2_2  and  N1_22 
REMARK    3  A    between atoms: C3_3  and  O1_4 
REMARK    4  A    between atoms: O1_4  and  C4_5 
REMARK    5  A    between atoms: C6_7  and  O2_8 
REMARK    6  A    between atoms: C10_13  and  C11_14 
REMARK    7  A    between atoms: N1_22  and  C18_23 
REMARK    8  A    between atoms: C18_23  and  C19_24 
ROOT
HETATM    1  C4  UNL     1      25.702   3.833  49.638  1.00  0.00     0.074 A 
HETATM    2  C5  UNL     1      24.324   3.813  49.669  1.00  0.00     0.074 A 
HETATM    3  C6  UNL     1      23.632   2.939  50.484  1.00  0.00     0.085 A 
HETATM    4  C7  UNL     1      24.326   2.056  51.295  1.00  0.00     0.081 A 
HETATM    5  C8  UNL     1      23.548   1.223  52.072  1.00  0.00     0.190 A 
HETATM    6  O3  UNL     1      22.291   1.259  52.050  1.00  0.00    -0.287 OA
HETATM    7  C9  UNL     1      24.252   0.337  52.884  1.00  0.00     0.089 A 
HETATM    8  C10 UNL     1      25.633   0.358  52.853  1.00  0.00     0.069 A 
HETATM    9  O4  UNL     1      26.332   1.188  52.080  1.00  0.00    -0.313 OA
HETATM   10  C16 UNL     1      25.705   2.049  51.290  1.00  0.00     0.095 A 
HETATM   11  C17 UNL     1      26.388   2.934  50.465  1.00  0.00     0.075 A 
ENDROOT
BRANCH   1  12
HETATM   12  O1  UNL     1      26.590   4.594  48.924  1.00  0.00    -0.345 OA
BRANCH  12  13
HETATM   13  C3  UNL     1      26.455   5.916  48.519  1.00  0.00     0.227 C 
BRANCH  13  14
HETATM   14  C2  UNL     1      27.724   6.687  48.458  1.00  0.00     0.007 C 
HETATM   15  C1  UNL     1      28.051   7.922  48.037  1.00  0.00     0.060 C 
BRANCH  14  16
HETATM   16  N1  UNL     1      29.019   6.301  48.859  1.00  0.00    -0.388 N 
HETATM   17  H14 UNL     1      28.949   6.221  49.900  1.00  0.00     0.159 HD
BRANCH  16  18
HETATM   18  C18 UNL     1      30.293   6.017  48.214  1.00  0.00     0.197 C 
BRANCH  18  19
HETATM   19  C19 UNL     1      31.363   6.316  49.201  1.00  0.00     0.140 C 
HETATM   20  C20 UNL     1      31.951   7.689  49.170  1.00  0.00     0.092 C 
HETATM   21  O5  UNL     1      31.825   5.561  50.047  1.00  0.00    -0.297 OA
ENDBRANCH  18  19
ENDBRANCH  16  18
ENDBRANCH  14  16
ENDBRANCH  13  14
ENDBRANCH  12  13
ENDBRANCH   1  12
BRANCH   3  22
HETATM   22  O2  UNL     1      22.245   3.059  50.385  1.00  0.00    -0.360 OA
HETATM   23  H6  UNL     1      21.870   3.990  50.578  1.00  0.00     0.217 HD
ENDBRANCH   3  22
BRANCH   8  24
HETATM   24  C11 UNL     1      26.453  -0.568  53.701  1.00  0.00     0.088 A 
HETATM   25  C12 UNL     1      27.644  -1.011  52.962  1.00  0.00    -0.012 A 
HETATM   26  C13 UNL     1      28.756  -0.599  53.585  1.00  0.00    -0.003 A 
HETATM   27  C14 UNL     1      28.361   0.143  54.774  1.00  0.00    -0.003 A 
HETATM   28  C15 UNL     1      27.029   0.177  54.867  1.00  0.00    -0.012 A 
ENDBRANCH   8  24
TORSDOF 8
ENDMDL
