MODEL 1
REMARK VINA RESULT:      -8.6      0.000      0.000
REMARK  5 active torsions:
REMARK  status: ('A' for Active; 'I' for Inactive)
REMARK    1  A    between atoms: O1_1  and  C1_2 
REMARK    2  A    between atoms: C1_2  and  C2_3 
REMARK    3  A    between atoms: C2_3  and  N1_4 
REMARK    4  A    between atoms: C2_3  and  C19_23 
REMARK    5  A    between atoms: N1_4  and  C3_5 
ROOT
HETATM    1  C3  UNL     1      20.994   2.116  51.857  1.00  0.00     0.044 C 
HETATM    2  C4  UNL     1      21.465   3.324  52.169  1.00  0.00     0.144 C 
HETATM    3  N2  UNL     1      22.316   4.418  52.349  1.00  0.00    -0.252 NA
HETATM    4  C5  UNL     1      22.963   5.076  51.489  1.00  0.00     0.232 C 
HETATM    5  N3  UNL     1      23.567   5.630  50.329  1.00  0.00    -0.253 NA
HETATM    6  C6  UNL     1      23.969   4.874  49.352  1.00  0.00     0.129 C 
HETATM    7  C7  UNL     1      23.754   3.442  49.539  1.00  0.00    -0.018 C 
HETATM    8  C8  UNL     1      24.112   2.575  50.506  1.00  0.00     0.021 C 
HETATM    9  C9  UNL     1      23.313   1.652  51.342  1.00  0.00    -0.035 C 
HETATM   10  C10 UNL     1      24.192   1.329  52.307  1.00  0.00     0.010 C 
HETATM   11  C11 UNL     1      23.775   0.406  53.366  1.00  0.00     0.012 C 
HETATM   12  C12 UNL     1      22.516   0.044  53.360  1.00  0.00    -0.028 C 
HETATM   13  C13 UNL     1      21.948  -0.081  52.194  1.00  0.00     0.010 C 
HETATM   14  C14 UNL     1      21.935   1.123  51.286  1.00  0.00     0.067 C 
HETATM   15  C15 UNL     1      21.525   0.661  49.964  1.00  0.00    -0.002 C 
HETATM   16  C16 UNL     1      21.412   1.090  48.701  1.00  0.00    -0.002 C 
HETATM   17  C17 UNL     1      22.073   2.207  47.985  1.00  0.00     0.001 C 
HETATM   18  C18 UNL     1      22.982   3.129  48.315  1.00  0.00     0.013 C 
ENDROOT
BRANCH   1  19
HETATM   19  N1  UNL     1      19.605   1.959  52.134  1.00  0.00    -0.380 N 
HETATM   20  H5  UNL     1      19.486   2.365  53.113  1.00  0.00     0.160 HD
BRANCH  19  21
HETATM   21  C2  UNL     1      18.484   1.408  51.397  1.00  0.00     0.138 C 
BRANCH  21  22
HETATM   22  C1  UNL     1      17.340   2.428  51.533  1.00  0.00     0.194 C 
BRANCH  22  23
HETATM   23  O1  UNL     1      17.840   3.635  51.980  1.00  0.00    -0.399 OA
HETATM   24  H1  UNL     1      18.788   3.722  51.752  1.00  0.00     0.209 HD
ENDBRANCH  22  23
ENDBRANCH  21  22
BRANCH  21  25
HETATM   25  C19 UNL     1      17.983   0.130  51.994  1.00  0.00    -0.034 A 
HETATM   26  C20 UNL     1      16.745  -0.188  51.452  1.00  0.00     0.009 A 
HETATM   27  C21 UNL     1      16.071  -1.345  51.857  1.00  0.00     0.001 A 
HETATM   28  C22 UNL     1      16.657  -2.164  52.802  1.00  0.00     0.000 A 
HETATM   29  C23 UNL     1      17.889  -1.825  53.325  1.00  0.00     0.001 A 
HETATM   30  C24 UNL     1      18.568  -0.689  52.937  1.00  0.00     0.009 A 
ENDBRANCH  21  25
ENDBRANCH  19  21
ENDBRANCH   1  19
TORSDOF 5
ENDMDL
MODEL 2
REMARK VINA RESULT:      -8.5      3.119      5.374
REMARK  5 active torsions:
REMARK  status: ('A' for Active; 'I' for Inactive)
REMARK    1  A    between atoms: O1_1  and  C1_2 
REMARK    2  A    between atoms: C1_2  and  C2_3 
REMARK    3  A    between atoms: C2_3  and  N1_4 
REMARK    4  A    between atoms: C2_3  and  C19_23 
REMARK    5  A    between atoms: N1_4  and  C3_5 
ROOT
HETATM    1  C3  UNL     1      24.449   4.744  50.825  1.00  0.00     0.044 C 
HETATM    2  C4  UNL     1      23.831   5.869  51.186  1.00  0.00     0.144 C 
HETATM    3  N2  UNL     1      23.167   7.098  51.147  1.00  0.00    -0.252 NA
HETATM    4  C5  UNL     1      22.048   7.385  50.640  1.00  0.00     0.232 C 
HETATM    5  N3  UNL     1      20.781   7.421  49.998  1.00  0.00    -0.253 NA
HETATM    6  C6  UNL     1      20.547   6.723  48.928  1.00  0.00     0.129 C 
HETATM    7  C7  UNL     1      21.666   5.915  48.451  1.00  0.00    -0.018 C 
HETATM    8  C8  UNL     1      22.938   6.208  48.117  1.00  0.00     0.021 C 
HETATM    9  C9  UNL     1      24.229   5.670  48.598  1.00  0.00    -0.035 C 
HETATM   10  C10 UNL     1      25.097   6.585  48.134  1.00  0.00     0.010 C 
HETATM   11  C11 UNL     1      26.526   6.411  48.407  1.00  0.00     0.012 C 
HETATM   12  C12 UNL     1      26.851   5.417  49.197  1.00  0.00    -0.028 C 
HETATM   13  C13 UNL     1      26.116   4.343  49.119  1.00  0.00     0.010 C 
HETATM   14  C14 UNL     1      24.637   4.482  49.378  1.00  0.00     0.067 C 
HETATM   15  C15 UNL     1      24.007   3.239  48.948  1.00  0.00    -0.002 C 
HETATM   16  C16 UNL     1      22.797   2.698  48.758  1.00  0.00    -0.002 C 
HETATM   17  C17 UNL     1      21.473   3.322  48.527  1.00  0.00     0.001 C 
HETATM   18  C18 UNL     1      21.031   4.578  48.414  1.00  0.00     0.013 C 
ENDROOT
BRANCH   1  19
HETATM   19  N1  UNL     1      24.851   3.937  51.928  1.00  0.00    -0.380 N 
HETATM   20  H5  UNL     1      25.915   3.906  51.856  1.00  0.00     0.160 HD
BRANCH  19  21
HETATM   21  C2  UNL     1      24.139   3.244  52.984  1.00  0.00     0.138 C 
BRANCH  21  22
HETATM   22  C1  UNL     1      25.079   2.125  53.469  1.00  0.00     0.194 C 
BRANCH  22  23
HETATM   23  O1  UNL     1      26.271   2.670  53.902  1.00  0.00    -0.399 OA
HETATM   24  H1  UNL     1      26.153   3.120  54.764  1.00  0.00     0.209 HD
ENDBRANCH  22  23
ENDBRANCH  21  22
BRANCH  21  25
HETATM   25  C19 UNL     1      22.899   2.568  52.487  1.00  0.00    -0.034 A 
HETATM   26  C20 UNL     1      23.179   1.245  52.174  1.00  0.00     0.009 A 
HETATM   27  C21 UNL     1      22.174   0.405  51.686  1.00  0.00     0.001 A 
HETATM   28  C22 UNL     1      20.900   0.912  51.522  1.00  0.00     0.000 A 
HETATM   29  C23 UNL     1      20.648   2.231  51.842  1.00  0.00     0.001 A 
HETATM   30  C24 UNL     1      21.627   3.074  52.324  1.00  0.00     0.009 A 
ENDBRANCH  21  25
ENDBRANCH  19  21
ENDBRANCH   1  19
TORSDOF 5
ENDMDL
MODEL 3
REMARK VINA RESULT:      -8.3      2.531      7.076
REMARK  5 active torsions:
REMARK  status: ('A' for Active; 'I' for Inactive)
REMARK    1  A    between atoms: O1_1  and  C1_2 
REMARK    2  A    between atoms: C1_2  and  C2_3 
REMARK    3  A    between atoms: C2_3  and  N1_4 
REMARK    4  A    between atoms: C2_3  and  C19_23 
REMARK    5  A    between atoms: N1_4  and  C3_5 
ROOT
HETATM    1  C3  UNL     1      23.218   3.807  51.398  1.00  0.00     0.044 C 
HETATM    2  C4  UNL     1      21.996   3.695  51.922  1.00  0.00     0.144 C 
HETATM    3  N2  UNL     1      20.732   3.211  52.265  1.00  0.00    -0.252 NA
HETATM    4  C5  UNL     1      20.424   2.172  52.913  1.00  0.00     0.232 C 
HETATM    5  N3  UNL     1      20.370   0.964  53.658  1.00  0.00    -0.253 NA
HETATM    6  C6  UNL     1      21.203  -0.006  53.431  1.00  0.00     0.129 C 
HETATM    7  C7  UNL     1      22.178   0.241  52.373  1.00  0.00    -0.018 C 
HETATM    8  C8  UNL     1      22.063   0.594  51.078  1.00  0.00     0.021 C 
HETATM    9  C9  UNL     1      22.638   1.722  50.313  1.00  0.00    -0.035 C 
HETATM   10  C10 UNL     1      21.894   1.700  49.194  1.00  0.00     0.010 C 
HETATM   11  C11 UNL     1      22.158   2.692  48.147  1.00  0.00     0.012 C 
HETATM   12  C12 UNL     1      23.040   3.617  48.431  1.00  0.00    -0.028 C 
HETATM   13  C13 UNL     1      24.039   3.261  49.189  1.00  0.00     0.010 C 
HETATM   14  C14 UNL     1      23.721   2.699  50.552  1.00  0.00     0.067 C 
HETATM   15  C15 UNL     1      24.951   2.113  51.073  1.00  0.00    -0.002 C 
HETATM   16  C16 UNL     1      25.398   1.368  52.091  1.00  0.00    -0.002 C 
HETATM   17  C17 UNL     1      24.696   0.428  52.997  1.00  0.00     0.001 C 
HETATM   18  C18 UNL     1      23.437  -0.006  53.110  1.00  0.00     0.013 C 
ENDROOT
BRANCH   1  19
HETATM   19  N1  UNL     1      23.875   5.023  51.743  1.00  0.00    -0.380 N 
HETATM   20  H5  UNL     1      24.458   4.772  52.601  1.00  0.00     0.160 HD
BRANCH  19  21
HETATM   21  C2  UNL     1      23.873   6.364  51.191  1.00  0.00     0.138 C 
BRANCH  21  22
HETATM   22  C1  UNL     1      22.467   6.583  50.605  1.00  0.00     0.194 C 
BRANCH  22  23
HETATM   23  O1  UNL     1      21.676   7.248  51.521  1.00  0.00    -0.399 OA
HETATM   24  H1  UNL     1      22.132   8.047  51.856  1.00  0.00     0.209 HD
ENDBRANCH  22  23
ENDBRANCH  21  22
BRANCH  21  25
HETATM   25  C19 UNL     1      24.833   6.512  50.052  1.00  0.00    -0.034 A 
HETATM   26  C20 UNL     1      24.331   7.420  49.130  1.00  0.00     0.009 A 
HETATM   27  C21 UNL     1      25.053   7.726  47.972  1.00  0.00     0.001 A 
HETATM   28  C22 UNL     1      26.271   7.112  47.762  1.00  0.00     0.000 A 
HETATM   29  C23 UNL     1      26.749   6.213  48.695  1.00  0.00     0.001 A 
HETATM   30  C24 UNL     1      26.050   5.899  49.842  1.00  0.00     0.009 A 
ENDBRANCH  21  25
ENDBRANCH  19  21
ENDBRANCH   1  19
TORSDOF 5
ENDMDL
MODEL 4
REMARK VINA RESULT:      -8.3      9.689     13.583
REMARK  5 active torsions:
REMARK  status: ('A' for Active; 'I' for Inactive)
REMARK    1  A    between atoms: O1_1  and  C1_2 
REMARK    2  A    between atoms: C1_2  and  C2_3 
REMARK    3  A    between atoms: C2_3  and  N1_4 
REMARK    4  A    between atoms: C2_3  and  C19_23 
REMARK    5  A    between atoms: N1_4  and  C3_5 
ROOT
HETATM    1  C3  UNL     1      29.726   8.621  48.354  1.00  0.00     0.044 C 
HETATM    2  C4  UNL     1      30.724   8.221  49.143  1.00  0.00     0.144 C 
HETATM    3  N2  UNL     1      31.748   7.464  49.719  1.00  0.00    -0.252 NA
HETATM    4  C5  UNL     1      32.825   7.055  49.203  1.00  0.00     0.232 C 
HETATM    5  N3  UNL     1      33.938   6.734  48.382  1.00  0.00    -0.253 NA
HETATM    6  C6  UNL     1      33.787   6.447  47.124  1.00  0.00     0.129 C 
HETATM    7  C7  UNL     1      32.412   6.482  46.634  1.00  0.00    -0.018 C 
HETATM    8  C8  UNL     1      31.279   5.867  47.025  1.00  0.00     0.021 C 
HETATM    9  C9  UNL     1      29.955   6.403  47.412  1.00  0.00    -0.035 C 
HETATM   10  C10 UNL     1      29.390   5.333  47.998  1.00  0.00     0.010 C 
HETATM   11  C11 UNL     1      28.031   5.454  48.534  1.00  0.00     0.012 C 
HETATM   12  C12 UNL     1      27.498   6.650  48.506  1.00  0.00    -0.028 C 
HETATM   13  C13 UNL     1      27.817   7.410  47.496  1.00  0.00     0.010 C 
HETATM   14  C14 UNL     1      29.278   7.709  47.275  1.00  0.00     0.067 C 
HETATM   15  C15 UNL     1      29.399   8.309  45.951  1.00  0.00    -0.002 C 
HETATM   16  C16 UNL     1      30.325   8.695  45.064  1.00  0.00    -0.002 C 
HETATM   17  C17 UNL     1      31.740   8.292  44.891  1.00  0.00     0.001 C 
HETATM   18  C18 UNL     1      32.556   7.432  45.509  1.00  0.00     0.013 C 
ENDROOT
BRANCH   1  19
HETATM   19  N1  UNL     1      29.223   9.912  48.685  1.00  0.00    -0.380 N 
HETATM   20  H5  UNL     1      28.196   9.741  48.920  1.00  0.00     0.160 HD
BRANCH  19  21
HETATM   21  C2  UNL     1      29.806  11.239  48.741  1.00  0.00     0.138 C 
BRANCH  21  22
HETATM   22  C1  UNL     1      28.634  12.227  48.601  1.00  0.00     0.194 C 
BRANCH  22  23
HETATM   23  O1  UNL     1      28.509  12.972  49.756  1.00  0.00    -0.399 OA
HETATM   24  H1  UNL     1      27.592  12.934  50.096  1.00  0.00     0.209 HD
ENDBRANCH  22  23
ENDBRANCH  21  22
BRANCH  21  25
HETATM   25  C19 UNL     1      30.723  11.507  47.588  1.00  0.00    -0.034 A 
HETATM   26  C20 UNL     1      30.010  12.082  46.545  1.00  0.00     0.009 A 
HETATM   27  C21 UNL     1      30.654  12.424  45.351  1.00  0.00     0.001 A 
HETATM   28  C22 UNL     1      32.008  12.183  45.230  1.00  0.00     0.000 A 
HETATM   29  C23 UNL     1      32.694  11.610  46.282  1.00  0.00     0.001 A 
HETATM   30  C24 UNL     1      32.075  11.266  47.466  1.00  0.00     0.009 A 
ENDBRANCH  21  25
ENDBRANCH  19  21
ENDBRANCH   1  19
TORSDOF 5
ENDMDL
MODEL 5
REMARK VINA RESULT:      -8.2      3.223      6.499
REMARK  5 active torsions:
REMARK  status: ('A' for Active; 'I' for Inactive)
REMARK    1  A    between atoms: O1_1  and  C1_2 
REMARK    2  A    between atoms: C1_2  and  C2_3 
REMARK    3  A    between atoms: C2_3  and  N1_4 
REMARK    4  A    between atoms: C2_3  and  C19_23 
REMARK    5  A    between atoms: N1_4  and  C3_5 
ROOT
HETATM    1  C3  UNL     1      23.325   1.892  51.038  1.00  0.00     0.044 C 
HETATM    2  C4  UNL     1      22.527   1.495  50.047  1.00  0.00     0.144 C 
HETATM    3  N2  UNL     1      21.395   1.164  49.297  1.00  0.00    -0.252 NA
HETATM    4  C5  UNL     1      20.431   1.897  48.940  1.00  0.00     0.232 C 
HETATM    5  N3  UNL     1      19.495   2.934  48.682  1.00  0.00    -0.253 NA
HETATM    6  C6  UNL     1      19.223   3.834  49.577  1.00  0.00     0.129 C 
HETATM    7  C7  UNL     1      19.941   3.698  50.841  1.00  0.00    -0.018 C 
HETATM    8  C8  UNL     1      20.063   2.692  51.729  1.00  0.00     0.021 C 
HETATM    9  C9  UNL     1      21.252   2.011  52.284  1.00  0.00    -0.035 C 
HETATM   10  C10 UNL     1      20.705   0.913  52.836  1.00  0.00     0.010 C 
HETATM   11  C11 UNL     1      21.578  -0.052  53.510  1.00  0.00     0.012 C 
HETATM   12  C12 UNL     1      22.867   0.169  53.425  1.00  0.00    -0.028 C 
HETATM   13  C13 UNL     1      23.246   1.416  53.408  1.00  0.00     0.010 C 
HETATM   14  C14 UNL     1      22.700   2.303  52.318  1.00  0.00     0.067 C 
HETATM   15  C15 UNL     1      23.024   3.679  52.680  1.00  0.00    -0.002 C 
HETATM   16  C16 UNL     1      22.778   4.940  52.303  1.00  0.00    -0.002 C 
HETATM   17  C17 UNL     1      21.669   5.524  51.512  1.00  0.00     0.001 C 
HETATM   18  C18 UNL     1      20.565   5.037  50.936  1.00  0.00     0.013 C 
ENDROOT
BRANCH   1  19
HETATM   19  N1  UNL     1      24.709   1.855  50.703  1.00  0.00    -0.380 N 
HETATM   20  H5  UNL     1      24.782   1.079  49.974  1.00  0.00     0.160 HD
BRANCH  19  21
HETATM   21  C2  UNL     1      25.874   2.601  51.138  1.00  0.00     0.138 C 
BRANCH  21  22
HETATM   22  C1  UNL     1      26.684   2.909  49.866  1.00  0.00     0.194 C 
BRANCH  22  23
HETATM   23  O1  UNL     1      27.286   4.146  49.983  1.00  0.00    -0.399 OA
HETATM   24  H1  UNL     1      27.350   4.413  50.922  1.00  0.00     0.209 HD
ENDBRANCH  22  23
ENDBRANCH  21  22
BRANCH  21  25
HETATM   25  C19 UNL     1      26.770   1.792  52.024  1.00  0.00    -0.034 A 
HETATM   26  C20 UNL     1      26.469   0.444  51.890  1.00  0.00     0.009 A 
HETATM   27  C21 UNL     1      27.175  -0.516  52.622  1.00  0.00     0.001 A 
HETATM   28  C22 UNL     1      28.176  -0.100  53.477  1.00  0.00     0.000 A 
HETATM   29  C23 UNL     1      28.456   1.247  53.592  1.00  0.00     0.001 A 
HETATM   30  C24 UNL     1      27.770   2.207  52.878  1.00  0.00     0.009 A 
ENDBRANCH  21  25
ENDBRANCH  19  21
ENDBRANCH   1  19
TORSDOF 5
ENDMDL
MODEL 6
REMARK VINA RESULT:      -8.2      1.997      3.308
REMARK  5 active torsions:
REMARK  status: ('A' for Active; 'I' for Inactive)
REMARK    1  A    between atoms: O1_1  and  C1_2 
REMARK    2  A    between atoms: C1_2  and  C2_3 
REMARK    3  A    between atoms: C2_3  and  N1_4 
REMARK    4  A    between atoms: C2_3  and  C19_23 
REMARK    5  A    between atoms: N1_4  and  C3_5 
ROOT
HETATM    1  C3  UNL     1      21.013   2.538  51.775  1.00  0.00     0.044 C 
HETATM    2  C4  UNL     1      21.723   3.585  52.198  1.00  0.00     0.144 C 
HETATM    3  N2  UNL     1      22.787   4.430  52.528  1.00  0.00    -0.252 NA
HETATM    4  C5  UNL     1      23.674   4.925  51.779  1.00  0.00     0.232 C 
HETATM    5  N3  UNL     1      24.529   5.337  50.723  1.00  0.00    -0.253 NA
HETATM    6  C6  UNL     1      24.850   4.527  49.760  1.00  0.00     0.129 C 
HETATM    7  C7  UNL     1      24.271   3.189  49.849  1.00  0.00    -0.018 C 
HETATM    8  C8  UNL     1      24.288   2.239  50.804  1.00  0.00     0.021 C 
HETATM    9  C9  UNL     1      23.194   1.525  51.498  1.00  0.00    -0.035 C 
HETATM   10  C10 UNL     1      23.845   0.974  52.537  1.00  0.00     0.010 C 
HETATM   11  C11 UNL     1      23.091   0.160  53.495  1.00  0.00     0.012 C 
HETATM   12  C12 UNL     1      21.792   0.121  53.331  1.00  0.00    -0.028 C 
HETATM   13  C13 UNL     1      21.355   0.167  52.104  1.00  0.00     0.010 C 
HETATM   14  C14 UNL     1      21.745   1.356  51.262  1.00  0.00     0.067 C 
HETATM   15  C15 UNL     1      21.397   1.039  49.882  1.00  0.00    -0.002 C 
HETATM   16  C16 UNL     1      21.545   1.510  48.637  1.00  0.00    -0.002 C 
HETATM   17  C17 UNL     1      22.539   2.443  48.057  1.00  0.00     0.001 C 
HETATM   18  C18 UNL     1      23.599   3.103  48.533  1.00  0.00     0.013 C 
ENDROOT
BRANCH   1  19
HETATM   19  N1  UNL     1      19.605   2.725  51.887  1.00  0.00    -0.380 N 
HETATM   20  H5  UNL     1      19.290   1.953  52.552  1.00  0.00     0.160 HD
BRANCH  19  21
HETATM   21  C2  UNL     1      18.662   3.668  51.315  1.00  0.00     0.138 C 
BRANCH  21  22
HETATM   22  C1  UNL     1      17.261   3.129  51.655  1.00  0.00     0.194 C 
BRANCH  22  23
HETATM   23  O1  UNL     1      16.569   4.063  52.400  1.00  0.00    -0.399 OA
HETATM   24  H1  UNL     1      16.448   4.891  51.891  1.00  0.00     0.209 HD
ENDBRANCH  22  23
ENDBRANCH  21  22
BRANCH  21  25
HETATM   25  C19 UNL     1      18.744   3.720  49.821  1.00  0.00    -0.034 A 
HETATM   26  C20 UNL     1      19.581   4.758  49.433  1.00  0.00     0.009 A 
HETATM   27  C21 UNL     1      19.816   5.008  48.078  1.00  0.00     0.001 A 
HETATM   28  C22 UNL     1      19.205   4.206  47.134  1.00  0.00     0.000 A 
HETATM   29  C23 UNL     1      18.378   3.181  47.546  1.00  0.00     0.001 A 
HETATM   30  C24 UNL     1      18.134   2.920  48.879  1.00  0.00     0.009 A 
ENDBRANCH  21  25
ENDBRANCH  19  21
ENDBRANCH   1  19
TORSDOF 5
ENDMDL
MODEL 7
REMARK VINA RESULT:      -8.1      3.836      6.109
REMARK  5 active torsions:
REMARK  status: ('A' for Active; 'I' for Inactive)
REMARK    1  A    between atoms: O1_1  and  C1_2 
REMARK    2  A    between atoms: C1_2  and  C2_3 
REMARK    3  A    between atoms: C2_3  and  N1_4 
REMARK    4  A    between atoms: C2_3  and  C19_23 
REMARK    5  A    between atoms: N1_4  and  C3_5 
ROOT
HETATM    1  C3  UNL     1      24.110   3.977  50.959  1.00  0.00     0.044 C 
HETATM    2  C4  UNL     1      23.808   5.202  51.391  1.00  0.00     0.144 C 
HETATM    3  N2  UNL     1      23.545   6.574  51.434  1.00  0.00    -0.252 NA
HETATM    4  C5  UNL     1      22.634   7.230  50.859  1.00  0.00     0.232 C 
HETATM    5  N3  UNL     1      21.527   7.705  50.106  1.00  0.00    -0.253 NA
HETATM    6  C6  UNL     1      21.238   7.205  48.943  1.00  0.00     0.129 C 
HETATM    7  C7  UNL     1      22.122   6.138  48.484  1.00  0.00    -0.018 C 
HETATM    8  C8  UNL     1      23.456   6.056  48.312  1.00  0.00     0.021 C 
HETATM    9  C9  UNL     1      24.459   5.110  48.848  1.00  0.00    -0.035 C 
HETATM   10  C10 UNL     1      25.609   5.754  48.583  1.00  0.00     0.010 C 
HETATM   11  C11 UNL     1      26.877   5.129  48.971  1.00  0.00     0.012 C 
HETATM   12  C12 UNL     1      26.792   4.020  49.664  1.00  0.00    -0.028 C 
HETATM   13  C13 UNL     1      25.791   3.232  49.388  1.00  0.00     0.010 C 
HETATM   14  C14 UNL     1      24.398   3.794  49.516  1.00  0.00     0.067 C 
HETATM   15  C15 UNL     1      23.491   2.843  48.883  1.00  0.00    -0.002 C 
HETATM   16  C16 UNL     1      22.211   2.715  48.512  1.00  0.00    -0.002 C 
HETATM   17  C17 UNL     1      21.169   3.730  48.230  1.00  0.00     0.001 C 
HETATM   18  C18 UNL     1      21.134   5.067  48.226  1.00  0.00     0.013 C 
ENDROOT
BRANCH   1  19
HETATM   19  N1  UNL     1      24.113   2.995  51.992  1.00  0.00    -0.380 N 
HETATM   20  H5  UNL     1      23.996   3.559  52.890  1.00  0.00     0.160 HD
BRANCH  19  21
HETATM   21  C2  UNL     1      24.238   1.550  52.011  1.00  0.00     0.138 C 
BRANCH  21  22
HETATM   22  C1  UNL     1      23.258   1.052  53.088  1.00  0.00     0.194 C 
BRANCH  22  23
HETATM   23  O1  UNL     1      22.686  -0.139  52.686  1.00  0.00    -0.399 OA
HETATM   24  H1  UNL     1      21.873  -0.323  53.199  1.00  0.00     0.209 HD
ENDBRANCH  22  23
ENDBRANCH  21  22
BRANCH  21  25
HETATM   25  C19 UNL     1      25.600   1.102  52.441  1.00  0.00    -0.034 A 
HETATM   26  C20 UNL     1      26.282   2.163  53.020  1.00  0.00     0.009 A 
HETATM   27  C21 UNL     1      27.584   1.990  53.501  1.00  0.00     0.001 A 
HETATM   28  C22 UNL     1      28.177   0.747  53.392  1.00  0.00     0.000 A 
HETATM   29  C23 UNL     1      27.477  -0.291  52.812  1.00  0.00     0.001 A 
HETATM   30  C24 UNL     1      26.193  -0.138  52.332  1.00  0.00     0.009 A 
ENDBRANCH  21  25
ENDBRANCH  19  21
ENDBRANCH   1  19
TORSDOF 5
ENDMDL
MODEL 8
REMARK VINA RESULT:      -8.1      2.677      6.516
REMARK  5 active torsions:
REMARK  status: ('A' for Active; 'I' for Inactive)
REMARK    1  A    between atoms: O1_1  and  C1_2 
REMARK    2  A    between atoms: C1_2  and  C2_3 
REMARK    3  A    between atoms: C2_3  and  N1_4 
REMARK    4  A    between atoms: C2_3  and  C19_23 
REMARK    5  A    between atoms: N1_4  and  C3_5 
ROOT
HETATM    1  C3  UNL     1      22.560   3.637  51.206  1.00  0.00     0.044 C 
HETATM    2  C4  UNL     1      21.433   3.358  51.862  1.00  0.00     0.144 C 
HETATM    3  N2  UNL     1      20.328   2.683  52.387  1.00  0.00    -0.252 NA
HETATM    4  C5  UNL     1      20.294   1.702  53.180  1.00  0.00     0.232 C 
HETATM    5  N3  UNL     1      20.552   0.619  54.062  1.00  0.00    -0.253 NA
HETATM    6  C6  UNL     1      21.549  -0.190  53.864  1.00  0.00     0.129 C 
HETATM    7  C7  UNL     1      22.366   0.100  52.690  1.00  0.00    -0.018 C 
HETATM    8  C8  UNL     1      22.081   0.246  51.381  1.00  0.00     0.021 C 
HETATM    9  C9  UNL     1      22.347   1.352  50.436  1.00  0.00    -0.035 C 
HETATM   10  C10 UNL     1      21.540   1.033  49.409  1.00  0.00     0.010 C 
HETATM   11  C11 UNL     1      21.510   1.907  48.233  1.00  0.00     0.012 C 
HETATM   12  C12 UNL     1      22.198   3.019  48.315  1.00  0.00    -0.028 C 
HETATM   13  C13 UNL     1      23.304   2.972  49.003  1.00  0.00     0.010 C 
HETATM   14  C14 UNL     1      23.217   2.547  50.447  1.00  0.00     0.067 C 
HETATM   15  C15 UNL     1      24.579   2.291  50.903  1.00  0.00    -0.002 C 
HETATM   16  C16 UNL     1      25.249   1.793  51.950  1.00  0.00    -0.002 C 
HETATM   17  C17 UNL     1      24.830   0.864  53.026  1.00  0.00     0.001 C 
HETATM   18  C18 UNL     1      23.703   0.209  53.317  1.00  0.00     0.013 C 
ENDROOT
BRANCH   1  19
HETATM   19  N1  UNL     1      22.973   4.994  51.339  1.00  0.00    -0.380 N 
HETATM   20  H5  UNL     1      23.037   5.147  52.393  1.00  0.00     0.160 HD
BRANCH  19  21
HETATM   21  C2  UNL     1      23.275   6.055  50.397  1.00  0.00     0.138 C 
BRANCH  21  22
HETATM   22  C1  UNL     1      24.142   7.071  51.161  1.00  0.00     0.194 C 
BRANCH  22  23
HETATM   23  O1  UNL     1      24.401   6.602  52.433  1.00  0.00    -0.399 OA
HETATM   24  H1  UNL     1      24.332   5.626  52.463  1.00  0.00     0.209 HD
ENDBRANCH  22  23
ENDBRANCH  21  22
BRANCH  21  25
HETATM   25  C19 UNL     1      22.048   6.793  49.957  1.00  0.00    -0.034 A 
HETATM   26  C20 UNL     1      22.353   8.132  49.759  1.00  0.00     0.009 A 
HETATM   27  C21 UNL     1      21.363   9.029  49.344  1.00  0.00     0.001 A 
HETATM   28  C22 UNL     1      20.081   8.560  49.135  1.00  0.00     0.000 A 
HETATM   29  C23 UNL     1      19.805   7.223  49.339  1.00  0.00     0.001 A 
HETATM   30  C24 UNL     1      20.769   6.325  49.748  1.00  0.00     0.009 A 
ENDBRANCH  21  25
ENDBRANCH  19  21
ENDBRANCH   1  19
TORSDOF 5
ENDMDL
MODEL 9
REMARK VINA RESULT:      -8.1      3.879      6.605
REMARK  5 active torsions:
REMARK  status: ('A' for Active; 'I' for Inactive)
REMARK    1  A    between atoms: O1_1  and  C1_2 
REMARK    2  A    between atoms: C1_2  and  C2_3 
REMARK    3  A    between atoms: C2_3  and  N1_4 
REMARK    4  A    between atoms: C2_3  and  C19_23 
REMARK    5  A    between atoms: N1_4  and  C3_5 
ROOT
HETATM    1  C3  UNL     1      24.670   2.686  51.130  1.00  0.00     0.044 C 
HETATM    2  C4  UNL     1      25.734   2.801  50.334  1.00  0.00     0.144 C 
HETATM    3  N2  UNL     1      26.579   3.159  49.280  1.00  0.00    -0.252 NA
HETATM    4  C5  UNL     1      26.971   4.305  48.925  1.00  0.00     0.232 C 
HETATM    5  N3  UNL     1      27.250   5.687  48.755  1.00  0.00    -0.253 NA
HETATM    6  C6  UNL     1      26.337   6.589  48.957  1.00  0.00     0.129 C 
HETATM    7  C7  UNL     1      25.032   6.078  49.366  1.00  0.00    -0.018 C 
HETATM    8  C8  UNL     1      24.184   5.181  48.828  1.00  0.00     0.021 C 
HETATM    9  C9  UNL     1      23.575   3.951  49.381  1.00  0.00    -0.035 C 
HETATM   10  C10 UNL     1      23.114   3.352  48.269  1.00  0.00     0.010 C 
HETATM   11  C11 UNL     1      22.423   2.065  48.392  1.00  0.00     0.012 C 
HETATM   12  C12 UNL     1      22.403   1.526  49.585  1.00  0.00    -0.028 C 
HETATM   13  C13 UNL     1      22.336   2.345  50.597  1.00  0.00     0.010 C 
HETATM   14  C14 UNL     1      23.422   3.382  50.736  1.00  0.00     0.067 C 
HETATM   15  C15 UNL     1      22.976   4.341  51.740  1.00  0.00    -0.002 C 
HETATM   16  C16 UNL     1      23.313   5.521  52.274  1.00  0.00    -0.002 C 
HETATM   17  C17 UNL     1      24.156   6.624  51.754  1.00  0.00     0.001 C 
HETATM   18  C18 UNL     1      24.832   6.838  50.621  1.00  0.00     0.013 C 
ENDROOT
BRANCH   1  19
HETATM   19  N1  UNL     1      24.906   1.879  52.280  1.00  0.00    -0.380 N 
HETATM   20  H5  UNL     1      24.882   2.568  53.094  1.00  0.00     0.160 HD
BRANCH  19  21
HETATM   21  C2  UNL     1      25.143   0.463  52.488  1.00  0.00     0.138 C 
BRANCH  21  22
HETATM   22  C1  UNL     1      24.234   0.045  53.658  1.00  0.00     0.194 C 
BRANCH  22  23
HETATM   23  O1  UNL     1      23.025  -0.410  53.171  1.00  0.00    -0.399 OA
HETATM   24  H1  UNL     1      23.158  -0.954  52.368  1.00  0.00     0.209 HD
ENDBRANCH  22  23
ENDBRANCH  21  22
BRANCH  21  25
HETATM   25  C19 UNL     1      26.548   0.179  52.923  1.00  0.00    -0.034 A 
HETATM   26  C20 UNL     1      27.088   1.306  53.529  1.00  0.00     0.009 A 
HETATM   27  C21 UNL     1      28.397   1.286  54.021  1.00  0.00     0.001 A 
HETATM   28  C22 UNL     1      29.141   0.130  53.894  1.00  0.00     0.000 A 
HETATM   29  C23 UNL     1      28.580  -0.976  53.287  1.00  0.00     0.001 A 
HETATM   30  C24 UNL     1      27.291  -0.975  52.797  1.00  0.00     0.009 A 
ENDBRANCH  21  25
ENDBRANCH  19  21
ENDBRANCH   1  19
TORSDOF 5
ENDMDL
