MODEL 1
REMARK VINA RESULT:      -9.1      0.000      0.000
REMARK  7 active torsions:
REMARK  status: ('A' for Active; 'I' for Inactive)
REMARK    1  A    between atoms: O1_2  and  C2_3 
REMARK    2  A    between atoms: N1_7  and  C6_8 
REMARK    3  A    between atoms: C9_11  and  N2_12 
REMARK    4  A    between atoms: N2_12  and  C10_13 
REMARK    5  A    between atoms: C10_13  and  C11_14 
REMARK    6  A    between atoms: C16_19  and  O2_20 
REMARK    7  A    between atoms: C22_27  and  C23_28 
ROOT
HETATM    1  C2  UNL     1      21.903   0.583  53.150  1.00  0.00     0.080 A 
HETATM    2  C3  UNL     1      22.404   1.408  52.234  1.00  0.00     0.047 A 
HETATM    3  C4  UNL     1      23.830   1.423  52.058  1.00  0.00    -0.027 A 
HETATM    4  C5  UNL     1      24.273   2.286  51.140  1.00  0.00     0.096 C 
HETATM    5  N1  UNL     1      25.560   2.621  50.659  1.00  0.00    -0.360 N 
HETATM    6  C18 UNL     1      26.745   2.180  51.370  1.00  0.00     0.273 C 
HETATM    7  N3  UNL     1      26.593   2.110  52.775  1.00  0.00    -0.285 NA
HETATM    8  C19 UNL     1      25.784   1.445  53.517  1.00  0.00     0.098 C 
HETATM    9  C20 UNL     1      24.809   0.575  52.807  1.00  0.00     0.084 A 
HETATM   10  C21 UNL     1      24.128  -0.279  53.781  1.00  0.00     0.004 A 
HETATM   11  C22 UNL     1      22.826  -0.247  53.905  1.00  0.00     0.011 A 
ENDROOT
BRANCH   5  12
HETATM   12  C6  UNL     1      25.621   3.410  49.446  1.00  0.00     0.134 A 
HETATM   13  C7  UNL     1      24.602   4.512  49.467  1.00  0.00     0.005 A 
HETATM   14  C8  UNL     1      25.185   5.696  49.352  1.00  0.00     0.027 A 
HETATM   15  C9  UNL     1      26.633   5.482  49.245  1.00  0.00     0.026 A 
HETATM   16  C17 UNL     1      26.872   4.181  49.299  1.00  0.00     0.031 A 
BRANCH  15  17
HETATM   17  N2  UNL     1      27.408   6.668  49.113  1.00  0.00    -0.386 N 
HETATM   18  H9  UNL     1      27.326   7.454  49.817  1.00  0.00     0.160 HD
BRANCH  17  19
HETATM   19  C10 UNL     1      28.263   6.615  47.939  1.00  0.00     0.161 C 
BRANCH  19  20
HETATM   20  C11 UNL     1      29.689   6.429  48.250  1.00  0.00    -0.007 A 
HETATM   21  C12 UNL     1      30.374   5.307  47.778  1.00  0.00     0.011 A 
HETATM   22  C13 UNL     1      31.697   5.043  48.011  1.00  0.00     0.001 A 
HETATM   23  C14 UNL     1      32.432   5.946  48.773  1.00  0.00     0.003 A 
HETATM   24  C15 UNL     1      31.785   7.080  49.265  1.00  0.00     0.037 A 
HETATM   25  C16 UNL     1      30.452   7.301  49.002  1.00  0.00     0.073 A 
BRANCH  25  26
HETATM   26  O2  UNL     1      29.840   8.439  49.506  1.00  0.00    -0.360 OA
HETATM   27  H16 UNL     1      28.829   8.382  49.590  1.00  0.00     0.217 HD
ENDBRANCH  25  26
ENDBRANCH  19  20
ENDBRANCH  17  19
ENDBRANCH  15  17
ENDBRANCH   5  12
BRANCH   1  28
HETATM   28  O1  UNL     1      20.537   0.528  53.364  1.00  0.00    -0.355 OA
HETATM   29  C1  UNL     1      19.660   0.350  52.285  1.00  0.00     0.210 C 
ENDBRANCH   1  28
BRANCH  11  30
HETATM   30  C23 UNL     1      22.242  -1.123  54.886  1.00  0.00     0.121 C 
HETATM   31  N4  UNL     1      21.125  -1.768  54.886  1.00  0.00    -0.311 NA
HETATM   32  H24 UNL     1      20.437  -1.736  54.104  1.00  0.00     0.186 HD
ENDBRANCH  11  30
TORSDOF 7
ENDMDL
MODEL 2
REMARK VINA RESULT:      -8.9      2.487      3.469
REMARK  7 active torsions:
REMARK  status: ('A' for Active; 'I' for Inactive)
REMARK    1  A    between atoms: O1_2  and  C2_3 
REMARK    2  A    between atoms: N1_7  and  C6_8 
REMARK    3  A    between atoms: C9_11  and  N2_12 
REMARK    4  A    between atoms: N2_12  and  C10_13 
REMARK    5  A    between atoms: C10_13  and  C11_14 
REMARK    6  A    between atoms: C16_19  and  O2_20 
REMARK    7  A    between atoms: C22_27  and  C23_28 
ROOT
HETATM    1  C2  UNL     1      24.528  -0.183  53.706  1.00  0.00     0.080 A 
HETATM    2  C3  UNL     1      24.875   0.686  52.761  1.00  0.00     0.047 A 
HETATM    3  C4  UNL     1      23.822   1.287  51.987  1.00  0.00    -0.027 A 
HETATM    4  C5  UNL     1      24.235   2.134  51.041  1.00  0.00     0.096 C 
HETATM    5  N1  UNL     1      23.562   2.922  50.079  1.00  0.00    -0.360 N 
HETATM    6  C18 UNL     1      22.157   2.697  49.802  1.00  0.00     0.273 C 
HETATM    7  N3  UNL     1      21.747   1.348  49.912  1.00  0.00    -0.285 NA
HETATM    8  C19 UNL     1      21.785   0.518  50.891  1.00  0.00     0.098 C 
HETATM    9  C20 UNL     1      22.359   1.032  52.163  1.00  0.00     0.084 A 
HETATM   10  C21 UNL     1      22.118   0.058  53.227  1.00  0.00     0.004 A 
HETATM   11  C22 UNL     1      23.115  -0.464  53.896  1.00  0.00     0.011 A 
ENDROOT
BRANCH   5  12
HETATM   12  C6  UNL     1      24.341   3.941  49.406  1.00  0.00     0.134 A 
HETATM   13  C7  UNL     1      23.452   5.005  48.827  1.00  0.00     0.005 A 
HETATM   14  C8  UNL     1      23.753   6.194  49.327  1.00  0.00     0.027 A 
HETATM   15  C9  UNL     1      24.860   6.022  50.275  1.00  0.00     0.026 A 
HETATM   16  C17 UNL     1      25.188   4.740  50.313  1.00  0.00     0.031 A 
BRANCH  15  17
HETATM   17  N2  UNL     1      25.303   7.219  50.903  1.00  0.00    -0.386 N 
HETATM   18  H9  UNL     1      25.555   7.235  51.930  1.00  0.00     0.160 HD
BRANCH  17  19
HETATM   19  C10 UNL     1      25.347   8.326  49.962  1.00  0.00     0.161 C 
BRANCH  19  20
HETATM   20  C11 UNL     1      26.653   8.499  49.308  1.00  0.00    -0.007 A 
HETATM   21  C12 UNL     1      26.847   8.070  47.993  1.00  0.00     0.011 A 
HETATM   22  C13 UNL     1      28.020   8.185  47.297  1.00  0.00     0.001 A 
HETATM   23  C14 UNL     1      29.114   8.769  47.928  1.00  0.00     0.003 A 
HETATM   24  C15 UNL     1      28.964   9.211  49.242  1.00  0.00     0.037 A 
HETATM   25  C16 UNL     1      27.762   9.073  49.900  1.00  0.00     0.073 A 
BRANCH  25  26
HETATM   26  O2  UNL     1      27.647   9.524  51.206  1.00  0.00    -0.360 OA
HETATM   27  H16 UNL     1      26.733   9.386  51.630  1.00  0.00     0.217 HD
ENDBRANCH  25  26
ENDBRANCH  19  20
ENDBRANCH  17  19
ENDBRANCH  15  17
ENDBRANCH   5  12
BRANCH   1  28
HETATM   28  O1  UNL     1      25.499  -0.795  54.478  1.00  0.00    -0.355 OA
HETATM   29  C1  UNL     1      26.577  -0.049  54.976  1.00  0.00     0.210 C 
ENDBRANCH   1  28
BRANCH  11  30
HETATM   30  C23 UNL     1      22.785  -1.412  54.926  1.00  0.00     0.121 C 
HETATM   31  N4  UNL     1      23.362  -1.676  56.050  1.00  0.00    -0.311 NA
HETATM   32  H24 UNL     1      24.222  -1.193  56.388  1.00  0.00     0.186 HD
ENDBRANCH  11  30
TORSDOF 7
ENDMDL
MODEL 3
REMARK VINA RESULT:      -8.7      3.399      5.208
REMARK  7 active torsions:
REMARK  status: ('A' for Active; 'I' for Inactive)
REMARK    1  A    between atoms: O1_2  and  C2_3 
REMARK    2  A    between atoms: N1_7  and  C6_8 
REMARK    3  A    between atoms: C9_11  and  N2_12 
REMARK    4  A    between atoms: N2_12  and  C10_13 
REMARK    5  A    between atoms: C10_13  and  C11_14 
REMARK    6  A    between atoms: C16_19  and  O2_20 
REMARK    7  A    between atoms: C22_27  and  C23_28 
ROOT
HETATM    1  C2  UNL     1      20.325   0.791  52.600  1.00  0.00     0.080 A 
HETATM    2  C3  UNL     1      21.614   1.098  52.717  1.00  0.00     0.047 A 
HETATM    3  C4  UNL     1      22.472   0.141  53.362  1.00  0.00    -0.027 A 
HETATM    4  C5  UNL     1      23.750   0.516  53.468  1.00  0.00     0.096 C 
HETATM    5  N1  UNL     1      24.901  -0.095  54.015  1.00  0.00    -0.360 N 
HETATM    6  C18 UNL     1      24.776  -1.267  54.861  1.00  0.00     0.273 C 
HETATM    7  N3  UNL     1      23.608  -1.291  55.658  1.00  0.00    -0.285 NA
HETATM    8  C19 UNL     1      22.361  -1.261  55.353  1.00  0.00     0.098 C 
HETATM    9  C20 UNL     1      22.045  -1.186  53.902  1.00  0.00     0.084 A 
HETATM   10  C21 UNL     1      20.609  -1.394  53.712  1.00  0.00     0.004 A 
HETATM   11  C22 UNL     1      19.872  -0.486  53.124  1.00  0.00     0.011 A 
ENDROOT
BRANCH   5  12
HETATM   12  C6  UNL     1      26.179   0.503  53.688  1.00  0.00     0.134 A 
HETATM   13  C7  UNL     1      26.728  -0.064  52.410  1.00  0.00     0.005 A 
HETATM   14  C8  UNL     1      26.919   0.894  51.514  1.00  0.00     0.027 A 
HETATM   15  C9  UNL     1      26.515   2.169  52.117  1.00  0.00     0.026 A 
HETATM   16  C17 UNL     1      26.097   1.938  53.352  1.00  0.00     0.031 A 
BRANCH  15  17
HETATM   17  N2  UNL     1      26.661   3.305  51.274  1.00  0.00    -0.386 N 
HETATM   18  H9  UNL     1      27.152   4.178  51.615  1.00  0.00     0.160 HD
BRANCH  17  19
HETATM   19  C10 UNL     1      26.067   3.075  49.968  1.00  0.00     0.161 C 
BRANCH  19  20
HETATM   20  C11 UNL     1      24.776   3.753  49.773  1.00  0.00    -0.007 A 
HETATM   21  C12 UNL     1      23.664   3.038  49.326  1.00  0.00     0.011 A 
HETATM   22  C13 UNL     1      22.422   3.574  49.114  1.00  0.00     0.001 A 
HETATM   23  C14 UNL     1      22.233   4.932  49.354  1.00  0.00     0.003 A 
HETATM   24  C15 UNL     1      23.320   5.684  49.800  1.00  0.00     0.037 A 
HETATM   25  C16 UNL     1      24.550   5.097  49.999  1.00  0.00     0.073 A 
BRANCH  25  26
HETATM   26  O2  UNL     1      25.608   5.874  50.444  1.00  0.00    -0.360 OA
HETATM   27  H16 UNL     1      26.207   5.430  51.135  1.00  0.00     0.217 HD
ENDBRANCH  25  26
ENDBRANCH  19  20
ENDBRANCH  17  19
ENDBRANCH  15  17
ENDBRANCH   5  12
BRANCH   1  28
HETATM   28  O1  UNL     1      19.452   1.675  51.991  1.00  0.00    -0.355 OA
HETATM   29  C1  UNL     1      19.773   3.037  51.906  1.00  0.00     0.210 C 
ENDBRANCH   1  28
BRANCH  11  30
HETATM   30  C23 UNL     1      18.471  -0.776  52.978  1.00  0.00     0.121 C 
HETATM   31  N4  UNL     1      17.596  -1.179  53.836  1.00  0.00    -0.311 NA
HETATM   32  H24 UNL     1      17.810  -1.364  54.839  1.00  0.00     0.186 HD
ENDBRANCH  11  30
TORSDOF 7
ENDMDL
MODEL 4
REMARK VINA RESULT:      -8.4      2.476      3.567
REMARK  7 active torsions:
REMARK  status: ('A' for Active; 'I' for Inactive)
REMARK    1  A    between atoms: O1_2  and  C2_3 
REMARK    2  A    between atoms: N1_7  and  C6_8 
REMARK    3  A    between atoms: C9_11  and  N2_12 
REMARK    4  A    between atoms: N2_12  and  C10_13 
REMARK    5  A    between atoms: C10_13  and  C11_14 
REMARK    6  A    between atoms: C16_19  and  O2_20 
REMARK    7  A    between atoms: C22_27  and  C23_28 
ROOT
HETATM    1  C2  UNL     1      26.333   1.323  52.928  1.00  0.00     0.080 A 
HETATM    2  C3  UNL     1      26.118   2.363  52.129  1.00  0.00     0.047 A 
HETATM    3  C4  UNL     1      24.757   2.660  51.772  1.00  0.00    -0.027 A 
HETATM    4  C5  UNL     1      24.607   3.703  50.951  1.00  0.00     0.096 C 
HETATM    5  N1  UNL     1      23.482   4.326  50.363  1.00  0.00    -0.360 N 
HETATM    6  C18 UNL     1      22.187   3.674  50.391  1.00  0.00     0.273 C 
HETATM    7  N3  UNL     1      22.240   2.262  50.315  1.00  0.00    -0.285 NA
HETATM    8  C19 UNL     1      22.804   1.384  51.063  1.00  0.00     0.098 C 
HETATM    9  C20 UNL     1      23.551   1.908  52.237  1.00  0.00     0.084 A 
HETATM   10  C21 UNL     1      23.929   0.791  53.103  1.00  0.00     0.004 A 
HETATM   11  C22 UNL     1      25.185   0.561  53.390  1.00  0.00     0.011 A 
ENDROOT
BRANCH   5  12
HETATM   12  C6  UNL     1      23.695   5.620  49.749  1.00  0.00     0.134 A 
HETATM   13  C7  UNL     1      23.787   6.702  50.787  1.00  0.00     0.005 A 
HETATM   14  C8  UNL     1      24.951   7.331  50.710  1.00  0.00     0.027 A 
HETATM   15  C9  UNL     1      25.726   6.724  49.621  1.00  0.00     0.026 A 
HETATM   16  C17 UNL     1      25.005   5.754  49.080  1.00  0.00     0.031 A 
BRANCH  15  17
HETATM   17  N2  UNL     1      27.011   7.294  49.409  1.00  0.00    -0.386 N 
HETATM   18  H9  UNL     1      27.596   7.637  50.221  1.00  0.00     0.160 HD
BRANCH  17  19
HETATM   19  C10 UNL     1      27.353   7.320  47.997  1.00  0.00     0.161 C 
BRANCH  19  20
HETATM   20  C11 UNL     1      28.737   6.912  47.712  1.00  0.00    -0.007 A 
HETATM   21  C12 UNL     1      29.526   7.655  46.832  1.00  0.00     0.011 A 
HETATM   22  C13 UNL     1      30.821   7.359  46.501  1.00  0.00     0.001 A 
HETATM   23  C14 UNL     1      31.415   6.238  47.073  1.00  0.00     0.003 A 
HETATM   24  C15 UNL     1      30.662   5.467  47.958  1.00  0.00     0.037 A 
HETATM   25  C16 UNL     1      29.362   5.806  48.259  1.00  0.00     0.073 A 
BRANCH  25  26
HETATM   26  O2  UNL     1      28.641   5.018  49.143  1.00  0.00    -0.360 OA
HETATM   27  H16 UNL     1      27.910   5.504  49.655  1.00  0.00     0.217 HD
ENDBRANCH  25  26
ENDBRANCH  19  20
ENDBRANCH  17  19
ENDBRANCH  15  17
ENDBRANCH   5  12
BRANCH   1  28
HETATM   28  O1  UNL     1      27.623   0.988  53.302  1.00  0.00    -0.355 OA
HETATM   29  C1  UNL     1      28.578   1.992  53.517  1.00  0.00     0.210 C 
ENDBRANCH   1  28
BRANCH  11  30
HETATM   30  C23 UNL     1      25.464  -0.557  54.250  1.00  0.00     0.121 C 
HETATM   31  N4  UNL     1      26.106  -0.626  55.368  1.00  0.00    -0.311 NA
HETATM   32  H24 UNL     1      26.546   0.195  55.835  1.00  0.00     0.186 HD
ENDBRANCH  11  30
TORSDOF 7
ENDMDL
MODEL 5
REMARK VINA RESULT:      -8.4      3.117      8.331
REMARK  7 active torsions:
REMARK  status: ('A' for Active; 'I' for Inactive)
REMARK    1  A    between atoms: O1_2  and  C2_3 
REMARK    2  A    between atoms: N1_7  and  C6_8 
REMARK    3  A    between atoms: C9_11  and  N2_12 
REMARK    4  A    between atoms: N2_12  and  C10_13 
REMARK    5  A    between atoms: C10_13  and  C11_14 
REMARK    6  A    between atoms: C16_19  and  O2_20 
REMARK    7  A    between atoms: C22_27  and  C23_28 
ROOT
HETATM    1  C2  UNL     1      27.842   6.276  48.129  1.00  0.00     0.080 A 
HETATM    2  C3  UNL     1      27.159   5.466  48.934  1.00  0.00     0.047 A 
HETATM    3  C4  UNL     1      25.843   5.880  49.338  1.00  0.00    -0.027 A 
HETATM    4  C5  UNL     1      25.217   5.035  50.162  1.00  0.00     0.096 C 
HETATM    5  N1  UNL     1      23.950   5.045  50.788  1.00  0.00    -0.360 N 
HETATM    6  C18 UNL     1      23.153   6.257  50.808  1.00  0.00     0.273 C 
HETATM    7  N3  UNL     1      23.906   7.452  50.885  1.00  0.00    -0.285 NA
HETATM    8  C19 UNL     1      24.811   7.946  50.120  1.00  0.00     0.098 C 
HETATM    9  C20 UNL     1      25.161   7.143  48.918  1.00  0.00     0.084 A 
HETATM   10  C21 UNL     1      26.020   7.939  48.042  1.00  0.00     0.004 A 
HETATM   11  C22 UNL     1      27.214   7.517  47.711  1.00  0.00     0.011 A 
ENDROOT
BRANCH   5  12
HETATM   12  C6  UNL     1      23.507   3.806  51.392  1.00  0.00     0.134 A 
HETATM   13  C7  UNL     1      24.044   2.619  50.644  1.00  0.00     0.005 A 
HETATM   14  C8  UNL     1      24.773   1.852  51.440  1.00  0.00     0.027 A 
HETATM   15  C9  UNL     1      24.782   2.459  52.776  1.00  0.00     0.026 A 
HETATM   16  C17 UNL     1      24.060   3.568  52.740  1.00  0.00     0.031 A 
BRANCH  15  17
HETATM   17  N2  UNL     1      25.529   1.747  53.755  1.00  0.00    -0.386 N 
HETATM   18  H9  UNL     1      25.048   1.116  54.455  1.00  0.00     0.160 HD
BRANCH  17  19
HETATM   19  C10 UNL     1      26.952   2.015  53.634  1.00  0.00     0.161 C 
BRANCH  19  20
HETATM   20  C11 UNL     1      27.779   0.803  53.529  1.00  0.00    -0.007 A 
HETATM   21  C12 UNL     1      27.216  -0.402  53.103  1.00  0.00     0.011 A 
HETATM   22  C13 UNL     1      27.898  -1.581  52.973  1.00  0.00     0.001 A 
HETATM   23  C14 UNL     1      29.254  -1.605  53.283  1.00  0.00     0.003 A 
HETATM   24  C15 UNL     1      29.857  -0.422  53.714  1.00  0.00     0.037 A 
HETATM   25  C16 UNL     1      29.127   0.740  53.828  1.00  0.00     0.073 A 
BRANCH  25  26
HETATM   26  O2  UNL     1      29.757   1.898  54.258  1.00  0.00    -0.360 OA
HETATM   27  H16 UNL     1      30.330   2.361  53.558  1.00  0.00     0.217 HD
ENDBRANCH  25  26
ENDBRANCH  19  20
ENDBRANCH  17  19
ENDBRANCH  15  17
ENDBRANCH   5  12
BRANCH   1  28
HETATM   28  O1  UNL     1      29.114   5.929  47.711  1.00  0.00    -0.355 OA
HETATM   29  C1  UNL     1      30.195   6.004  48.601  1.00  0.00     0.210 C 
ENDBRANCH   1  28
BRANCH  11  30
HETATM   30  C23 UNL     1      27.989   8.364  46.843  1.00  0.00     0.121 C 
HETATM   31  N4  UNL     1      28.618   8.103  45.748  1.00  0.00    -0.311 NA
HETATM   32  H24 UNL     1      28.652   7.159  45.309  1.00  0.00     0.186 HD
ENDBRANCH  11  30
TORSDOF 7
ENDMDL
MODEL 6
REMARK VINA RESULT:      -8.3      3.681      5.484
REMARK  7 active torsions:
REMARK  status: ('A' for Active; 'I' for Inactive)
REMARK    1  A    between atoms: O1_2  and  C2_3 
REMARK    2  A    between atoms: N1_7  and  C6_8 
REMARK    3  A    between atoms: C9_11  and  N2_12 
REMARK    4  A    between atoms: N2_12  and  C10_13 
REMARK    5  A    between atoms: C10_13  and  C11_14 
REMARK    6  A    between atoms: C16_19  and  O2_20 
REMARK    7  A    between atoms: C22_27  and  C23_28 
ROOT
HETATM    1  C2  UNL     1      21.142  -0.487  53.085  1.00  0.00     0.080 A 
HETATM    2  C3  UNL     1      21.813   0.464  52.441  1.00  0.00     0.047 A 
HETATM    3  C4  UNL     1      21.060   1.376  51.623  1.00  0.00    -0.027 A 
HETATM    4  C5  UNL     1      21.792   2.294  50.986  1.00  0.00     0.096 C 
HETATM    5  N1  UNL     1      21.475   3.353  50.104  1.00  0.00    -0.360 N 
HETATM    6  C18 UNL     1      20.154   3.438  49.510  1.00  0.00     0.273 C 
HETATM    7  N3  UNL     1      19.551   2.188  49.240  1.00  0.00    -0.285 NA
HETATM    8  C19 UNL     1      19.248   1.200  50.002  1.00  0.00     0.098 C 
HETATM    9  C20 UNL     1      19.576   1.361  51.443  1.00  0.00     0.084 A 
HETATM   10  C21 UNL     1      18.965   0.268  52.200  1.00  0.00     0.004 A 
HETATM   11  C22 UNL     1      19.699  -0.538  52.924  1.00  0.00     0.011 A 
ENDROOT
BRANCH   5  12
HETATM   12  C6  UNL     1      22.519   4.320  49.839  1.00  0.00     0.134 A 
HETATM   13  C7  UNL     1      22.785   5.171  51.047  1.00  0.00     0.005 A 
HETATM   14  C8  UNL     1      24.048   5.061  51.432  1.00  0.00     0.027 A 
HETATM   15  C9  UNL     1      24.723   4.132  50.518  1.00  0.00     0.026 A 
HETATM   16  C17 UNL     1      23.848   3.717  49.616  1.00  0.00     0.031 A 
BRANCH  15  17
HETATM   17  N2  UNL     1      26.099   3.906  50.800  1.00  0.00    -0.386 N 
HETATM   18  H9  UNL     1      26.732   4.699  51.100  1.00  0.00     0.160 HD
BRANCH  17  19
HETATM   19  C10 UNL     1      26.454   2.508  50.620  1.00  0.00     0.161 C 
BRANCH  19  20
HETATM   20  C11 UNL     1      26.470   1.732  51.870  1.00  0.00    -0.007 A 
HETATM   21  C12 UNL     1      25.509   0.747  52.102  1.00  0.00     0.011 A 
HETATM   22  C13 UNL     1      25.439  -0.027  53.230  1.00  0.00     0.001 A 
HETATM   23  C14 UNL     1      26.385   0.168  54.231  1.00  0.00     0.003 A 
HETATM   24  C15 UNL     1      27.363   1.143  54.039  1.00  0.00     0.037 A 
HETATM   25  C16 UNL     1      27.392   1.896  52.887  1.00  0.00     0.073 A 
BRANCH  25  26
HETATM   26  O2  UNL     1      28.378   2.857  52.728  1.00  0.00    -0.360 OA
HETATM   27  H16 UNL     1      29.331   2.509  52.787  1.00  0.00     0.217 HD
ENDBRANCH  25  26
ENDBRANCH  19  20
ENDBRANCH  17  19
ENDBRANCH  15  17
ENDBRANCH   5  12
BRANCH   1  28
HETATM   28  O1  UNL     1      21.815  -1.394  53.884  1.00  0.00    -0.355 OA
HETATM   29  C1  UNL     1      22.393  -0.978  55.091  1.00  0.00     0.210 C 
ENDBRANCH   1  28
BRANCH  11  30
HETATM   30  C23 UNL     1      19.013  -1.583  53.636  1.00  0.00     0.121 C 
HETATM   31  N4  UNL     1      17.756  -1.779  53.849  1.00  0.00    -0.311 NA
HETATM   32  H24 UNL     1      17.004  -1.146  53.501  1.00  0.00     0.186 HD
ENDBRANCH  11  30
TORSDOF 7
ENDMDL
MODEL 7
REMARK VINA RESULT:      -8.3      4.002      7.686
REMARK  7 active torsions:
REMARK  status: ('A' for Active; 'I' for Inactive)
REMARK    1  A    between atoms: O1_2  and  C2_3 
REMARK    2  A    between atoms: N1_7  and  C6_8 
REMARK    3  A    between atoms: C9_11  and  N2_12 
REMARK    4  A    between atoms: N2_12  and  C10_13 
REMARK    5  A    between atoms: C10_13  and  C11_14 
REMARK    6  A    between atoms: C16_19  and  O2_20 
REMARK    7  A    between atoms: C22_27  and  C23_28 
ROOT
HETATM    1  C2  UNL     1      26.148   0.567  54.056  1.00  0.00     0.080 A 
HETATM    2  C3  UNL     1      25.223   1.495  53.828  1.00  0.00     0.047 A 
HETATM    3  C4  UNL     1      25.157   2.063  52.509  1.00  0.00    -0.027 A 
HETATM    4  C5  UNL     1      24.222   3.004  52.349  1.00  0.00     0.096 C 
HETATM    5  N1  UNL     1      23.822   3.803  51.253  1.00  0.00    -0.360 N 
HETATM    6  C18 UNL     1      24.650   3.882  50.065  1.00  0.00     0.273 C 
HETATM    7  N3  UNL     1      26.040   3.799  50.312  1.00  0.00    -0.285 NA
HETATM    8  C19 UNL     1      26.759   2.892  50.868  1.00  0.00     0.098 C 
HETATM    9  C20 UNL     1      26.033   1.689  51.355  1.00  0.00     0.084 A 
HETATM   10  C21 UNL     1      27.004   0.666  51.743  1.00  0.00     0.004 A 
HETATM   11  C22 UNL     1      27.024   0.188  52.960  1.00  0.00     0.011 A 
ENDROOT
BRANCH   5  12
HETATM   12  C6  UNL     1      22.569   4.517  51.385  1.00  0.00     0.134 A 
HETATM   13  C7  UNL     1      21.769   4.443  50.116  1.00  0.00     0.005 A 
HETATM   14  C8  UNL     1      20.588   3.883  50.336  1.00  0.00     0.027 A 
HETATM   15  C9  UNL     1      20.504   3.541  51.760  1.00  0.00     0.026 A 
HETATM   16  C17 UNL     1      21.633   3.904  52.349  1.00  0.00     0.031 A 
BRANCH  15  17
HETATM   17  N2  UNL     1      19.285   2.927  52.159  1.00  0.00    -0.386 N 
HETATM   18  H9  UNL     1      18.523   3.485  52.636  1.00  0.00     0.160 HD
BRANCH  17  19
HETATM   19  C10 UNL     1      19.269   1.513  51.823  1.00  0.00     0.161 C 
BRANCH  19  20
HETATM   20  C11 UNL     1      20.327   0.732  52.482  1.00  0.00    -0.007 A 
HETATM   21  C12 UNL     1      20.272   0.488  53.856  1.00  0.00     0.011 A 
HETATM   22  C13 UNL     1      21.204  -0.225  54.562  1.00  0.00     0.001 A 
HETATM   23  C14 UNL     1      22.296  -0.752  53.879  1.00  0.00     0.003 A 
HETATM   24  C15 UNL     1      22.390  -0.530  52.505  1.00  0.00     0.037 A 
HETATM   25  C16 UNL     1      21.426   0.193  51.840  1.00  0.00     0.073 A 
BRANCH  25  26
HETATM   26  O2  UNL     1      21.549   0.395  50.474  1.00  0.00    -0.360 OA
HETATM   27  H16 UNL     1      22.505   0.419  50.128  1.00  0.00     0.217 HD
ENDBRANCH  25  26
ENDBRANCH  19  20
ENDBRANCH  17  19
ENDBRANCH  15  17
ENDBRANCH   5  12
BRANCH   1  28
HETATM   28  O1  UNL     1      26.258  -0.012  55.307  1.00  0.00    -0.355 OA
HETATM   29  C1  UNL     1      25.292  -0.926  55.750  1.00  0.00     0.210 C 
ENDBRANCH   1  28
BRANCH  11  30
HETATM   30  C23 UNL     1      28.011  -0.817  53.251  1.00  0.00     0.121 C 
HETATM   31  N4  UNL     1      28.906  -0.882  54.178  1.00  0.00    -0.311 NA
HETATM   32  H24 UNL     1      29.044  -0.146  54.903  1.00  0.00     0.186 HD
ENDBRANCH  11  30
TORSDOF 7
ENDMDL
MODEL 8
REMARK VINA RESULT:      -8.1      2.019     10.019
REMARK  7 active torsions:
REMARK  status: ('A' for Active; 'I' for Inactive)
REMARK    1  A    between atoms: O1_2  and  C2_3 
REMARK    2  A    between atoms: N1_7  and  C6_8 
REMARK    3  A    between atoms: C9_11  and  N2_12 
REMARK    4  A    between atoms: N2_12  and  C10_13 
REMARK    5  A    between atoms: C10_13  and  C11_14 
REMARK    6  A    between atoms: C16_19  and  O2_20 
REMARK    7  A    between atoms: C22_27  and  C23_28 
ROOT
HETATM    1  C2  UNL     1      30.096   6.626  47.505  1.00  0.00     0.080 A 
HETATM    2  C3  UNL     1      29.329   5.688  48.052  1.00  0.00     0.047 A 
HETATM    3  C4  UNL     1      27.962   6.027  48.342  1.00  0.00    -0.027 A 
HETATM    4  C5  UNL     1      27.249   5.050  48.909  1.00  0.00     0.096 C 
HETATM    5  N1  UNL     1      25.909   4.952  49.349  1.00  0.00    -0.360 N 
HETATM    6  C18 UNL     1      25.092   6.144  49.477  1.00  0.00     0.273 C 
HETATM    7  N3  UNL     1      25.803   7.302  49.868  1.00  0.00    -0.285 NA
HETATM    8  C19 UNL     1      26.792   7.923  49.333  1.00  0.00     0.098 C 
HETATM    9  C20 UNL     1      27.316   7.347  48.066  1.00  0.00     0.084 A 
HETATM   10  C21 UNL     1      28.268   8.285  47.470  1.00  0.00     0.004 A 
HETATM   11  C22 UNL     1      29.504   7.925  47.234  1.00  0.00     0.011 A 
ENDROOT
BRANCH   5  12
HETATM   12  C6  UNL     1      25.415   3.626  49.656  1.00  0.00     0.134 A 
HETATM   13  C7  UNL     1      26.549   2.663  49.863  1.00  0.00     0.005 A 
HETATM   14  C8  UNL     1      26.496   2.125  51.073  1.00  0.00     0.027 A 
HETATM   15  C9  UNL     1      25.329   2.683  51.768  1.00  0.00     0.026 A 
HETATM   16  C17 UNL     1      24.721   3.534  50.956  1.00  0.00     0.031 A 
BRANCH  15  17
HETATM   17  N2  UNL     1      25.132   2.201  53.091  1.00  0.00    -0.386 N 
HETATM   18  H9  UNL     1      24.937   2.866  53.891  1.00  0.00     0.160 HD
BRANCH  17  19
HETATM   19  C10 UNL     1      25.236   0.753  53.149  1.00  0.00     0.161 C 
BRANCH  19  20
HETATM   20  C11 UNL     1      24.042   0.091  53.697  1.00  0.00    -0.007 A 
HETATM   21  C12 UNL     1      22.777   0.371  53.175  1.00  0.00     0.011 A 
HETATM   22  C13 UNL     1      21.608  -0.189  53.614  1.00  0.00     0.001 A 
HETATM   23  C14 UNL     1      21.660  -1.107  54.659  1.00  0.00     0.003 A 
HETATM   24  C15 UNL     1      22.904  -1.414  55.210  1.00  0.00     0.037 A 
HETATM   25  C16 UNL     1      24.053  -0.824  54.733  1.00  0.00     0.073 A 
BRANCH  25  26
HETATM   26  O2  UNL     1      25.273  -1.152  55.303  1.00  0.00    -0.360 OA
HETATM   27  H16 UNL     1      25.306  -1.084  56.317  1.00  0.00     0.217 HD
ENDBRANCH  25  26
ENDBRANCH  19  20
ENDBRANCH  17  19
ENDBRANCH  15  17
ENDBRANCH   5  12
BRANCH   1  28
HETATM   28  O1  UNL     1      31.420   6.356  47.207  1.00  0.00    -0.355 OA
HETATM   29  C1  UNL     1      32.278   5.857  48.197  1.00  0.00     0.210 C 
ENDBRANCH   1  28
BRANCH  11  30
HETATM   30  C23 UNL     1      30.370   8.911  46.644  1.00  0.00     0.121 C 
HETATM   31  N4  UNL     1      31.369   9.562  47.136  1.00  0.00    -0.311 NA
HETATM   32  H24 UNL     1      31.710   9.450  48.114  1.00  0.00     0.186 HD
ENDBRANCH  11  30
TORSDOF 7
ENDMDL
MODEL 9
REMARK VINA RESULT:      -8.1      3.536      6.610
REMARK  7 active torsions:
REMARK  status: ('A' for Active; 'I' for Inactive)
REMARK    1  A    between atoms: O1_2  and  C2_3 
REMARK    2  A    between atoms: N1_7  and  C6_8 
REMARK    3  A    between atoms: C9_11  and  N2_12 
REMARK    4  A    between atoms: N2_12  and  C10_13 
REMARK    5  A    between atoms: C10_13  and  C11_14 
REMARK    6  A    between atoms: C16_19  and  O2_20 
REMARK    7  A    between atoms: C22_27  and  C23_28 
ROOT
HETATM    1  C2  UNL     1      26.232   2.348  51.556  1.00  0.00     0.080 A 
HETATM    2  C3  UNL     1      24.972   2.186  51.160  1.00  0.00     0.047 A 
HETATM    3  C4  UNL     1      24.091   1.447  52.024  1.00  0.00    -0.027 A 
HETATM    4  C5  UNL     1      22.846   1.300  51.562  1.00  0.00     0.096 C 
HETATM    5  N1  UNL     1      21.689   0.664  52.068  1.00  0.00    -0.360 N 
HETATM    6  C18 UNL     1      21.786  -0.240  53.198  1.00  0.00     0.273 C 
HETATM    7  N3  UNL     1      22.990  -0.980  53.255  1.00  0.00    -0.285 NA
HETATM    8  C19 UNL     1      24.219  -0.613  53.322  1.00  0.00     0.098 C 
HETATM    9  C20 UNL     1      24.463   0.854  53.345  1.00  0.00     0.084 A 
HETATM   10  C21 UNL     1      25.872   1.101  53.655  1.00  0.00     0.004 A 
HETATM   11  C22 UNL     1      26.631   1.774  52.830  1.00  0.00     0.011 A 
ENDROOT
BRANCH   5  12
HETATM   12  C6  UNL     1      20.436   0.962  51.407  1.00  0.00     0.134 A 
HETATM   13  C7  UNL     1      19.583   1.867  52.250  1.00  0.00     0.005 A 
HETATM   14  C8  UNL     1      19.306   2.990  51.603  1.00  0.00     0.027 A 
HETATM   15  C9  UNL     1      19.947   2.926  50.285  1.00  0.00     0.026 A 
HETATM   16  C17 UNL     1      20.586   1.771  50.181  1.00  0.00     0.031 A 
BRANCH  15  17
HETATM   17  N2  UNL     1      19.742   4.068  49.462  1.00  0.00    -0.386 N 
HETATM   18  H9  UNL     1      19.353   3.972  48.482  1.00  0.00     0.160 HD
BRANCH  17  19
HETATM   19  C10 UNL     1      20.126   5.291  50.146  1.00  0.00     0.161 C 
BRANCH  19  20
HETATM   20  C11 UNL     1      21.581   5.466  50.280  1.00  0.00    -0.007 A 
HETATM   21  C12 UNL     1      22.182   5.441  51.540  1.00  0.00     0.011 A 
HETATM   22  C13 UNL     1      23.523   5.593  51.771  1.00  0.00     0.001 A 
HETATM   23  C14 UNL     1      24.367   5.791  50.683  1.00  0.00     0.003 A 
HETATM   24  C15 UNL     1      23.807   5.823  49.405  1.00  0.00     0.037 A 
HETATM   25  C16 UNL     1      22.451   5.664  49.226  1.00  0.00     0.073 A 
BRANCH  25  26
HETATM   26  O2  UNL     1      21.928   5.701  47.942  1.00  0.00    -0.360 OA
HETATM   27  H16 UNL     1      22.200   6.510  47.390  1.00  0.00     0.217 HD
ENDBRANCH  25  26
ENDBRANCH  19  20
ENDBRANCH  17  19
ENDBRANCH  15  17
ENDBRANCH   5  12
BRANCH   1  28
HETATM   28  O1  UNL     1      27.124   3.048  50.763  1.00  0.00    -0.355 OA
HETATM   29  C1  UNL     1      26.745   3.480  49.485  1.00  0.00     0.210 C 
ENDBRANCH   1  28
BRANCH  11  30
HETATM   30  C23 UNL     1      28.002   1.972  53.217  1.00  0.00     0.121 C 
HETATM   31  N4  UNL     1      28.799   2.969  53.032  1.00  0.00    -0.311 NA
HETATM   32  H24 UNL     1      28.528   3.842  52.531  1.00  0.00     0.186 HD
ENDBRANCH  11  30
TORSDOF 7
ENDMDL
