MODEL 1
REMARK VINA RESULT:      -8.9      0.000      0.000
REMARK  3 active torsions:
REMARK  status: ('A' for Active; 'I' for Inactive)
REMARK    1  A    between atoms: N1_3  and  C2_4 
REMARK    2  A    between atoms: C5_10  and  C6_11 
REMARK    3  A    between atoms: C6_11  and  C7_12 
ROOT
HETATM    1  C2  UNL     1      18.704  -0.125  51.830  1.00  0.00     0.131 C 
HETATM    2  N2  UNL     1      18.906  -0.555  53.063  1.00  0.00    -0.227 NA
HETATM    3  C3  UNL     1      20.205  -0.461  53.622  1.00  0.00     0.231 C 
HETATM    4  N3  UNL     1      21.110  -1.317  53.998  1.00  0.00    -0.257 NA
HETATM    5  C4  UNL     1      22.394  -0.816  54.540  1.00  0.00     0.325 C 
HETATM    6  O1  UNL     1      23.153  -0.384  53.452  1.00  0.00    -0.330 OA
HETATM    7  C5  UNL     1      24.463  -0.141  53.299  1.00  0.00     0.074 C 
HETATM    8  C12 UNL     1      24.241   0.875  52.497  1.00  0.00     0.048 C 
HETATM    9  C13 UNL     1      22.927   1.344  52.096  1.00  0.00    -0.033 A 
HETATM   10  C14 UNL     1      22.744   2.670  52.389  1.00  0.00     0.011 A 
HETATM   11  C15 UNL     1      21.538   3.296  52.128  1.00  0.00     0.001 A 
HETATM   12  C16 UNL     1      20.569   2.486  51.564  1.00  0.00     0.007 A 
HETATM   13  C17 UNL     1      20.761   1.128  51.267  1.00  0.00    -0.050 A 
HETATM   14  C18 UNL     1      21.969   0.533  51.533  1.00  0.00     0.019 A 
HETATM   15  C19 UNL     1      19.521   0.504  50.713  1.00  0.00     0.119 C 
ENDROOT
BRANCH   7  16
HETATM   16  C6  UNL     1      25.690  -0.706  53.772  1.00  0.00     0.066 C 
BRANCH  16  17
HETATM   17  C7  UNL     1      26.959  -0.474  53.796  1.00  0.00     0.034 A 
HETATM   18  C8  UNL     1      27.740   0.686  54.120  1.00  0.00     0.029 A 
HETATM   19  C9  UNL     1      29.032   0.854  54.098  1.00  0.00     0.004 A 
HETATM   20  C10 UNL     1      29.730  -0.358  53.670  1.00  0.00     0.017 A 
HETATM   21  C11 UNL     1      29.194  -1.505  53.336  1.00  0.00     0.088 A 
HETATM   22  N4  UNL     1      27.787  -1.600  53.389  1.00  0.00    -0.366 N 
HETATM   23  H10 UNL     1      27.378  -2.527  53.118  1.00  0.00     0.165 HD
ENDBRANCH  16  17
ENDBRANCH   7  16
BRANCH   1  24
HETATM   24  N1  UNL     1      17.348  -0.303  51.444  1.00  0.00    -0.239 NA
HETATM   25  C1  UNL     1      16.506   0.645  51.263  1.00  0.00     0.168 C 
HETATM   26  I1  UNL     1      16.718   2.741  51.438  1.00  0.00    -0.036 I 
ENDBRANCH   1  24
TORSDOF 3
ENDMDL
MODEL 2
REMARK VINA RESULT:      -8.6      4.209      4.984
REMARK  3 active torsions:
REMARK  status: ('A' for Active; 'I' for Inactive)
REMARK    1  A    between atoms: N1_3  and  C2_4 
REMARK    2  A    between atoms: C5_10  and  C6_11 
REMARK    3  A    between atoms: C6_11  and  C7_12 
ROOT
HETATM    1  C2  UNL     1      21.623   5.363  49.565  1.00  0.00     0.131 C 
HETATM    2  N2  UNL     1      21.655   5.410  50.886  1.00  0.00    -0.227 NA
HETATM    3  C3  UNL     1      22.699   4.743  51.574  1.00  0.00     0.231 C 
HETATM    4  N3  UNL     1      22.767   3.722  52.377  1.00  0.00    -0.257 NA
HETATM    5  C4  UNL     1      24.089   3.304  52.899  1.00  0.00     0.325 C 
HETATM    6  O1  UNL     1      24.737   2.627  51.867  1.00  0.00    -0.330 OA
HETATM    7  C5  UNL     1      25.779   1.781  51.850  1.00  0.00     0.074 C 
HETATM    8  C12 UNL     1      26.222   2.257  50.708  1.00  0.00     0.048 C 
HETATM    9  C13 UNL     1      25.594   3.329  49.957  1.00  0.00    -0.033 A 
HETATM   10  C14 UNL     1      26.461   4.361  49.713  1.00  0.00     0.011 A 
HETATM   11  C15 UNL     1      26.043   5.501  49.050  1.00  0.00     0.001 A 
HETATM   12  C16 UNL     1      24.712   5.501  48.672  1.00  0.00     0.007 A 
HETATM   13  C17 UNL     1      23.827   4.443  48.925  1.00  0.00    -0.050 A 
HETATM   14  C18 UNL     1      24.270   3.322  49.582  1.00  0.00     0.019 A 
HETATM   15  C19 UNL     1      22.446   4.751  48.444  1.00  0.00     0.119 C 
ENDROOT
BRANCH   7  16
HETATM   16  C6  UNL     1      26.290   0.741  52.688  1.00  0.00     0.066 C 
BRANCH  16  17
HETATM   17  C7  UNL     1      27.381   0.097  52.937  1.00  0.00     0.034 A 
HETATM   18  C8  UNL     1      27.732  -1.295  52.900  1.00  0.00     0.029 A 
HETATM   19  C9  UNL     1      28.860  -1.878  53.191  1.00  0.00     0.004 A 
HETATM   20  C10 UNL     1      29.878  -0.914  53.609  1.00  0.00     0.017 A 
HETATM   21  C11 UNL     1      29.748   0.385  53.704  1.00  0.00     0.088 A 
HETATM   22  N4  UNL     1      28.491   0.934  53.369  1.00  0.00    -0.366 N 
HETATM   23  H10 UNL     1      28.408   1.976  53.451  1.00  0.00     0.165 HD
ENDBRANCH  16  17
ENDBRANCH   7  16
BRANCH   1  24
HETATM   24  N1  UNL     1      20.507   6.083  49.058  1.00  0.00    -0.239 NA
HETATM   25  C1  UNL     1      20.512   7.329  48.762  1.00  0.00     0.168 C 
HETATM   26  I1  UNL     1      22.046   8.778  48.882  1.00  0.00    -0.036 I 
ENDBRANCH   1  24
TORSDOF 3
ENDMDL
MODEL 3
REMARK VINA RESULT:      -8.5      5.943      7.891
REMARK  3 active torsions:
REMARK  status: ('A' for Active; 'I' for Inactive)
REMARK    1  A    between atoms: N1_3  and  C2_4 
REMARK    2  A    between atoms: C5_10  and  C6_11 
REMARK    3  A    between atoms: C6_11  and  C7_12 
ROOT
HETATM    1  C2  UNL     1      24.726   8.106  49.265  1.00  0.00     0.131 C 
HETATM    2  N2  UNL     1      24.442   8.036  50.554  1.00  0.00    -0.227 NA
HETATM    3  C3  UNL     1      24.220   6.766  51.143  1.00  0.00     0.231 C 
HETATM    4  N3  UNL     1      23.196   6.162  51.672  1.00  0.00    -0.257 NA
HETATM    5  C4  UNL     1      23.359   4.782  52.185  1.00  0.00     0.325 C 
HETATM    6  O1  UNL     1      23.376   3.936  51.076  1.00  0.00    -0.330 OA
HETATM    7  C5  UNL     1      23.185   2.616  50.939  1.00  0.00     0.074 C 
HETATM    8  C12 UNL     1      24.091   2.523  49.992  1.00  0.00     0.048 C 
HETATM    9  C13 UNL     1      24.870   3.634  49.479  1.00  0.00    -0.033 A 
HETATM   10  C14 UNL     1      26.217   3.403  49.571  1.00  0.00     0.011 A 
HETATM   11  C15 UNL     1      27.133   4.362  49.177  1.00  0.00     0.001 A 
HETATM   12  C16 UNL     1      26.580   5.536  48.699  1.00  0.00     0.007 A 
HETATM   13  C17 UNL     1      25.199   5.770  48.607  1.00  0.00    -0.050 A 
HETATM   14  C18 UNL     1      24.313   4.799  49.002  1.00  0.00     0.019 A 
HETATM   15  C19 UNL     1      24.905   7.145  48.102  1.00  0.00     0.119 C 
ENDROOT
BRANCH   7  16
HETATM   16  C6  UNL     1      22.352   1.616  51.535  1.00  0.00     0.066 C 
BRANCH  16  17
HETATM   17  C7  UNL     1      22.289   0.849  52.571  1.00  0.00     0.034 A 
HETATM   18  C8  UNL     1      23.180  -0.131  53.125  1.00  0.00     0.029 A 
HETATM   19  C9  UNL     1      23.036  -0.891  54.174  1.00  0.00     0.004 A 
HETATM   20  C10 UNL     1      21.753  -0.660  54.839  1.00  0.00     0.017 A 
HETATM   21  C11 UNL     1      20.818   0.185  54.486  1.00  0.00     0.088 A 
HETATM   22  N4  UNL     1      21.057   0.970  53.338  1.00  0.00    -0.366 N 
HETATM   23  H10 UNL     1      20.296   1.641  53.073  1.00  0.00     0.165 HD
ENDBRANCH  16  17
ENDBRANCH   7  16
BRANCH   1  24
HETATM   24  N1  UNL     1      24.911   9.456  48.858  1.00  0.00    -0.239 NA
HETATM   25  C1  UNL     1      26.036  10.067  48.839  1.00  0.00     0.168 C 
HETATM   26  I1  UNL     1      27.979   9.417  49.360  1.00  0.00    -0.036 I 
ENDBRANCH   1  24
TORSDOF 3
ENDMDL
MODEL 4
REMARK VINA RESULT:      -8.5      4.741      5.912
REMARK  3 active torsions:
REMARK  status: ('A' for Active; 'I' for Inactive)
REMARK    1  A    between atoms: N1_3  and  C2_4 
REMARK    2  A    between atoms: C5_10  and  C6_11 
REMARK    3  A    between atoms: C6_11  and  C7_12 
ROOT
HETATM    1  C2  UNL     1      20.311   0.943  52.176  1.00  0.00     0.131 C 
HETATM    2  N2  UNL     1      19.917   2.183  52.413  1.00  0.00    -0.227 NA
HETATM    3  C3  UNL     1      20.667   3.258  51.873  1.00  0.00     0.231 C 
HETATM    4  N3  UNL     1      21.397   4.213  52.370  1.00  0.00    -0.257 NA
HETATM    5  C4  UNL     1      22.053   5.171  51.451  1.00  0.00     0.325 C 
HETATM    6  O1  UNL     1      23.156   4.517  50.902  1.00  0.00    -0.330 OA
HETATM    7  C5  UNL     1      24.259   4.961  50.280  1.00  0.00     0.074 C 
HETATM    8  C12 UNL     1      24.278   3.938  49.457  1.00  0.00     0.048 C 
HETATM    9  C13 UNL     1      23.311   2.856  49.455  1.00  0.00    -0.033 A 
HETATM   10  C14 UNL     1      22.715   2.702  48.231  1.00  0.00     0.011 A 
HETATM   11  C15 UNL     1      21.728   1.753  48.034  1.00  0.00     0.001 A 
HETATM   12  C16 UNL     1      21.409   1.002  49.151  1.00  0.00     0.007 A 
HETATM   13  C17 UNL     1      22.020   1.164  50.403  1.00  0.00    -0.050 A 
HETATM   14  C18 UNL     1      23.000   2.111  50.569  1.00  0.00     0.019 A 
HETATM   15  C19 UNL     1      21.433   0.246  51.426  1.00  0.00     0.119 C 
ENDROOT
BRANCH   7  16
HETATM   16  C6  UNL     1      25.137   6.085  50.394  1.00  0.00     0.066 C 
BRANCH  16  17
HETATM   17  C7  UNL     1      26.061   6.707  49.742  1.00  0.00     0.034 A 
HETATM   18  C8  UNL     1      26.772   6.419  48.528  1.00  0.00     0.029 A 
HETATM   19  C9  UNL     1      27.719   7.090  47.937  1.00  0.00     0.004 A 
HETATM   20  C10 UNL     1      28.060   8.309  48.672  1.00  0.00     0.017 A 
HETATM   21  C11 UNL     1      27.526   8.737  49.788  1.00  0.00     0.088 A 
HETATM   22  N4  UNL     1      26.506   7.948  50.360  1.00  0.00    -0.366 N 
HETATM   23  H10 UNL     1      26.091   8.309  51.253  1.00  0.00     0.165 HD
ENDBRANCH  16  17
ENDBRANCH   7  16
BRANCH   1  24
HETATM   24  N1  UNL     1      19.441   0.007  52.799  1.00  0.00    -0.239 NA
HETATM   25  C1  UNL     1      18.320  -0.384  52.319  1.00  0.00     0.168 C 
HETATM   26  I1  UNL     1      17.318   0.135  50.532  1.00  0.00    -0.036 I 
ENDBRANCH   1  24
TORSDOF 3
ENDMDL
MODEL 5
REMARK VINA RESULT:      -8.3      4.122      5.605
REMARK  3 active torsions:
REMARK  status: ('A' for Active; 'I' for Inactive)
REMARK    1  A    between atoms: N1_3  and  C2_4 
REMARK    2  A    between atoms: C5_10  and  C6_11 
REMARK    3  A    between atoms: C6_11  and  C7_12 
ROOT
HETATM    1  C2  UNL     1      24.809   6.239  50.102  1.00  0.00     0.131 C 
HETATM    2  N2  UNL     1      25.705   5.469  49.509  1.00  0.00    -0.227 NA
HETATM    3  C3  UNL     1      25.854   4.127  49.940  1.00  0.00     0.231 C 
HETATM    4  N3  UNL     1      26.793   3.448  50.531  1.00  0.00    -0.257 NA
HETATM    5  C4  UNL     1      26.563   2.018  50.838  1.00  0.00     0.325 C 
HETATM    6  O1  UNL     1      25.729   1.972  51.955  1.00  0.00    -0.330 OA
HETATM    7  C5  UNL     1      25.451   1.004  52.842  1.00  0.00     0.074 C 
HETATM    8  C12 UNL     1      24.195   1.375  52.942  1.00  0.00     0.048 C 
HETATM    9  C13 UNL     1      23.597   2.482  52.220  1.00  0.00    -0.033 A 
HETATM   10  C14 UNL     1      22.505   2.091  51.492  1.00  0.00     0.011 A 
HETATM   11  C15 UNL     1      21.821   2.992  50.696  1.00  0.00     0.001 A 
HETATM   12  C16 UNL     1      22.326   4.280  50.704  1.00  0.00     0.007 A 
HETATM   13  C17 UNL     1      23.446   4.676  51.450  1.00  0.00    -0.050 A 
HETATM   14  C18 UNL     1      24.104   3.762  52.234  1.00  0.00     0.019 A 
HETATM   15  C19 UNL     1      23.783   6.113  51.217  1.00  0.00     0.119 C 
ENDROOT
BRANCH   7  16
HETATM   16  C6  UNL     1      26.167  -0.055  53.485  1.00  0.00     0.066 C 
BRANCH  16  17
HETATM   17  C7  UNL     1      27.324  -0.626  53.491  1.00  0.00     0.034 A 
HETATM   18  C8  UNL     1      28.651  -0.157  53.776  1.00  0.00     0.029 A 
HETATM   19  C9  UNL     1      29.786  -0.794  53.738  1.00  0.00     0.004 A 
HETATM   20  C10 UNL     1      29.613  -2.191  53.338  1.00  0.00     0.017 A 
HETATM   21  C11 UNL     1      28.491  -2.796  53.041  1.00  0.00     0.088 A 
HETATM   22  N4  UNL     1      27.307  -2.031  53.109  1.00  0.00    -0.366 N 
HETATM   23  H10 UNL     1      26.419  -2.535  52.868  1.00  0.00     0.165 HD
ENDBRANCH  16  17
ENDBRANCH   7  16
BRANCH   1  24
HETATM   24  N1  UNL     1      24.808   7.544  49.540  1.00  0.00    -0.239 NA
HETATM   25  C1  UNL     1      24.125   7.901  48.516  1.00  0.00     0.168 C 
HETATM   26  I1  UNL     1      22.796   6.812  47.286  1.00  0.00    -0.036 I 
ENDBRANCH   1  24
TORSDOF 3
ENDMDL
MODEL 6
REMARK VINA RESULT:      -8.1      3.182      7.796
REMARK  3 active torsions:
REMARK  status: ('A' for Active; 'I' for Inactive)
REMARK    1  A    between atoms: N1_3  and  C2_4 
REMARK    2  A    between atoms: C5_10  and  C6_11 
REMARK    3  A    between atoms: C6_11  and  C7_12 
ROOT
HETATM    1  C2  UNL     1      26.540   0.698  54.581  1.00  0.00     0.131 C 
HETATM    2  N2  UNL     1      25.980  -0.490  54.430  1.00  0.00    -0.227 NA
HETATM    3  C3  UNL     1      24.749  -0.587  53.734  1.00  0.00     0.231 C 
HETATM    4  N3  UNL     1      23.531  -0.908  54.057  1.00  0.00    -0.257 NA
HETATM    5  C4  UNL     1      22.478  -0.878  53.016  1.00  0.00     0.325 C 
HETATM    6  O1  UNL     1      22.147   0.461  52.810  1.00  0.00    -0.330 OA
HETATM    7  C5  UNL     1      21.086   1.058  52.248  1.00  0.00     0.074 C 
HETATM    8  C12 UNL     1      21.823   2.014  51.731  1.00  0.00     0.048 C 
HETATM    9  C13 UNL     1      23.262   2.125  51.882  1.00  0.00    -0.033 A 
HETATM   10  C14 UNL     1      23.903   2.184  50.673  1.00  0.00     0.011 A 
HETATM   11  C15 UNL     1      25.283   2.245  50.600  1.00  0.00     0.001 A 
HETATM   12  C16 UNL     1      25.932   2.240  51.821  1.00  0.00     0.007 A 
HETATM   13  C17 UNL     1      25.273   2.178  53.058  1.00  0.00    -0.050 A 
HETATM   14  C18 UNL     1      23.902   2.122  53.100  1.00  0.00     0.019 A 
HETATM   15  C19 UNL     1      26.239   2.137  54.197  1.00  0.00     0.119 C 
ENDROOT
BRANCH   7  16
HETATM   16  C6  UNL     1      19.675   0.827  52.181  1.00  0.00     0.066 C 
BRANCH  16  17
HETATM   17  C7  UNL     1      18.798  -0.095  52.395  1.00  0.00     0.034 A 
HETATM   18  C8  UNL     1      17.521  -0.393  51.810  1.00  0.00     0.029 A 
HETATM   19  C9  UNL     1      16.672  -1.338  52.099  1.00  0.00     0.004 A 
HETATM   20  C10 UNL     1      17.153  -2.185  53.191  1.00  0.00     0.017 A 
HETATM   21  C11 UNL     1      18.282  -2.072  53.843  1.00  0.00     0.088 A 
HETATM   22  N4  UNL     1      19.143  -1.020  53.465  1.00  0.00    -0.366 N 
HETATM   23  H10 UNL     1      20.043  -0.947  54.000  1.00  0.00     0.165 HD
ENDBRANCH  16  17
ENDBRANCH   7  16
BRANCH   1  24
HETATM   24  N1  UNL     1      27.759   0.597  55.305  1.00  0.00    -0.239 NA
HETATM   25  C1  UNL     1      28.789  -0.058  54.917  1.00  0.00     0.168 C 
HETATM   26  I1  UNL     1      29.133  -1.200  53.172  1.00  0.00    -0.036 I 
ENDBRANCH   1  24
TORSDOF 3
ENDMDL
MODEL 7
REMARK VINA RESULT:      -7.9      5.760      7.250
REMARK  3 active torsions:
REMARK  status: ('A' for Active; 'I' for Inactive)
REMARK    1  A    between atoms: N1_3  and  C2_4 
REMARK    2  A    between atoms: C5_10  and  C6_11 
REMARK    3  A    between atoms: C6_11  and  C7_12 
ROOT
HETATM    1  C2  UNL     1      25.047   7.977  48.866  1.00  0.00     0.131 C 
HETATM    2  N2  UNL     1      25.351   6.853  48.240  1.00  0.00    -0.227 NA
HETATM    3  C3  UNL     1      25.086   5.616  48.879  1.00  0.00     0.231 C 
HETATM    4  N3  UNL     1      25.815   4.648  49.351  1.00  0.00    -0.257 NA
HETATM    5  C4  UNL     1      25.149   3.484  49.980  1.00  0.00     0.325 C 
HETATM    6  O1  UNL     1      24.738   3.889  51.249  1.00  0.00    -0.330 OA
HETATM    7  C5  UNL     1      24.384   3.207  52.349  1.00  0.00     0.074 C 
HETATM    8  C12 UNL     1      23.464   4.088  52.670  1.00  0.00     0.048 C 
HETATM    9  C13 UNL     1      23.160   5.285  51.908  1.00  0.00    -0.033 A 
HETATM   10  C14 UNL     1      21.838   5.345  51.552  1.00  0.00     0.011 A 
HETATM   11  C15 UNL     1      21.356   6.387  50.780  1.00  0.00     0.001 A 
HETATM   12  C16 UNL     1      22.300   7.328  50.414  1.00  0.00     0.007 A 
HETATM   13  C17 UNL     1      23.653   7.263  50.779  1.00  0.00    -0.050 A 
HETATM   14  C18 UNL     1      24.104   6.219  51.549  1.00  0.00     0.019 A 
HETATM   15  C19 UNL     1      24.438   8.392  50.195  1.00  0.00     0.119 C 
ENDROOT
BRANCH   7  16
HETATM   16  C6  UNL     1      24.786   1.998  52.999  1.00  0.00     0.066 C 
BRANCH  16  17
HETATM   17  C7  UNL     1      25.795   1.200  53.100  1.00  0.00     0.034 A 
HETATM   18  C8  UNL     1      26.123  -0.055  52.485  1.00  0.00     0.029 A 
HETATM   19  C9  UNL     1      27.162  -0.822  52.657  1.00  0.00     0.004 A 
HETATM   20  C10 UNL     1      28.095  -0.261  53.634  1.00  0.00     0.017 A 
HETATM   21  C11 UNL     1      27.971   0.863  54.294  1.00  0.00     0.088 A 
HETATM   22  N4  UNL     1      26.813   1.632  54.047  1.00  0.00    -0.366 N 
HETATM   23  H10 UNL     1      26.734   2.529  54.586  1.00  0.00     0.165 HD
ENDBRANCH  16  17
ENDBRANCH   7  16
BRANCH   1  24
HETATM   24  N1  UNL     1      25.388   9.108  48.074  1.00  0.00    -0.239 NA
HETATM   25  C1  UNL     1      26.512   9.720  48.117  1.00  0.00     0.168 C 
HETATM   26  I1  UNL     1      28.240   9.371  49.283  1.00  0.00    -0.036 I 
ENDBRANCH   1  24
TORSDOF 3
ENDMDL
MODEL 8
REMARK VINA RESULT:      -7.7      3.968      4.687
REMARK  3 active torsions:
REMARK  status: ('A' for Active; 'I' for Inactive)
REMARK    1  A    between atoms: N1_3  and  C2_4 
REMARK    2  A    between atoms: C5_10  and  C6_11 
REMARK    3  A    between atoms: C6_11  and  C7_12 
ROOT
HETATM    1  C2  UNL     1      21.005   5.486  49.052  1.00  0.00     0.131 C 
HETATM    2  N2  UNL     1      20.973   5.454  50.373  1.00  0.00    -0.227 NA
HETATM    3  C3  UNL     1      22.068   4.889  51.075  1.00  0.00     0.231 C 
HETATM    4  N3  UNL     1      22.239   3.837  51.821  1.00  0.00    -0.257 NA
HETATM    5  C4  UNL     1      23.581   3.566  52.385  1.00  0.00     0.325 C 
HETATM    6  O1  UNL     1      24.360   3.047  51.351  1.00  0.00    -0.330 OA
HETATM    7  C5  UNL     1      25.506   2.351  51.339  1.00  0.00     0.074 C 
HETATM    8  C12 UNL     1      25.929   2.953  50.251  1.00  0.00     0.048 C 
HETATM    9  C13 UNL     1      25.195   3.977  49.531  1.00  0.00    -0.033 A 
HETATM   10  C14 UNL     1      25.924   5.128  49.391  1.00  0.00     0.011 A 
HETATM   11  C15 UNL     1      25.384   6.242  48.773  1.00  0.00     0.001 A 
HETATM   12  C16 UNL     1      24.084   6.089  48.328  1.00  0.00     0.007 A 
HETATM   13  C17 UNL     1      23.340   4.909  48.475  1.00  0.00    -0.050 A 
HETATM   14  C18 UNL     1      23.902   3.818  49.088  1.00  0.00     0.019 A 
HETATM   15  C19 UNL     1      21.952   5.062  47.942  1.00  0.00     0.119 C 
ENDROOT
BRANCH   7  16
HETATM   16  C6  UNL     1      26.117   1.336  52.142  1.00  0.00     0.066 C 
BRANCH  16  17
HETATM   17  C7  UNL     1      27.207   1.087  52.787  1.00  0.00     0.034 A 
HETATM   18  C8  UNL     1      28.143   1.915  53.493  1.00  0.00     0.029 A 
HETATM   19  C9  UNL     1      29.246   1.591  54.106  1.00  0.00     0.004 A 
HETATM   20  C10 UNL     1      29.510   0.155  54.026  1.00  0.00     0.017 A 
HETATM   21  C11 UNL     1      28.778  -0.754  53.432  1.00  0.00     0.088 A 
HETATM   22  N4  UNL     1      27.599  -0.315  52.791  1.00  0.00    -0.366 N 
HETATM   23  H10 UNL     1      27.027  -1.058  52.322  1.00  0.00     0.165 HD
ENDBRANCH  16  17
ENDBRANCH   7  16
BRANCH   1  24
HETATM   24  N1  UNL     1      19.825   6.082  48.529  1.00  0.00    -0.239 NA
HETATM   25  C1  UNL     1      18.759   5.445  48.217  1.00  0.00     0.168 C 
HETATM   26  I1  UNL     1      18.291   3.387  48.320  1.00  0.00    -0.036 I 
ENDBRANCH   1  24
TORSDOF 3
ENDMDL
MODEL 9
REMARK VINA RESULT:      -7.7      6.378      8.479
REMARK  3 active torsions:
REMARK  status: ('A' for Active; 'I' for Inactive)
REMARK    1  A    between atoms: N1_3  and  C2_4 
REMARK    2  A    between atoms: C5_10  and  C6_11 
REMARK    3  A    between atoms: C6_11  and  C7_12 
ROOT
HETATM    1  C2  UNL     1      28.043   7.450  48.540  1.00  0.00     0.131 C 
HETATM    2  N2  UNL     1      28.410   6.209  48.269  1.00  0.00    -0.227 NA
HETATM    3  C3  UNL     1      27.527   5.146  48.583  1.00  0.00     0.231 C 
HETATM    4  N3  UNL     1      27.545   4.150  49.420  1.00  0.00    -0.257 NA
HETATM    5  C4  UNL     1      26.390   3.225  49.465  1.00  0.00     0.325 C 
HETATM    6  O1  UNL     1      25.371   3.880  50.154  1.00  0.00    -0.330 OA
HETATM    7  C5  UNL     1      24.255   3.442  50.757  1.00  0.00     0.074 C 
HETATM    8  C12 UNL     1      23.572   4.505  50.396  1.00  0.00     0.048 C 
HETATM    9  C13 UNL     1      24.105   5.607  49.616  1.00  0.00    -0.033 A 
HETATM   10  C14 UNL     1      23.371   5.836  48.482  1.00  0.00     0.011 A 
HETATM   11  C15 UNL     1      23.742   6.816  47.580  1.00  0.00     0.001 A 
HETATM   12  C16 UNL     1      24.885   7.517  47.917  1.00  0.00     0.007 A 
HETATM   13  C17 UNL     1      25.635   7.279  49.078  1.00  0.00    -0.050 A 
HETATM   14  C18 UNL     1      25.241   6.303  49.959  1.00  0.00     0.019 A 
HETATM   15  C19 UNL     1      26.842   8.158  49.146  1.00  0.00     0.119 C 
ENDROOT
BRANCH   7  16
HETATM   16  C6  UNL     1      23.863   2.294  51.516  1.00  0.00     0.066 C 
BRANCH  16  17
HETATM   17  C7  UNL     1      24.369   1.311  52.182  1.00  0.00     0.034 A 
HETATM   18  C8  UNL     1      23.833   0.406  53.159  1.00  0.00     0.029 A 
HETATM   19  C9  UNL     1      24.417  -0.557  53.813  1.00  0.00     0.004 A 
HETATM   20  C10 UNL     1      25.829  -0.682  53.449  1.00  0.00     0.017 A 
HETATM   21  C11 UNL     1      26.492   0.045  52.585  1.00  0.00     0.088 A 
HETATM   22  N4  UNL     1      25.781   1.068  51.922  1.00  0.00    -0.366 N 
HETATM   23  H10 UNL     1      26.329   1.638  51.234  1.00  0.00     0.165 HD
ENDBRANCH  16  17
ENDBRANCH   7  16
BRANCH   1  24
HETATM   24  N1  UNL     1      29.054   8.374  48.160  1.00  0.00    -0.239 NA
HETATM   25  C1  UNL     1      29.117   8.966  47.026  1.00  0.00     0.168 C 
HETATM   26  I1  UNL     1      27.859   8.857  45.331  1.00  0.00    -0.036 I 
ENDBRANCH   1  24
TORSDOF 3
ENDMDL
