MODEL 1
REMARK VINA RESULT:      -8.3      0.000      0.000
REMARK  5 active torsions:
REMARK  status: ('A' for Active; 'I' for Inactive)
REMARK    1  A    between atoms: C2_2  and  C3_3 
REMARK    2  A    between atoms: C6_6  and  N1_7 
REMARK    3  A    between atoms: N1_7  and  C7_8 
REMARK    4  A    between atoms: C10_11  and  O1_12 
REMARK    5  A    between atoms: C16_20  and  O2_21 
ROOT
HETATM    1  C3  UNL     1      22.879   1.372  52.413  1.00  0.00    -0.024 A 
HETATM    2  C4  UNL     1      24.249   1.523  52.457  1.00  0.00     0.027 A 
HETATM    3  C5  UNL     1      25.024   2.195  51.540  1.00  0.00     0.039 A 
HETATM    4  C6  UNL     1      26.383   2.321  51.620  1.00  0.00     0.142 A 
HETATM    5  N2  UNL     1      26.946   3.015  50.625  1.00  0.00    -0.224 NA
HETATM    6  C13 UNL     1      26.272   3.553  49.621  1.00  0.00     0.236 A 
HETATM    7  N3  UNL     1      24.914   3.429  49.539  1.00  0.00    -0.241 NA
HETATM    8  C14 UNL     1      24.288   2.742  50.511  1.00  0.00     0.074 A 
HETATM    9  C15 UNL     1      22.922   2.629  50.408  1.00  0.00     0.070 A 
HETATM   10  C16 UNL     1      22.197   1.942  51.358  1.00  0.00     0.076 A 
ENDROOT
BRANCH   4  11
HETATM   11  N1  UNL     1      27.077   1.747  52.703  1.00  0.00    -0.340 N 
HETATM   12  H7  UNL     1      27.330   2.288  53.528  1.00  0.00     0.167 HD
BRANCH  11  13
HETATM   13  C7  UNL     1      27.524   0.411  52.851  1.00  0.00     0.033 A 
HETATM   14  C8  UNL     1      28.750   0.090  53.386  1.00  0.00     0.032 A 
HETATM   15  C9  UNL     1      29.213  -1.193  53.554  1.00  0.00     0.039 A 
HETATM   16  C10 UNL     1      28.439  -2.262  53.178  1.00  0.00     0.065 A 
HETATM   17  C11 UNL     1      27.198  -2.004  52.635  1.00  0.00     0.039 A 
HETATM   18  C12 UNL     1      26.792  -0.698  52.493  1.00  0.00     0.032 A 
BRANCH  16  19
HETATM   19  O1  UNL     1      28.776  -3.603  53.288  1.00  0.00    -0.361 OA
HETATM   20  H10 UNL     1      28.629  -4.016  54.218  1.00  0.00     0.217 HD
ENDBRANCH  16  19
ENDBRANCH  11  13
ENDBRANCH   4  11
BRANCH   1  21
HETATM   21  C2  UNL     1      22.098   0.636  53.428  1.00  0.00     0.037 C 
HETATM   22  C1  UNL     1      22.378  -0.863  53.363  1.00  0.00     0.010 C 
ENDBRANCH   1  21
BRANCH  10  23
HETATM   23  O2  UNL     1      20.818   1.814  51.275  1.00  0.00    -0.355 OA
HETATM   24  C17 UNL     1      20.261   1.053  50.202  1.00  0.00     0.210 C 
ENDBRANCH  10  23
TORSDOF 5
ENDMDL
MODEL 2
REMARK VINA RESULT:      -8.0      2.720      4.415
REMARK  5 active torsions:
REMARK  status: ('A' for Active; 'I' for Inactive)
REMARK    1  A    between atoms: C2_2  and  C3_3 
REMARK    2  A    between atoms: C6_6  and  N1_7 
REMARK    3  A    between atoms: N1_7  and  C7_8 
REMARK    4  A    between atoms: C10_11  and  O1_12 
REMARK    5  A    between atoms: C16_20  and  O2_21 
ROOT
HETATM    1  C3  UNL     1      20.533   0.442  51.495  1.00  0.00    -0.024 A 
HETATM    2  C4  UNL     1      21.845   0.386  51.914  1.00  0.00     0.027 A 
HETATM    3  C5  UNL     1      22.305  -0.197  53.073  1.00  0.00     0.039 A 
HETATM    4  C6  UNL     1      23.618  -0.232  53.454  1.00  0.00     0.142 A 
HETATM    5  N2  UNL     1      23.852  -0.847  54.618  1.00  0.00    -0.224 NA
HETATM    6  C13 UNL     1      22.912  -1.392  55.372  1.00  0.00     0.236 A 
HETATM    7  N3  UNL     1      21.600  -1.359  54.994  1.00  0.00    -0.241 NA
HETATM    8  C14 UNL     1      21.297  -0.754  53.832  1.00  0.00     0.074 A 
HETATM    9  C15 UNL     1      19.972  -0.732  53.471  1.00  0.00     0.070 A 
HETATM   10  C16 UNL     1      19.570  -0.133  52.297  1.00  0.00     0.076 A 
ENDROOT
BRANCH   4  11
HETATM   11  N1  UNL     1      24.601   0.349  52.629  1.00  0.00    -0.340 N 
HETATM   12  H7  UNL     1      24.383   0.703  51.699  1.00  0.00     0.167 HD
BRANCH  11  13
HETATM   13  C7  UNL     1      25.978   0.540  52.904  1.00  0.00     0.033 A 
HETATM   14  C8  UNL     1      26.512   1.768  53.214  1.00  0.00     0.032 A 
HETATM   15  C9  UNL     1      27.838   1.991  53.496  1.00  0.00     0.039 A 
HETATM   16  C10 UNL     1      28.733   0.949  53.480  1.00  0.00     0.065 A 
HETATM   17  C11 UNL     1      28.256  -0.309  53.175  1.00  0.00     0.039 A 
HETATM   18  C12 UNL     1      26.918  -0.465  52.902  1.00  0.00     0.032 A 
BRANCH  16  19
HETATM   19  O1  UNL     1      30.092   1.026  53.742  1.00  0.00    -0.361 OA
HETATM   20  H10 UNL     1      30.700   0.614  53.023  1.00  0.00     0.217 HD
ENDBRANCH  16  19
ENDBRANCH  11  13
ENDBRANCH   4  11
BRANCH   1  21
HETATM   21  C2  UNL     1      20.097   1.084  50.237  1.00  0.00     0.037 C 
HETATM   22  C1  UNL     1      21.192   1.027  49.176  1.00  0.00     0.010 C 
ENDBRANCH   1  21
BRANCH  10  23
HETATM   23  O2  UNL     1      18.237  -0.098  51.912  1.00  0.00    -0.355 OA
HETATM   24  C17 UNL     1      17.314  -0.985  52.546  1.00  0.00     0.210 C 
ENDBRANCH  10  23
TORSDOF 5
ENDMDL
MODEL 3
REMARK VINA RESULT:      -7.8      2.535      4.078
REMARK  5 active torsions:
REMARK  status: ('A' for Active; 'I' for Inactive)
REMARK    1  A    between atoms: C2_2  and  C3_3 
REMARK    2  A    between atoms: C6_6  and  N1_7 
REMARK    3  A    between atoms: N1_7  and  C7_8 
REMARK    4  A    between atoms: C10_11  and  O1_12 
REMARK    5  A    between atoms: C16_20  and  O2_21 
ROOT
HETATM    1  C3  UNL     1      22.573   2.069  51.182  1.00  0.00    -0.024 A 
HETATM    2  C4  UNL     1      23.512   1.269  51.800  1.00  0.00     0.027 A 
HETATM    3  C5  UNL     1      23.304   0.473  52.903  1.00  0.00     0.039 A 
HETATM    4  C6  UNL     1      24.263  -0.307  53.486  1.00  0.00     0.142 A 
HETATM    5  N2  UNL     1      23.854  -1.005  54.551  1.00  0.00    -0.224 NA
HETATM    6  C13 UNL     1      22.622  -0.969  55.033  1.00  0.00     0.236 A 
HETATM    7  N3  UNL     1      21.661  -0.191  54.452  1.00  0.00    -0.241 NA
HETATM    8  C14 UNL     1      22.010   0.536  53.376  1.00  0.00     0.074 A 
HETATM    9  C15 UNL     1      21.029   1.312  52.807  1.00  0.00     0.070 A 
HETATM   10  C16 UNL     1      21.296   2.090  51.702  1.00  0.00     0.076 A 
ENDROOT
BRANCH   4  11
HETATM   11  N1  UNL     1      25.565  -0.334  52.949  1.00  0.00    -0.340 N 
HETATM   12  H7  UNL     1      25.802  -0.905  52.139  1.00  0.00     0.167 HD
BRANCH  11  13
HETATM   13  C7  UNL     1      26.713   0.370  53.390  1.00  0.00     0.033 A 
HETATM   14  C8  UNL     1      27.615  -0.160  54.282  1.00  0.00     0.032 A 
HETATM   15  C9  UNL     1      28.744   0.487  54.725  1.00  0.00     0.039 A 
HETATM   16  C10 UNL     1      29.035   1.752  54.276  1.00  0.00     0.065 A 
HETATM   17  C11 UNL     1      28.167   2.337  53.379  1.00  0.00     0.039 A 
HETATM   18  C12 UNL     1      27.055   1.637  52.975  1.00  0.00     0.032 A 
BRANCH  16  19
HETATM   19  O1  UNL     1      30.132   2.521  54.635  1.00  0.00    -0.361 OA
HETATM   20  H10 UNL     1      29.955   3.219  55.368  1.00  0.00     0.217 HD
ENDBRANCH  16  19
ENDBRANCH  11  13
ENDBRANCH   4  11
BRANCH   1  21
HETATM   21  C2  UNL     1      22.856   2.906  49.998  1.00  0.00     0.037 C 
HETATM   22  C1  UNL     1      24.343   3.233  49.892  1.00  0.00     0.010 C 
ENDBRANCH   1  21
BRANCH  10  23
HETATM   23  O2  UNL     1      20.322   2.882  51.111  1.00  0.00    -0.355 OA
HETATM   24  C17 UNL     1      18.999   2.861  51.649  1.00  0.00     0.210 C 
ENDBRANCH  10  23
TORSDOF 5
ENDMDL
MODEL 4
REMARK VINA RESULT:      -7.7      1.575      2.076
REMARK  5 active torsions:
REMARK  status: ('A' for Active; 'I' for Inactive)
REMARK    1  A    between atoms: C2_2  and  C3_3 
REMARK    2  A    between atoms: C6_6  and  N1_7 
REMARK    3  A    between atoms: N1_7  and  C7_8 
REMARK    4  A    between atoms: C10_11  and  O1_12 
REMARK    5  A    between atoms: C16_20  and  O2_21 
ROOT
HETATM    1  C3  UNL     1      22.008   0.402  53.395  1.00  0.00    -0.024 A 
HETATM    2  C4  UNL     1      23.181   1.102  53.207  1.00  0.00     0.027 A 
HETATM    3  C5  UNL     1      23.546   1.790  52.073  1.00  0.00     0.039 A 
HETATM    4  C6  UNL     1      24.721   2.474  51.926  1.00  0.00     0.142 A 
HETATM    5  N2  UNL     1      24.881   3.075  50.743  1.00  0.00    -0.224 NA
HETATM    6  C13 UNL     1      23.994   3.034  49.763  1.00  0.00     0.236 A 
HETATM    7  N3  UNL     1      22.818   2.353  49.906  1.00  0.00    -0.241 NA
HETATM    8  C14 UNL     1      22.596   1.726  51.075  1.00  0.00     0.074 A 
HETATM    9  C15 UNL     1      21.409   1.046  51.198  1.00  0.00     0.070 A 
HETATM   10  C16 UNL     1      21.097   0.374  52.360  1.00  0.00     0.076 A 
ENDROOT
BRANCH   4  11
HETATM   11  N1  UNL     1      25.647   2.509  52.988  1.00  0.00    -0.340 N 
HETATM   12  H7  UNL     1      25.572   3.186  53.745  1.00  0.00     0.167 HD
BRANCH  11  13
HETATM   13  C7  UNL     1      26.776   1.680  53.197  1.00  0.00     0.033 A 
HETATM   14  C8  UNL     1      28.007   2.173  53.560  1.00  0.00     0.032 A 
HETATM   15  C9  UNL     1      29.121   1.400  53.782  1.00  0.00     0.039 A 
HETATM   16  C10 UNL     1      29.053   0.036  53.645  1.00  0.00     0.065 A 
HETATM   17  C11 UNL     1      27.844  -0.520  53.282  1.00  0.00     0.039 A 
HETATM   18  C12 UNL     1      26.767   0.309  53.075  1.00  0.00     0.032 A 
BRANCH  16  19
HETATM   19  O1  UNL     1      30.091  -0.864  53.835  1.00  0.00    -0.361 OA
HETATM   20  H10 UNL     1      30.193  -1.576  53.100  1.00  0.00     0.217 HD
ENDBRANCH  16  19
ENDBRANCH  11  13
ENDBRANCH   4  11
BRANCH   1  21
HETATM   21  C2  UNL     1      21.671  -0.321  54.638  1.00  0.00     0.037 C 
HETATM   22  C1  UNL     1      22.833  -1.192  55.107  1.00  0.00     0.010 C 
ENDBRANCH   1  21
BRANCH  10  23
HETATM   23  O2  UNL     1      19.905  -0.320  52.507  1.00  0.00    -0.355 OA
HETATM   24  C17 UNL     1      18.747   0.145  51.811  1.00  0.00     0.210 C 
ENDBRANCH  10  23
TORSDOF 5
ENDMDL
MODEL 5
REMARK VINA RESULT:      -7.6      2.864      6.441
REMARK  5 active torsions:
REMARK  status: ('A' for Active; 'I' for Inactive)
REMARK    1  A    between atoms: C2_2  and  C3_3 
REMARK    2  A    between atoms: C6_6  and  N1_7 
REMARK    3  A    between atoms: N1_7  and  C7_8 
REMARK    4  A    between atoms: C10_11  and  O1_12 
REMARK    5  A    between atoms: C16_20  and  O2_21 
ROOT
HETATM    1  C3  UNL     1      25.361   0.485  53.335  1.00  0.00    -0.024 A 
HETATM    2  C4  UNL     1      24.145   0.683  52.717  1.00  0.00     0.027 A 
HETATM    3  C5  UNL     1      23.532   1.894  52.495  1.00  0.00     0.039 A 
HETATM    4  C6  UNL     1      22.322   2.048  51.877  1.00  0.00     0.142 A 
HETATM    5  N2  UNL     1      21.903   3.312  51.761  1.00  0.00    -0.224 NA
HETATM    6  C13 UNL     1      22.578   4.362  52.201  1.00  0.00     0.236 A 
HETATM    7  N3  UNL     1      23.787   4.211  52.819  1.00  0.00    -0.241 NA
HETATM    8  C14 UNL     1      24.265   2.963  52.966  1.00  0.00     0.074 A 
HETATM    9  C15 UNL     1      25.482   2.834  53.591  1.00  0.00     0.070 A 
HETATM   10  C16 UNL     1      26.048   1.593  53.785  1.00  0.00     0.076 A 
ENDROOT
BRANCH   4  11
HETATM   11  N1  UNL     1      21.626   0.916  51.410  1.00  0.00    -0.340 N 
HETATM   12  H7  UNL     1      21.842   0.483  50.513  1.00  0.00     0.167 HD
BRANCH  11  13
HETATM   13  C7  UNL     1      20.573   0.209  52.041  1.00  0.00     0.033 A 
HETATM   14  C8  UNL     1      20.746  -0.507  53.202  1.00  0.00     0.032 A 
HETATM   15  C9  UNL     1      19.749  -1.196  53.849  1.00  0.00     0.039 A 
HETATM   16  C10 UNL     1      18.473  -1.201  53.341  1.00  0.00     0.065 A 
HETATM   17  C11 UNL     1      18.235  -0.500  52.177  1.00  0.00     0.039 A 
HETATM   18  C12 UNL     1      19.277   0.169  51.579  1.00  0.00     0.032 A 
BRANCH  16  19
HETATM   19  O1  UNL     1      17.373  -1.849  53.884  1.00  0.00    -0.361 OA
HETATM   20  H10 UNL     1      17.559  -2.787  54.259  1.00  0.00     0.217 HD
ENDBRANCH  16  19
ENDBRANCH  11  13
ENDBRANCH   4  11
BRANCH   1  21
HETATM   21  C2  UNL     1      25.971  -0.844  53.547  1.00  0.00     0.037 C 
HETATM   22  C1  UNL     1      26.797  -1.275  52.338  1.00  0.00     0.010 C 
ENDBRANCH   1  21
BRANCH  10  23
HETATM   23  O2  UNL     1      27.275   1.438  54.414  1.00  0.00    -0.355 OA
HETATM   24  C17 UNL     1      28.443   1.967  53.784  1.00  0.00     0.210 C 
ENDBRANCH  10  23
TORSDOF 5
ENDMDL
MODEL 6
REMARK VINA RESULT:      -7.5      2.069      3.643
REMARK  5 active torsions:
REMARK  status: ('A' for Active; 'I' for Inactive)
REMARK    1  A    between atoms: C2_2  and  C3_3 
REMARK    2  A    between atoms: C6_6  and  N1_7 
REMARK    3  A    between atoms: N1_7  and  C7_8 
REMARK    4  A    between atoms: C10_11  and  O1_12 
REMARK    5  A    between atoms: C16_20  and  O2_21 
ROOT
HETATM    1  C3  UNL     1      24.227   2.955  50.033  1.00  0.00    -0.024 A 
HETATM    2  C4  UNL     1      24.547   2.363  51.236  1.00  0.00     0.027 A 
HETATM    3  C5  UNL     1      23.801   1.418  51.903  1.00  0.00     0.039 A 
HETATM    4  C6  UNL     1      24.155   0.854  53.097  1.00  0.00     0.142 A 
HETATM    5  N2  UNL     1      23.288  -0.044  53.576  1.00  0.00    -0.224 NA
HETATM    6  C13 UNL     1      22.162  -0.386  52.970  1.00  0.00     0.236 A 
HETATM    7  N3  UNL     1      21.807   0.175  51.777  1.00  0.00    -0.241 NA
HETATM    8  C14 UNL     1      22.637   1.087  51.241  1.00  0.00     0.074 A 
HETATM    9  C15 UNL     1      22.260   1.640  50.042  1.00  0.00     0.070 A 
HETATM   10  C16 UNL     1      23.050   2.583  49.419  1.00  0.00     0.076 A 
ENDROOT
BRANCH   4  11
HETATM   11  N1  UNL     1      25.363   1.229  53.718  1.00  0.00    -0.340 N 
HETATM   12  H7  UNL     1      25.452   2.100  54.238  1.00  0.00     0.167 HD
BRANCH  11  13
HETATM   13  C7  UNL     1      26.593   0.528  53.741  1.00  0.00     0.033 A 
HETATM   14  C8  UNL     1      26.782  -0.669  53.090  1.00  0.00     0.032 A 
HETATM   15  C9  UNL     1      27.962  -1.372  53.082  1.00  0.00     0.039 A 
HETATM   16  C10 UNL     1      29.058  -0.891  53.755  1.00  0.00     0.065 A 
HETATM   17  C11 UNL     1      28.931   0.306  54.428  1.00  0.00     0.039 A 
HETATM   18  C12 UNL     1      27.723   0.961  54.397  1.00  0.00     0.032 A 
BRANCH  16  19
HETATM   19  O1  UNL     1      30.306  -1.491  53.832  1.00  0.00    -0.361 OA
HETATM   20  H10 UNL     1      31.090  -0.914  53.502  1.00  0.00     0.217 HD
ENDBRANCH  16  19
ENDBRANCH  11  13
ENDBRANCH   4  11
BRANCH   1  21
HETATM   21  C2  UNL     1      25.070   3.967  49.363  1.00  0.00     0.037 C 
HETATM   22  C1  UNL     1      26.554   3.664  49.547  1.00  0.00     0.010 C 
ENDBRANCH   1  21
BRANCH  10  23
HETATM   23  O2  UNL     1      22.689   3.156  48.208  1.00  0.00    -0.355 OA
HETATM   24  C17 UNL     1      21.360   2.960  47.723  1.00  0.00     0.210 C 
ENDBRANCH  10  23
TORSDOF 5
ENDMDL
MODEL 7
REMARK VINA RESULT:      -7.4      2.775      7.293
REMARK  5 active torsions:
REMARK  status: ('A' for Active; 'I' for Inactive)
REMARK    1  A    between atoms: C2_2  and  C3_3 
REMARK    2  A    between atoms: C6_6  and  N1_7 
REMARK    3  A    between atoms: N1_7  and  C7_8 
REMARK    4  A    between atoms: C10_11  and  O1_12 
REMARK    5  A    between atoms: C16_20  and  O2_21 
ROOT
HETATM    1  C3  UNL     1      26.238   0.959  52.518  1.00  0.00    -0.024 A 
HETATM    2  C4  UNL     1      24.930   0.523  52.514  1.00  0.00     0.027 A 
HETATM    3  C5  UNL     1      24.310  -0.201  53.506  1.00  0.00     0.039 A 
HETATM    4  C6  UNL     1      23.008  -0.615  53.463  1.00  0.00     0.142 A 
HETATM    5  N2  UNL     1      22.599  -1.307  54.531  1.00  0.00    -0.224 NA
HETATM    6  C13 UNL     1      23.368  -1.592  55.570  1.00  0.00     0.236 A 
HETATM    7  N3  UNL     1      24.669  -1.179  55.616  1.00  0.00    -0.241 NA
HETATM    8  C14 UNL     1      25.141  -0.476  54.571  1.00  0.00     0.074 A 
HETATM    9  C15 UNL     1      26.452  -0.072  54.637  1.00  0.00     0.070 A 
HETATM   10  C16 UNL     1      27.021   0.652  53.611  1.00  0.00     0.076 A 
ENDROOT
BRANCH   4  11
HETATM   11  N1  UNL     1      22.207  -0.293  52.349  1.00  0.00    -0.340 N 
HETATM   12  H7  UNL     1      22.282  -0.798  51.468  1.00  0.00     0.167 HD
BRANCH  11  13
HETATM   13  C7  UNL     1      21.218   0.716  52.240  1.00  0.00     0.033 A 
HETATM   14  C8  UNL     1      21.479   2.045  52.478  1.00  0.00     0.032 A 
HETATM   15  C9  UNL     1      20.549   3.051  52.373  1.00  0.00     0.039 A 
HETATM   16  C10 UNL     1      19.257   2.762  52.009  1.00  0.00     0.065 A 
HETATM   17  C11 UNL     1      18.934   1.446  51.757  1.00  0.00     0.039 A 
HETATM   18  C12 UNL     1      19.910   0.486  51.880  1.00  0.00     0.032 A 
BRANCH  16  19
HETATM   19  O1  UNL     1      18.219   3.671  51.864  1.00  0.00    -0.361 OA
HETATM   20  H10 UNL     1      18.295   4.517  52.443  1.00  0.00     0.217 HD
ENDBRANCH  16  19
ENDBRANCH  11  13
ENDBRANCH   4  11
BRANCH   1  21
HETATM   21  C2  UNL     1      26.852   1.734  51.420  1.00  0.00     0.037 C 
HETATM   22  C1  UNL     1      25.841   2.675  50.772  1.00  0.00     0.010 C 
ENDBRANCH   1  21
BRANCH  10  23
HETATM   23  O2  UNL     1      28.343   1.071  53.656  1.00  0.00    -0.355 OA
HETATM   24  C17 UNL     1      29.365   0.101  53.893  1.00  0.00     0.210 C 
ENDBRANCH  10  23
TORSDOF 5
ENDMDL
MODEL 8
REMARK VINA RESULT:      -7.4      2.944      7.139
REMARK  5 active torsions:
REMARK  status: ('A' for Active; 'I' for Inactive)
REMARK    1  A    between atoms: C2_2  and  C3_3 
REMARK    2  A    between atoms: C6_6  and  N1_7 
REMARK    3  A    between atoms: N1_7  and  C7_8 
REMARK    4  A    between atoms: C10_11  and  O1_12 
REMARK    5  A    between atoms: C16_20  and  O2_21 
ROOT
HETATM    1  C3  UNL     1      25.785   0.372  52.605  1.00  0.00    -0.024 A 
HETATM    2  C4  UNL     1      24.460   0.667  52.367  1.00  0.00     0.027 A 
HETATM    3  C5  UNL     1      23.385   0.245  53.115  1.00  0.00     0.039 A 
HETATM    4  C6  UNL     1      22.082   0.561  52.845  1.00  0.00     0.142 A 
HETATM    5  N2  UNL     1      21.188   0.048  53.696  1.00  0.00    -0.224 NA
HETATM    6  C13 UNL     1      21.501  -0.713  54.733  1.00  0.00     0.236 A 
HETATM    7  N3  UNL     1      22.801  -1.030  55.005  1.00  0.00    -0.241 NA
HETATM    8  C14 UNL     1      23.750  -0.544  54.185  1.00  0.00     0.074 A 
HETATM    9  C15 UNL     1      25.051  -0.875  54.477  1.00  0.00     0.070 A 
HETATM   10  C16 UNL     1      26.089  -0.423  53.691  1.00  0.00     0.076 A 
ENDROOT
BRANCH   4  11
HETATM   11  N1  UNL     1      21.775   1.380  51.740  1.00  0.00    -0.340 N 
HETATM   12  H7  UNL     1      21.508   0.989  50.838  1.00  0.00     0.167 HD
BRANCH  11  13
HETATM   13  C7  UNL     1      21.776   2.795  51.668  1.00  0.00     0.033 A 
HETATM   14  C8  UNL     1      22.751   3.570  52.250  1.00  0.00     0.032 A 
HETATM   15  C9  UNL     1      22.791   4.942  52.193  1.00  0.00     0.039 A 
HETATM   16  C10 UNL     1      21.813   5.635  51.522  1.00  0.00     0.065 A 
HETATM   17  C11 UNL     1      20.807   4.912  50.917  1.00  0.00     0.039 A 
HETATM   18  C12 UNL     1      20.824   3.540  51.010  1.00  0.00     0.032 A 
BRANCH  16  19
HETATM   19  O1  UNL     1      21.727   7.012  51.383  1.00  0.00    -0.361 OA
HETATM   20  H10 UNL     1      22.235   7.403  50.580  1.00  0.00     0.217 HD
ENDBRANCH  16  19
ENDBRANCH  11  13
ENDBRANCH   4  11
BRANCH   1  21
HETATM   21  C2  UNL     1      26.900   0.854  51.764  1.00  0.00     0.037 C 
HETATM   22  C1  UNL     1      26.593   2.224  51.166  1.00  0.00     0.010 C 
ENDBRANCH   1  21
BRANCH  10  23
HETATM   23  O2  UNL     1      27.410  -0.745  53.965  1.00  0.00    -0.355 OA
HETATM   24  C17 UNL     1      28.129   0.047  54.913  1.00  0.00     0.210 C 
ENDBRANCH  10  23
TORSDOF 5
ENDMDL
MODEL 9
REMARK VINA RESULT:      -7.3      3.182      5.396
REMARK  5 active torsions:
REMARK  status: ('A' for Active; 'I' for Inactive)
REMARK    1  A    between atoms: C2_2  and  C3_3 
REMARK    2  A    between atoms: C6_6  and  N1_7 
REMARK    3  A    between atoms: N1_7  and  C7_8 
REMARK    4  A    between atoms: C10_11  and  O1_12 
REMARK    5  A    between atoms: C16_20  and  O2_21 
ROOT
HETATM    1  C3  UNL     1      26.807   6.144  48.463  1.00  0.00    -0.024 A 
HETATM    2  C4  UNL     1      26.646   4.933  49.103  1.00  0.00     0.027 A 
HETATM    3  C5  UNL     1      25.454   4.379  49.510  1.00  0.00     0.039 A 
HETATM    4  C6  UNL     1      25.338   3.172  50.143  1.00  0.00     0.142 A 
HETATM    5  N2  UNL     1      24.088   2.817  50.455  1.00  0.00    -0.224 NA
HETATM    6  C13 UNL     1      23.019   3.550  50.190  1.00  0.00     0.236 A 
HETATM    7  N3  UNL     1      23.132   4.755  49.557  1.00  0.00    -0.241 NA
HETATM    8  C14 UNL     1      24.365   5.171  49.216  1.00  0.00     0.074 A 
HETATM    9  C15 UNL     1      24.456   6.386  48.582  1.00  0.00     0.070 A 
HETATM   10  C16 UNL     1      25.679   6.891  48.196  1.00  0.00     0.076 A 
ENDROOT
BRANCH   4  11
HETATM   11  N1  UNL     1      26.491   2.406  50.407  1.00  0.00    -0.340 N 
HETATM   12  H7  UNL     1      27.223   2.278  49.710  1.00  0.00     0.167 HD
BRANCH  11  13
HETATM   13  C7  UNL     1      26.834   1.717  51.596  1.00  0.00     0.033 A 
HETATM   14  C8  UNL     1      27.498   2.317  52.640  1.00  0.00     0.032 A 
HETATM   15  C9  UNL     1      27.839   1.686  53.811  1.00  0.00     0.039 A 
HETATM   16  C10 UNL     1      27.519   0.364  54.002  1.00  0.00     0.065 A 
HETATM   17  C11 UNL     1      26.853  -0.294  52.989  1.00  0.00     0.039 A 
HETATM   18  C12 UNL     1      26.539   0.396  51.842  1.00  0.00     0.032 A 
BRANCH  16  19
HETATM   19  O1  UNL     1      27.799  -0.398  55.126  1.00  0.00    -0.361 OA
HETATM   20  H10 UNL     1      27.591  -1.401  55.038  1.00  0.00     0.217 HD
ENDBRANCH  16  19
ENDBRANCH  11  13
ENDBRANCH   4  11
BRANCH   1  21
HETATM   21  C2  UNL     1      28.116   6.690  48.050  1.00  0.00     0.037 C 
HETATM   22  C1  UNL     1      29.215   5.637  48.157  1.00  0.00     0.010 C 
ENDBRANCH   1  21
BRANCH  10  23
HETATM   23  O2  UNL     1      25.795   8.116  47.555  1.00  0.00    -0.355 OA
HETATM   24  C17 UNL     1      25.179   9.263  48.143  1.00  0.00     0.210 C 
ENDBRANCH  10  23
TORSDOF 5
ENDMDL
