MODEL 1
REMARK VINA RESULT:      -7.6      0.000      0.000
REMARK  8 active torsions:
REMARK  status: ('A' for Active; 'I' for Inactive)
REMARK    1  A    between atoms: C3_3  and  O1_4 
REMARK    2  A    between atoms: C3_3  and  C4_5 
REMARK    3  A    between atoms: C5_6  and  C6_7 
REMARK    4  A    between atoms: C7_8  and  C8_9 
REMARK    5  A    between atoms: N1_11  and  C10_12 
REMARK    6  A    between atoms: C10_12  and  C12_14 
REMARK    7  A    between atoms: C12_14  and  N2_15 
REMARK    8  A    between atoms: C18_21  and  N3_22 
ROOT
HETATM    1  C8  UNL     1      25.870   1.377  52.444  1.00  0.00    -0.003 A 
HETATM    2  C9  UNL     1      24.573   0.929  52.292  1.00  0.00     0.105 A 
HETATM    3  N1  UNL     1      24.328   0.063  53.304  1.00  0.00    -0.334 N 
HETATM    4  C16 UNL     1      25.402  -0.075  54.107  1.00  0.00     0.147 A 
HETATM    5  C17 UNL     1      26.377   0.745  53.578  1.00  0.00     0.067 A 
HETATM    6  C18 UNL     1      27.242   0.301  54.668  1.00  0.00     0.138 A 
HETATM    7  N4  UNL     1      26.300  -0.462  55.142  1.00  0.00    -0.212 NA
ENDROOT
BRANCH   1   8
HETATM    8  C7  UNL     1      26.606   2.323  51.612  1.00  0.00     0.014 C 
HETATM    9  C6  UNL     1      26.086   2.780  50.496  1.00  0.00     0.001 C 
BRANCH   9  10
HETATM   10  C5  UNL     1      26.803   3.736  49.633  1.00  0.00     0.003 C 
HETATM   11  C4  UNL     1      26.269   4.942  49.385  1.00  0.00     0.036 C 
BRANCH  11  12
HETATM   12  C3  UNL     1      26.903   5.950  48.546  1.00  0.00     0.061 C 
HETATM   13  C2  UNL     1      28.223   5.875  48.304  1.00  0.00     0.005 C 
HETATM   14  C1  UNL     1      28.872   6.906  47.446  1.00  0.00     0.038 C 
BRANCH  12  15
HETATM   15  O1  UNL     1      26.277   7.018  47.943  1.00  0.00    -0.361 OA
HETATM   16  H5  UNL     1      25.615   6.964  47.178  1.00  0.00     0.217 HD
ENDBRANCH  12  15
ENDBRANCH  11  12
ENDBRANCH   9  10
ENDBRANCH   1   8
BRANCH   3  17
HETATM   17  C10 UNL     1      23.040  -0.592  53.429  1.00  0.00     0.115 C 
HETATM   18  C11 UNL     1      22.975  -1.062  54.872  1.00  0.00     0.034 C 
BRANCH  17  19
HETATM   19  C12 UNL     1      21.899   0.367  53.202  1.00  0.00     0.297 C 
BRANCH  19  20
HETATM   20  N2  UNL     1      20.775  -0.223  52.563  1.00  0.00     0.090 N 
HETATM   21  C13 UNL     1      19.587  -0.467  53.308  1.00  0.00     0.274 C 
HETATM   22  C14 UNL     1      18.794  -0.074  52.051  1.00  0.00     0.060 C 
HETATM   23  C15 UNL     1      20.055   0.714  51.738  1.00  0.00     0.274 C 
ENDBRANCH  19  20
ENDBRANCH  17  19
ENDBRANCH   3  17
BRANCH   6  24
HETATM   24  N3  UNL     1      28.571   0.590  55.050  1.00  0.00    -0.383 N 
HETATM   25  H23 UNL     1      29.372   0.359  54.412  1.00  0.00     0.157 HD
HETATM   26  H24 UNL     1      28.997   1.015  55.887  1.00  0.00     0.157 HD
ENDBRANCH   6  24
TORSDOF 8
ENDMDL
MODEL 2
REMARK VINA RESULT:      -7.3      3.749      8.051
REMARK  8 active torsions:
REMARK  status: ('A' for Active; 'I' for Inactive)
REMARK    1  A    between atoms: C3_3  and  O1_4 
REMARK    2  A    between atoms: C3_3  and  C4_5 
REMARK    3  A    between atoms: C5_6  and  C6_7 
REMARK    4  A    between atoms: C7_8  and  C8_9 
REMARK    5  A    between atoms: N1_11  and  C10_12 
REMARK    6  A    between atoms: C10_12  and  C12_14 
REMARK    7  A    between atoms: C12_14  and  N2_15 
REMARK    8  A    between atoms: C18_21  and  N3_22 
ROOT
HETATM    1  C8  UNL     1      23.523   0.458  52.758  1.00  0.00    -0.003 A 
HETATM    2  C9  UNL     1      24.521   1.101  52.054  1.00  0.00     0.105 A 
HETATM    3  N1  UNL     1      25.691   0.824  52.677  1.00  0.00    -0.334 N 
HETATM    4  C16 UNL     1      25.504   0.034  53.753  1.00  0.00     0.147 A 
HETATM    5  C17 UNL     1      24.146  -0.204  53.815  1.00  0.00     0.067 A 
HETATM    6  C18 UNL     1      24.413  -1.011  55.002  1.00  0.00     0.138 A 
HETATM    7  N4  UNL     1      25.688  -0.767  54.915  1.00  0.00    -0.212 NA
ENDROOT
BRANCH   1   8
HETATM    8  C7  UNL     1      22.089   0.443  52.489  1.00  0.00     0.014 C 
HETATM    9  C6  UNL     1      21.222   0.555  53.469  1.00  0.00     0.001 C 
BRANCH   9  10
HETATM   10  C5  UNL     1      19.767   0.544  53.232  1.00  0.00     0.003 C 
HETATM   11  C4  UNL     1      19.156  -0.599  52.883  1.00  0.00     0.036 C 
BRANCH  11  12
HETATM   12  C3  UNL     1      17.726  -0.706  52.630  1.00  0.00     0.061 C 
HETATM   13  C2  UNL     1      17.263  -0.564  51.375  1.00  0.00     0.005 C 
HETATM   14  C1  UNL     1      15.799  -0.672  51.116  1.00  0.00     0.038 C 
BRANCH  12  15
HETATM   15  O1  UNL     1      16.749  -0.947  53.570  1.00  0.00    -0.361 OA
HETATM   16  H5  UNL     1      16.807  -0.727  54.557  1.00  0.00     0.217 HD
ENDBRANCH  12  15
ENDBRANCH  11  12
ENDBRANCH   9  10
ENDBRANCH   1   8
BRANCH   3  17
HETATM   17  C10 UNL     1      26.944   1.360  52.181  1.00  0.00     0.115 C 
HETATM   18  C11 UNL     1      26.546   2.478  51.232  1.00  0.00     0.034 C 
BRANCH  17  19
HETATM   19  C12 UNL     1      27.773   1.964  53.287  1.00  0.00     0.297 C 
BRANCH  19  20
HETATM   20  N2  UNL     1      28.921   1.197  53.624  1.00  0.00     0.090 N 
HETATM   21  C13 UNL     1      28.943   0.455  54.838  1.00  0.00     0.274 C 
HETATM   22  C14 UNL     1      29.707  -0.642  54.080  1.00  0.00     0.060 C 
HETATM   23  C15 UNL     1      29.000  -0.033  52.880  1.00  0.00     0.274 C 
ENDBRANCH  19  20
ENDBRANCH  17  19
ENDBRANCH   3  17
BRANCH   6  24
HETATM   24  N3  UNL     1      23.604  -1.756  55.888  1.00  0.00    -0.383 N 
HETATM   25  H23 UNL     1      22.645  -1.417  56.150  1.00  0.00     0.157 HD
HETATM   26  H24 UNL     1      23.731  -2.643  56.397  1.00  0.00     0.157 HD
ENDBRANCH   6  24
TORSDOF 8
ENDMDL
MODEL 3
REMARK VINA RESULT:      -7.1      4.012      8.803
REMARK  8 active torsions:
REMARK  status: ('A' for Active; 'I' for Inactive)
REMARK    1  A    between atoms: C3_3  and  O1_4 
REMARK    2  A    between atoms: C3_3  and  C4_5 
REMARK    3  A    between atoms: C5_6  and  C6_7 
REMARK    4  A    between atoms: C7_8  and  C8_9 
REMARK    5  A    between atoms: N1_11  and  C10_12 
REMARK    6  A    between atoms: C10_12  and  C12_14 
REMARK    7  A    between atoms: C12_14  and  N2_15 
REMARK    8  A    between atoms: C18_21  and  N3_22 
ROOT
HETATM    1  C8  UNL     1      22.627   0.802  52.884  1.00  0.00    -0.003 A 
HETATM    2  C9  UNL     1      23.875   0.214  52.920  1.00  0.00     0.105 A 
HETATM    3  N1  UNL     1      24.782   1.185  52.656  1.00  0.00    -0.334 N 
HETATM    4  C16 UNL     1      24.185   2.376  52.449  1.00  0.00     0.147 A 
HETATM    5  C17 UNL     1      22.832   2.149  52.590  1.00  0.00     0.067 A 
HETATM    6  C18 UNL     1      22.637   3.569  52.309  1.00  0.00     0.138 A 
HETATM    7  N4  UNL     1      23.919   3.748  52.183  1.00  0.00    -0.212 NA
ENDROOT
BRANCH   1   8
HETATM    8  C7  UNL     1      21.326   0.181  53.105  1.00  0.00     0.014 C 
HETATM    9  C6  UNL     1      20.345   0.358  52.250  1.00  0.00     0.001 C 
BRANCH   9  10
HETATM   10  C5  UNL     1      19.018  -0.255  52.442  1.00  0.00     0.003 C 
HETATM   11  C4  UNL     1      18.907  -1.406  53.123  1.00  0.00     0.036 C 
BRANCH  11  12
HETATM   12  C3  UNL     1      17.640  -2.084  53.362  1.00  0.00     0.061 C 
HETATM   13  C2  UNL     1      17.622  -3.420  53.515  1.00  0.00     0.005 C 
HETATM   14  C1  UNL     1      16.325  -4.113  53.759  1.00  0.00     0.038 C 
BRANCH  12  15
HETATM   15  O1  UNL     1      16.402  -1.487  53.454  1.00  0.00    -0.361 OA
HETATM   16  H5  UNL     1      16.113  -0.826  54.166  1.00  0.00     0.217 HD
ENDBRANCH  12  15
ENDBRANCH  11  12
ENDBRANCH   9  10
ENDBRANCH   1   8
BRANCH   3  17
HETATM   17  C10 UNL     1      26.202   0.888  52.617  1.00  0.00     0.115 C 
HETATM   18  C11 UNL     1      26.771   1.828  51.567  1.00  0.00     0.034 C 
BRANCH  17  19
HETATM   19  C12 UNL     1      26.875   1.197  53.930  1.00  0.00     0.297 C 
BRANCH  19  20
HETATM   20  N2  UNL     1      27.897   0.272  54.279  1.00  0.00     0.090 N 
HETATM   21  C13 UNL     1      28.214  -0.797  53.394  1.00  0.00     0.274 C 
HETATM   22  C14 UNL     1      29.686  -0.602  53.790  1.00  0.00     0.060 C 
HETATM   23  C15 UNL     1      29.218   0.813  54.087  1.00  0.00     0.274 C 
ENDBRANCH  19  20
ENDBRANCH  17  19
ENDBRANCH   3  17
BRANCH   6  24
HETATM   24  N3  UNL     1      21.503   4.407  52.213  1.00  0.00    -0.383 N 
HETATM   25  H23 UNL     1      21.109   4.667  51.275  1.00  0.00     0.157 HD
HETATM   26  H24 UNL     1      20.901   4.876  52.905  1.00  0.00     0.157 HD
ENDBRANCH   6  24
TORSDOF 8
ENDMDL
MODEL 4
REMARK VINA RESULT:      -7.1      4.531      6.122
REMARK  8 active torsions:
REMARK  status: ('A' for Active; 'I' for Inactive)
REMARK    1  A    between atoms: C3_3  and  O1_4 
REMARK    2  A    between atoms: C3_3  and  C4_5 
REMARK    3  A    between atoms: C5_6  and  C6_7 
REMARK    4  A    between atoms: C7_8  and  C8_9 
REMARK    5  A    between atoms: N1_11  and  C10_12 
REMARK    6  A    between atoms: C10_12  and  C12_14 
REMARK    7  A    between atoms: C12_14  and  N2_15 
REMARK    8  A    between atoms: C18_21  and  N3_22 
ROOT
HETATM    1  C8  UNL     1      23.295   2.053  51.522  1.00  0.00    -0.003 A 
HETATM    2  C9  UNL     1      22.300   1.643  50.657  1.00  0.00     0.105 A 
HETATM    3  N1  UNL     1      21.433   2.675  50.527  1.00  0.00    -0.334 N 
HETATM    4  C16 UNL     1      21.813   3.737  51.266  1.00  0.00     0.147 A 
HETATM    5  C17 UNL     1      22.981   3.360  51.895  1.00  0.00     0.067 A 
HETATM    6  C18 UNL     1      22.998   4.687  52.503  1.00  0.00     0.138 A 
HETATM    7  N4  UNL     1      21.895   5.011  51.893  1.00  0.00    -0.212 NA
ENDROOT
BRANCH   1   8
HETATM    8  C7  UNL     1      24.460   1.308  51.982  1.00  0.00     0.014 C 
HETATM    9  C6  UNL     1      24.346   0.397  52.922  1.00  0.00     0.001 C 
BRANCH   9  10
HETATM   10  C5  UNL     1      25.503  -0.374  53.410  1.00  0.00     0.003 C 
HETATM   11  C4  UNL     1      26.489  -0.708  52.562  1.00  0.00     0.036 C 
BRANCH  11  12
HETATM   12  C3  UNL     1      27.669  -1.467  52.954  1.00  0.00     0.061 C 
HETATM   13  C2  UNL     1      28.787  -0.814  53.315  1.00  0.00     0.005 C 
HETATM   14  C1  UNL     1      29.994  -1.591  53.715  1.00  0.00     0.038 C 
BRANCH  12  15
HETATM   15  O1  UNL     1      27.775  -2.840  52.999  1.00  0.00    -0.361 OA
HETATM   16  H5  UNL     1      28.479  -3.365  53.503  1.00  0.00     0.217 HD
ENDBRANCH  12  15
ENDBRANCH  11  12
ENDBRANCH   9  10
ENDBRANCH   1   8
BRANCH   3  17
HETATM   17  C10 UNL     1      20.261   2.561  49.678  1.00  0.00     0.115 C 
HETATM   18  C11 UNL     1      20.763   2.849  48.274  1.00  0.00     0.034 C 
BRANCH  17  19
HETATM   19  C12 UNL     1      19.695   1.164  49.691  1.00  0.00     0.297 C 
BRANCH  19  20
HETATM   20  N2  UNL     1      18.688   0.964  50.675  1.00  0.00     0.090 N 
HETATM   21  C13 UNL     1      17.567   0.138  50.381  1.00  0.00     0.274 C 
HETATM   22  C14 UNL     1      17.633  -0.359  51.834  1.00  0.00     0.060 C 
HETATM   23  C15 UNL     1      19.094   0.035  51.698  1.00  0.00     0.274 C 
ENDBRANCH  19  20
ENDBRANCH  17  19
ENDBRANCH   3  17
BRANCH   6  24
HETATM   24  N3  UNL     1      23.869   5.349  53.397  1.00  0.00    -0.383 N 
HETATM   25  H23 UNL     1      23.842   6.394  53.495  1.00  0.00     0.157 HD
HETATM   26  H24 UNL     1      24.603   5.030  54.047  1.00  0.00     0.157 HD
ENDBRANCH   6  24
TORSDOF 8
ENDMDL
MODEL 5
REMARK VINA RESULT:      -6.9      2.406      5.226
REMARK  8 active torsions:
REMARK  status: ('A' for Active; 'I' for Inactive)
REMARK    1  A    between atoms: C3_3  and  O1_4 
REMARK    2  A    between atoms: C3_3  and  C4_5 
REMARK    3  A    between atoms: C5_6  and  C6_7 
REMARK    4  A    between atoms: C7_8  and  C8_9 
REMARK    5  A    between atoms: N1_11  and  C10_12 
REMARK    6  A    between atoms: C10_12  and  C12_14 
REMARK    7  A    between atoms: C12_14  and  N2_15 
REMARK    8  A    between atoms: C18_21  and  N3_22 
ROOT
HETATM    1  C8  UNL     1      25.988   3.169  50.202  1.00  0.00    -0.003 A 
HETATM    2  C9  UNL     1      26.337   2.354  51.261  1.00  0.00     0.105 A 
HETATM    3  N1  UNL     1      25.194   1.802  51.734  1.00  0.00    -0.334 N 
HETATM    4  C16 UNL     1      24.118   2.218  51.036  1.00  0.00     0.147 A 
HETATM    5  C17 UNL     1      24.603   3.076  50.070  1.00  0.00     0.067 A 
HETATM    6  C18 UNL     1      23.222   3.240  49.624  1.00  0.00     0.138 A 
HETATM    7  N4  UNL     1      22.798   2.425  50.546  1.00  0.00    -0.212 NA
ENDROOT
BRANCH   1   8
HETATM    8  C7  UNL     1      26.857   3.982  49.359  1.00  0.00     0.014 C 
HETATM    9  C6  UNL     1      26.568   5.239  49.114  1.00  0.00     0.001 C 
BRANCH   9  10
HETATM   10  C5  UNL     1      27.424   6.088  48.267  1.00  0.00     0.003 C 
HETATM   11  C4  UNL     1      28.751   5.890  48.247  1.00  0.00     0.036 C 
BRANCH  11  12
HETATM   12  C3  UNL     1      29.675   6.679  47.443  1.00  0.00     0.061 C 
HETATM   13  C2  UNL     1      29.211   7.726  46.739  1.00  0.00     0.005 C 
HETATM   14  C1  UNL     1      30.156   8.533  45.915  1.00  0.00     0.038 C 
BRANCH  12  15
HETATM   15  O1  UNL     1      31.029   6.465  47.315  1.00  0.00    -0.361 OA
HETATM   16  H5  UNL     1      31.725   7.172  47.110  1.00  0.00     0.217 HD
ENDBRANCH  12  15
ENDBRANCH  11  12
ENDBRANCH   9  10
ENDBRANCH   1   8
BRANCH   3  17
HETATM   17  C10 UNL     1      25.219   0.888  52.860  1.00  0.00     0.115 C 
HETATM   18  C11 UNL     1      23.785   0.406  53.007  1.00  0.00     0.034 C 
BRANCH  17  19
HETATM   19  C12 UNL     1      26.087  -0.314  52.588  1.00  0.00     0.297 C 
BRANCH  19  20
HETATM   20  N2  UNL     1      27.016  -0.595  53.627  1.00  0.00     0.090 N 
HETATM   21  C13 UNL     1      28.412  -0.485  53.374  1.00  0.00     0.274 C 
HETATM   22  C14 UNL     1      28.561   0.071  54.799  1.00  0.00     0.060 C 
HETATM   23  C15 UNL     1      27.112   0.477  54.584  1.00  0.00     0.274 C 
ENDBRANCH  19  20
ENDBRANCH  17  19
ENDBRANCH   3  17
BRANCH   6  24
HETATM   24  N3  UNL     1      22.602   3.989  48.599  1.00  0.00    -0.383 N 
HETATM   25  H23 UNL     1      21.562   4.135  48.599  1.00  0.00     0.157 HD
HETATM   26  H24 UNL     1      22.950   4.479  47.762  1.00  0.00     0.157 HD
ENDBRANCH   6  24
TORSDOF 8
ENDMDL
MODEL 6
REMARK VINA RESULT:      -6.9      2.498      5.319
REMARK  8 active torsions:
REMARK  status: ('A' for Active; 'I' for Inactive)
REMARK    1  A    between atoms: C3_3  and  O1_4 
REMARK    2  A    between atoms: C3_3  and  C4_5 
REMARK    3  A    between atoms: C5_6  and  C6_7 
REMARK    4  A    between atoms: C7_8  and  C8_9 
REMARK    5  A    between atoms: N1_11  and  C10_12 
REMARK    6  A    between atoms: C10_12  and  C12_14 
REMARK    7  A    between atoms: C12_14  and  N2_15 
REMARK    8  A    between atoms: C18_21  and  N3_22 
ROOT
HETATM    1  C8  UNL     1      26.181   2.840  50.525  1.00  0.00    -0.003 A 
HETATM    2  C9  UNL     1      26.752   2.004  51.464  1.00  0.00     0.105 A 
HETATM    3  N1  UNL     1      25.743   1.322  52.058  1.00  0.00    -0.334 N 
HETATM    4  C16 UNL     1      24.543   1.675  51.553  1.00  0.00     0.147 A 
HETATM    5  C17 UNL     1      24.805   2.626  50.589  1.00  0.00     0.067 A 
HETATM    6  C18 UNL     1      23.364   2.687  50.359  1.00  0.00     0.138 A 
HETATM    7  N4  UNL     1      23.153   1.786  51.274  1.00  0.00    -0.212 NA
ENDROOT
BRANCH   1   8
HETATM    8  C7  UNL     1      26.843   3.776  49.623  1.00  0.00     0.014 C 
HETATM    9  C6  UNL     1      26.307   4.945  49.359  1.00  0.00     0.001 C 
BRANCH   9  10
HETATM   10  C5  UNL     1      26.949   5.914  48.453  1.00  0.00     0.003 C 
HETATM   11  C4  UNL     1      28.286   5.930  48.330  1.00  0.00     0.036 C 
BRANCH  11  12
HETATM   12  C3  UNL     1      29.007   6.850  47.461  1.00  0.00     0.061 C 
HETATM   13  C2  UNL     1      28.345   7.862  46.873  1.00  0.00     0.005 C 
HETATM   14  C1  UNL     1      29.083   8.802  45.983  1.00  0.00     0.038 C 
BRANCH  12  15
HETATM   15  O1  UNL     1      30.349   6.799  47.158  1.00  0.00    -0.361 OA
HETATM   16  H5  UNL     1      30.746   6.611  46.245  1.00  0.00     0.217 HD
ENDBRANCH  12  15
ENDBRANCH  11  12
ENDBRANCH   9  10
ENDBRANCH   1   8
BRANCH   3  17
HETATM   17  C10 UNL     1      26.012   0.354  53.104  1.00  0.00     0.115 C 
HETATM   18  C11 UNL     1      24.668  -0.289  53.400  1.00  0.00     0.034 C 
BRANCH  17  19
HETATM   19  C12 UNL     1      26.952  -0.729  52.636  1.00  0.00     0.297 C 
BRANCH  19  20
HETATM   20  N2  UNL     1      28.044  -0.957  53.518  1.00  0.00     0.090 N 
HETATM   21  C13 UNL     1      29.095  -1.834  53.127  1.00  0.00     0.274 C 
HETATM   22  C14 UNL     1      30.070  -0.874  53.828  1.00  0.00     0.060 C 
HETATM   23  C15 UNL     1      28.977   0.141  53.535  1.00  0.00     0.274 C 
ENDBRANCH  19  20
ENDBRANCH  17  19
ENDBRANCH   3  17
BRANCH   6  24
HETATM   24  N3  UNL     1      22.536   3.430  49.488  1.00  0.00    -0.383 N 
HETATM   25  H23 UNL     1      22.201   3.013  48.584  1.00  0.00     0.157 HD
HETATM   26  H24 UNL     1      22.137   4.379  49.520  1.00  0.00     0.157 HD
ENDBRANCH   6  24
TORSDOF 8
ENDMDL
MODEL 7
REMARK VINA RESULT:      -6.9      4.021      8.385
REMARK  8 active torsions:
REMARK  status: ('A' for Active; 'I' for Inactive)
REMARK    1  A    between atoms: C3_3  and  O1_4 
REMARK    2  A    between atoms: C3_3  and  C4_5 
REMARK    3  A    between atoms: C5_6  and  C6_7 
REMARK    4  A    between atoms: C7_8  and  C8_9 
REMARK    5  A    between atoms: N1_11  and  C10_12 
REMARK    6  A    between atoms: C10_12  and  C12_14 
REMARK    7  A    between atoms: C12_14  and  N2_15 
REMARK    8  A    between atoms: C18_21  and  N3_22 
ROOT
HETATM    1  C8  UNL     1      23.534   0.950  52.361  1.00  0.00    -0.003 A 
HETATM    2  C9  UNL     1      24.730   0.478  52.862  1.00  0.00     0.105 A 
HETATM    3  N1  UNL     1      25.703   1.316  52.428  1.00  0.00    -0.334 N 
HETATM    4  C16 UNL     1      25.198   2.309  51.669  1.00  0.00     0.147 A 
HETATM    5  C17 UNL     1      23.837   2.091  51.619  1.00  0.00     0.067 A 
HETATM    6  C18 UNL     1      23.748   3.285  50.784  1.00  0.00     0.138 A 
HETATM    7  N4  UNL     1      25.035   3.462  50.852  1.00  0.00    -0.212 NA
ENDROOT
BRANCH   1   8
HETATM    8  C7  UNL     1      22.195   0.400  52.543  1.00  0.00     0.014 C 
HETATM    9  C6  UNL     1      21.842  -0.140  53.687  1.00  0.00     0.001 C 
BRANCH   9  10
HETATM   10  C5  UNL     1      20.498  -0.703  53.905  1.00  0.00     0.003 C 
HETATM   11  C4  UNL     1      19.545  -0.539  52.974  1.00  0.00     0.036 C 
BRANCH  11  12
HETATM   12  C3  UNL     1      18.191  -1.059  53.102  1.00  0.00     0.061 C 
HETATM   13  C2  UNL     1      17.290  -0.805  52.138  1.00  0.00     0.005 C 
HETATM   14  C1  UNL     1      15.903  -1.337  52.270  1.00  0.00     0.038 C 
BRANCH  12  15
HETATM   15  O1  UNL     1      17.706  -1.817  54.145  1.00  0.00    -0.361 OA
HETATM   16  H5  UNL     1      17.547  -1.492  55.091  1.00  0.00     0.217 HD
ENDBRANCH  12  15
ENDBRANCH  11  12
ENDBRANCH   9  10
ENDBRANCH   1   8
BRANCH   3  17
HETATM   17  C10 UNL     1      27.091   1.092  52.783  1.00  0.00     0.115 C 
HETATM   18  C11 UNL     1      27.723   2.474  52.793  1.00  0.00     0.034 C 
BRANCH  17  19
HETATM   19  C12 UNL     1      27.229   0.510  54.168  1.00  0.00     0.297 C 
BRANCH  19  20
HETATM   20  N2  UNL     1      28.087  -0.622  54.229  1.00  0.00     0.090 N 
HETATM   21  C13 UNL     1      28.259  -1.440  53.076  1.00  0.00     0.274 C 
HETATM   22  C14 UNL     1      29.733  -1.593  53.484  1.00  0.00     0.060 C 
HETATM   23  C15 UNL     1      29.480  -0.261  54.171  1.00  0.00     0.274 C 
ENDBRANCH  19  20
ENDBRANCH  17  19
ENDBRANCH   3  17
BRANCH   6  24
HETATM   24  N3  UNL     1      22.684   3.970  50.155  1.00  0.00    -0.383 N 
HETATM   25  H23 UNL     1      21.827   3.452  49.840  1.00  0.00     0.157 HD
HETATM   26  H24 UNL     1      22.520   4.956  49.902  1.00  0.00     0.157 HD
ENDBRANCH   6  24
TORSDOF 8
ENDMDL
MODEL 8
REMARK VINA RESULT:      -6.8      2.387      4.925
REMARK  8 active torsions:
REMARK  status: ('A' for Active; 'I' for Inactive)
REMARK    1  A    between atoms: C3_3  and  O1_4 
REMARK    2  A    between atoms: C3_3  and  C4_5 
REMARK    3  A    between atoms: C5_6  and  C6_7 
REMARK    4  A    between atoms: C7_8  and  C8_9 
REMARK    5  A    between atoms: N1_11  and  C10_12 
REMARK    6  A    between atoms: C10_12  and  C12_14 
REMARK    7  A    between atoms: C12_14  and  N2_15 
REMARK    8  A    between atoms: C18_21  and  N3_22 
ROOT
HETATM    1  C8  UNL     1      24.754   3.612  49.998  1.00  0.00    -0.003 A 
HETATM    2  C9  UNL     1      24.818   3.168  51.304  1.00  0.00     0.105 A 
HETATM    3  N1  UNL     1      23.790   2.305  51.484  1.00  0.00    -0.334 N 
HETATM    4  C16 UNL     1      23.059   2.165  50.359  1.00  0.00     0.147 A 
HETATM    5  C17 UNL     1      23.654   2.980  49.419  1.00  0.00     0.067 A 
HETATM    6  C18 UNL     1      22.624   2.536  48.485  1.00  0.00     0.138 A 
HETATM    7  N4  UNL     1      22.087   1.776  49.396  1.00  0.00    -0.212 NA
ENDROOT
BRANCH   1   8
HETATM    8  C7  UNL     1      25.637   4.550  49.315  1.00  0.00     0.014 C 
HETATM    9  C6  UNL     1      26.918   4.293  49.185  1.00  0.00     0.001 C 
BRANCH   9  10
HETATM   10  C5  UNL     1      27.838   5.219  48.500  1.00  0.00     0.003 C 
HETATM   11  C4  UNL     1      27.442   6.471  48.225  1.00  0.00     0.036 C 
BRANCH  11  12
HETATM   12  C3  UNL     1      28.280   7.455  47.553  1.00  0.00     0.061 C 
HETATM   13  C2  UNL     1      29.490   7.090  47.094  1.00  0.00     0.005 C 
HETATM   14  C1  UNL     1      30.348   8.097  46.407  1.00  0.00     0.038 C 
BRANCH  12  15
HETATM   15  O1  UNL     1      27.961   8.775  47.324  1.00  0.00    -0.361 OA
HETATM   16  H5  UNL     1      27.208   9.110  46.735  1.00  0.00     0.217 HD
ENDBRANCH  12  15
ENDBRANCH  11  12
ENDBRANCH   9  10
ENDBRANCH   1   8
BRANCH   3  17
HETATM   17  C10 UNL     1      23.574   1.659  52.765  1.00  0.00     0.115 C 
HETATM   18  C11 UNL     1      22.722   0.441  52.453  1.00  0.00     0.034 C 
BRANCH  17  19
HETATM   19  C12 UNL     1      24.867   1.177  53.373  1.00  0.00     0.297 C 
BRANCH  19  20
HETATM   20  N2  UNL     1      25.346  -0.037  52.808  1.00  0.00     0.090 N 
HETATM   21  C13 UNL     1      26.561  -0.040  52.067  1.00  0.00     0.274 C 
HETATM   22  C14 UNL     1      26.861  -1.414  52.685  1.00  0.00     0.060 C 
HETATM   23  C15 UNL     1      25.953  -0.900  53.790  1.00  0.00     0.274 C 
ENDBRANCH  19  20
ENDBRANCH  17  19
ENDBRANCH   3  17
BRANCH   6  24
HETATM   24  N3  UNL     1      22.331   2.821  47.132  1.00  0.00    -0.383 N 
HETATM   25  H23 UNL     1      21.349   2.742  46.770  1.00  0.00     0.157 HD
HETATM   26  H24 UNL     1      22.901   3.118  46.326  1.00  0.00     0.157 HD
ENDBRANCH   6  24
TORSDOF 8
ENDMDL
MODEL 9
REMARK VINA RESULT:      -6.7      3.650      8.034
REMARK  8 active torsions:
REMARK  status: ('A' for Active; 'I' for Inactive)
REMARK    1  A    between atoms: C3_3  and  O1_4 
REMARK    2  A    between atoms: C3_3  and  C4_5 
REMARK    3  A    between atoms: C5_6  and  C6_7 
REMARK    4  A    between atoms: C7_8  and  C8_9 
REMARK    5  A    between atoms: N1_11  and  C10_12 
REMARK    6  A    between atoms: C10_12  and  C12_14 
REMARK    7  A    between atoms: C12_14  and  N2_15 
REMARK    8  A    between atoms: C18_21  and  N3_22 
ROOT
HETATM    1  C8  UNL     1      23.266   1.390  52.000  1.00  0.00    -0.003 A 
HETATM    2  C9  UNL     1      23.540   2.460  51.173  1.00  0.00     0.105 A 
HETATM    3  N1  UNL     1      24.876   2.676  51.227  1.00  0.00    -0.334 N 
HETATM    4  C16 UNL     1      25.486   1.798  52.050  1.00  0.00     0.147 A 
HETATM    5  C17 UNL     1      24.486   0.984  52.541  1.00  0.00     0.067 A 
HETATM    6  C18 UNL     1      25.524   0.283  53.291  1.00  0.00     0.138 A 
HETATM    7  N4  UNL     1      26.442   1.068  52.808  1.00  0.00    -0.212 NA
ENDROOT
BRANCH   1   8
HETATM    8  C7  UNL     1      21.977   0.769  52.283  1.00  0.00     0.014 C 
HETATM    9  C6  UNL     1      21.723   0.260  53.467  1.00  0.00     0.001 C 
BRANCH   9  10
HETATM   10  C5  UNL     1      20.432  -0.374  53.786  1.00  0.00     0.003 C 
HETATM   11  C4  UNL     1      19.482  -0.467  52.842  1.00  0.00     0.036 C 
BRANCH  11  12
HETATM   12  C3  UNL     1      18.177  -1.076  53.066  1.00  0.00     0.061 C 
HETATM   13  C2  UNL     1      17.177  -0.835  52.200  1.00  0.00     0.005 C 
HETATM   14  C1  UNL     1      15.843  -1.458  52.430  1.00  0.00     0.038 C 
BRANCH  12  15
HETATM   15  O1  UNL     1      17.836  -1.909  54.109  1.00  0.00    -0.361 OA
HETATM   16  H5  UNL     1      17.390  -1.625  54.973  1.00  0.00     0.217 HD
ENDBRANCH  12  15
ENDBRANCH  11  12
ENDBRANCH   9  10
ENDBRANCH   1   8
BRANCH   3  17
HETATM   17  C10 UNL     1      25.489   3.746  50.464  1.00  0.00     0.115 C 
HETATM   18  C11 UNL     1      26.592   3.075  49.662  1.00  0.00     0.034 C 
BRANCH  17  19
HETATM   19  C12 UNL     1      24.519   4.367  49.490  1.00  0.00     0.297 C 
BRANCH  19  20
HETATM   20  N2  UNL     1      24.309   5.757  49.701  1.00  0.00     0.090 N 
HETATM   21  C13 UNL     1      24.209   6.262  51.029  1.00  0.00     0.274 C 
HETATM   22  C14 UNL     1      24.975   7.503  50.545  1.00  0.00     0.060 C 
HETATM   23  C15 UNL     1      25.507   6.532  49.505  1.00  0.00     0.274 C 
ENDBRANCH  19  20
ENDBRANCH  17  19
ENDBRANCH   3  17
BRANCH   6  24
HETATM   24  N3  UNL     1      25.523  -0.812  54.185  1.00  0.00    -0.383 N 
HETATM   25  H23 UNL     1      26.371  -1.422  54.282  1.00  0.00     0.157 HD
HETATM   26  H24 UNL     1      24.824  -1.203  54.834  1.00  0.00     0.157 HD
ENDBRANCH   6  24
TORSDOF 8
ENDMDL
