MODEL 1
REMARK VINA RESULT:      -8.5      0.000      0.000
REMARK  2 active torsions:
REMARK  status: ('A' for Active; 'I' for Inactive)
REMARK    1  A    between atoms: C11_12  and  C12_13 
REMARK    2  A    between atoms: C12_13  and  C13_14 
ROOT
HETATM    1  C1  UNL     1      22.180   1.274  50.721  1.00  0.00     0.048 C 
HETATM    2  C2  UNL     1      21.832   0.591  51.970  1.00  0.00    -0.029 A 
HETATM    3  C3  UNL     1      20.587   0.173  52.171  1.00  0.00    -0.001 A 
HETATM    4  C4  UNL     1      19.346   0.208  51.421  1.00  0.00     0.129 A 
HETATM    5  N1  UNL     1      18.426  -0.370  52.138  1.00  0.00    -0.271 NA
HETATM    6  C5  UNL     1      18.995  -0.809  53.370  1.00  0.00     0.128 A 
HETATM    7  C6  UNL     1      20.269  -0.505  53.422  1.00  0.00    -0.007 A 
HETATM    8  C7  UNL     1      21.280  -0.726  54.438  1.00  0.00     0.013 A 
HETATM    9  C8  UNL     1      22.494  -0.277  54.150  1.00  0.00     0.021 A 
HETATM   10  C9  UNL     1      22.952   0.425  52.927  1.00  0.00     0.130 A 
HETATM   11  C10 UNL     1      23.865   1.522  53.090  1.00  0.00     0.052 A 
HETATM   12  C11 UNL     1      24.831   0.839  52.523  1.00  0.00     0.049 A 
HETATM   13  O1  UNL     1      24.007  -0.248  52.337  1.00  0.00    -0.332 OA
ENDROOT
BRANCH  12  14
HETATM   14  C12 UNL     1      26.246   0.943  52.136  1.00  0.00     0.076 C 
BRANCH  14  15
HETATM   15  C13 UNL     1      27.156   0.345  53.164  1.00  0.00     0.036 C 
HETATM   16  C14 UNL     1      28.368   1.137  53.398  1.00  0.00    -0.022 C 
HETATM   17  C15 UNL     1      29.535   0.562  53.677  1.00  0.00    -0.026 C 
HETATM   18  C16 UNL     1      29.766  -0.906  53.787  1.00  0.00     0.053 C 
HETATM   19  C17 UNL     1      28.611  -1.630  53.143  1.00  0.00    -0.026 C 
HETATM   20  C18 UNL     1      27.425  -1.066  52.858  1.00  0.00    -0.022 C 
ENDBRANCH  14  15
ENDBRANCH  12  14
TORSDOF 2
ENDMDL
MODEL 2
REMARK VINA RESULT:      -8.3      3.159      7.098
REMARK  2 active torsions:
REMARK  status: ('A' for Active; 'I' for Inactive)
REMARK    1  A    between atoms: C11_12  and  C12_13 
REMARK    2  A    between atoms: C12_13  and  C13_14 
ROOT
HETATM    1  C1  UNL     1      28.231   2.292  53.409  1.00  0.00     0.048 C 
HETATM    2  C2  UNL     1      27.867   0.891  53.183  1.00  0.00    -0.029 A 
HETATM    3  C3  UNL     1      28.761  -0.068  53.402  1.00  0.00    -0.001 A 
HETATM    4  C4  UNL     1      30.139  -0.121  53.850  1.00  0.00     0.129 A 
HETATM    5  N1  UNL     1      30.507  -1.369  53.874  1.00  0.00    -0.271 NA
HETATM    6  C5  UNL     1      29.418  -2.190  53.456  1.00  0.00     0.128 A 
HETATM    7  C6  UNL     1      28.371  -1.454  53.169  1.00  0.00    -0.007 A 
HETATM    8  C7  UNL     1      27.039  -1.796  52.707  1.00  0.00     0.013 A 
HETATM    9  C8  UNL     1      26.216  -0.775  52.517  1.00  0.00     0.021 A 
HETATM   10  C9  UNL     1      26.479   0.671  52.713  1.00  0.00     0.130 A 
HETATM   11  C10 UNL     1      25.947   1.583  51.738  1.00  0.00     0.052 A 
HETATM   12  C11 UNL     1      25.103   2.072  52.615  1.00  0.00     0.049 A 
HETATM   13  O1  UNL     1      25.568   1.225  53.594  1.00  0.00    -0.332 OA
ENDROOT
BRANCH  12  14
HETATM   14  C12 UNL     1      24.035   3.074  52.755  1.00  0.00     0.076 C 
BRANCH  14  15
HETATM   15  C13 UNL     1      22.731   2.586  52.206  1.00  0.00     0.036 C 
HETATM   16  C14 UNL     1      22.343   1.266  52.715  1.00  0.00    -0.022 C 
HETATM   17  C15 UNL     1      21.695   0.386  51.957  1.00  0.00    -0.026 C 
HETATM   18  C16 UNL     1      21.288   0.608  50.540  1.00  0.00     0.053 C 
HETATM   19  C17 UNL     1      22.065   1.775  49.987  1.00  0.00    -0.026 C 
HETATM   20  C18 UNL     1      22.721   2.675  50.740  1.00  0.00    -0.022 C 
ENDBRANCH  14  15
ENDBRANCH  12  14
TORSDOF 2
ENDMDL
MODEL 3
REMARK VINA RESULT:      -8.3      3.452      4.818
REMARK  2 active torsions:
REMARK  status: ('A' for Active; 'I' for Inactive)
REMARK    1  A    between atoms: C11_12  and  C12_13 
REMARK    2  A    between atoms: C12_13  and  C13_14 
ROOT
HETATM    1  C1  UNL     1      21.209   1.819  52.109  1.00  0.00     0.048 C 
HETATM    2  C2  UNL     1      22.351   1.120  52.704  1.00  0.00    -0.029 A 
HETATM    3  C3  UNL     1      22.145   0.135  53.572  1.00  0.00    -0.001 A 
HETATM    4  C4  UNL     1      20.984  -0.509  54.154  1.00  0.00     0.129 A 
HETATM    5  N1  UNL     1      21.403  -1.439  54.964  1.00  0.00    -0.271 NA
HETATM    6  C5  UNL     1      22.829  -1.460  54.959  1.00  0.00     0.128 A 
HETATM    7  C6  UNL     1      23.299  -0.543  54.148  1.00  0.00    -0.007 A 
HETATM    8  C7  UNL     1      24.653  -0.162  53.794  1.00  0.00     0.013 A 
HETATM    9  C8  UNL     1      24.762   0.829  52.920  1.00  0.00     0.021 A 
HETATM   10  C9  UNL     1      23.681   1.601  52.261  1.00  0.00     0.130 A 
HETATM   11  C10 UNL     1      23.869   3.018  52.113  1.00  0.00     0.052 A 
HETATM   12  C11 UNL     1      23.969   2.897  50.811  1.00  0.00     0.049 A 
HETATM   13  O1  UNL     1      23.794   1.534  50.884  1.00  0.00    -0.332 OA
ENDROOT
BRANCH  12  14
HETATM   14  C12 UNL     1      24.175   3.691  49.590  1.00  0.00     0.076 C 
BRANCH  14  15
HETATM   15  C13 UNL     1      25.327   4.637  49.722  1.00  0.00     0.036 C 
HETATM   16  C14 UNL     1      25.114   5.914  49.033  1.00  0.00    -0.022 C 
HETATM   17  C15 UNL     1      26.113   6.567  48.445  1.00  0.00    -0.026 C 
HETATM   18  C16 UNL     1      27.532   6.112  48.407  1.00  0.00     0.053 C 
HETATM   19  C17 UNL     1      27.584   4.647  48.758  1.00  0.00    -0.026 C 
HETATM   20  C18 UNL     1      26.585   3.974  49.355  1.00  0.00    -0.022 C 
ENDBRANCH  14  15
ENDBRANCH  12  14
TORSDOF 2
ENDMDL
MODEL 4
REMARK VINA RESULT:      -8.3      3.496      5.229
REMARK  2 active torsions:
REMARK  status: ('A' for Active; 'I' for Inactive)
REMARK    1  A    between atoms: C11_12  and  C12_13 
REMARK    2  A    between atoms: C12_13  and  C13_14 
ROOT
HETATM    1  C1  UNL     1      26.868   2.421  51.430  1.00  0.00     0.048 C 
HETATM    2  C2  UNL     1      25.645   3.124  51.032  1.00  0.00    -0.029 A 
HETATM    3  C3  UNL     1      25.702   4.076  50.107  1.00  0.00    -0.001 A 
HETATM    4  C4  UNL     1      26.744   4.676  49.297  1.00  0.00     0.129 A 
HETATM    5  N1  UNL     1      26.196   5.588  48.547  1.00  0.00    -0.271 NA
HETATM    6  C5  UNL     1      24.796   5.638  48.813  1.00  0.00     0.128 A 
HETATM    7  C6  UNL     1      24.471   4.759  49.729  1.00  0.00    -0.007 A 
HETATM    8  C7  UNL     1      23.200   4.418  50.341  1.00  0.00     0.013 A 
HETATM    9  C8  UNL     1      23.240   3.456  51.252  1.00  0.00     0.021 A 
HETATM   10  C9  UNL     1      24.414   2.685  51.729  1.00  0.00     0.130 A 
HETATM   11  C10 UNL     1      24.500   2.404  53.135  1.00  0.00     0.052 A 
HETATM   12  C11 UNL     1      24.306   1.125  52.921  1.00  0.00     0.049 A 
HETATM   13  O1  UNL     1      24.213   1.326  51.563  1.00  0.00    -0.332 OA
ENDROOT
BRANCH  12  14
HETATM   14  C12 UNL     1      24.193  -0.160  53.628  1.00  0.00     0.076 C 
BRANCH  14  15
HETATM   15  C13 UNL     1      25.533  -0.724  53.986  1.00  0.00     0.036 C 
HETATM   16  C14 UNL     1      26.310   0.145  54.877  1.00  0.00    -0.022 C 
HETATM   17  C15 UNL     1      27.634   0.235  54.787  1.00  0.00    -0.026 C 
HETATM   18  C16 UNL     1      28.481  -0.505  53.807  1.00  0.00     0.053 C 
HETATM   19  C17 UNL     1      27.601  -1.028  52.701  1.00  0.00    -0.026 C 
HETATM   20  C18 UNL     1      26.263  -1.129  52.778  1.00  0.00    -0.022 C 
ENDBRANCH  14  15
ENDBRANCH  12  14
TORSDOF 2
ENDMDL
MODEL 5
REMARK VINA RESULT:      -8.3      2.897      6.714
REMARK  2 active torsions:
REMARK  status: ('A' for Active; 'I' for Inactive)
REMARK    1  A    between atoms: C11_12  and  C12_13 
REMARK    2  A    between atoms: C12_13  and  C13_14 
ROOT
HETATM    1  C1  UNL     1      25.023  -0.519  52.708  1.00  0.00     0.048 C 
HETATM    2  C2  UNL     1      26.373  -0.018  52.983  1.00  0.00    -0.029 A 
HETATM    3  C3  UNL     1      27.386  -0.872  53.090  1.00  0.00    -0.001 A 
HETATM    4  C4  UNL     1      27.546  -2.310  53.001  1.00  0.00     0.129 A 
HETATM    5  N1  UNL     1      28.802  -2.589  53.197  1.00  0.00    -0.271 NA
HETATM    6  C5  UNL     1      29.524  -1.379  53.419  1.00  0.00     0.128 A 
HETATM    7  C6  UNL     1      28.718  -0.346  53.363  1.00  0.00    -0.007 A 
HETATM    8  C7  UNL     1      28.950   1.077  53.518  1.00  0.00     0.013 A 
HETATM    9  C8  UNL     1      27.882   1.852  53.394  1.00  0.00     0.021 A 
HETATM   10  C9  UNL     1      26.480   1.453  53.120  1.00  0.00     0.130 A 
HETATM   11  C10 UNL     1      25.440   2.140  53.834  1.00  0.00     0.052 A 
HETATM   12  C11 UNL     1      25.023   2.715  52.732  1.00  0.00     0.049 A 
HETATM   13  O1  UNL     1      25.997   2.088  51.989  1.00  0.00    -0.332 OA
ENDROOT
BRANCH  12  14
HETATM   14  C12 UNL     1      24.003   3.649  52.231  1.00  0.00     0.076 C 
BRANCH  14  15
HETATM   15  C13 UNL     1      22.741   2.945  51.839  1.00  0.00     0.036 C 
HETATM   16  C14 UNL     1      22.296   1.957  52.828  1.00  0.00    -0.022 C 
HETATM   17  C15 UNL     1      21.700   0.824  52.466  1.00  0.00    -0.026 C 
HETATM   18  C16 UNL     1      21.413   0.415  51.062  1.00  0.00     0.053 C 
HETATM   19  C17 UNL     1      22.248   1.255  50.129  1.00  0.00    -0.026 C 
HETATM   20  C18 UNL     1      22.852   2.404  50.478  1.00  0.00    -0.022 C 
ENDBRANCH  14  15
ENDBRANCH  12  14
TORSDOF 2
ENDMDL
MODEL 6
REMARK VINA RESULT:      -8.1      1.736      2.832
REMARK  2 active torsions:
REMARK  status: ('A' for Active; 'I' for Inactive)
REMARK    1  A    between atoms: C11_12  and  C12_13 
REMARK    2  A    between atoms: C12_13  and  C13_14 
ROOT
HETATM    1  C1  UNL     1      23.867   0.112  53.078  1.00  0.00     0.048 C 
HETATM    2  C2  UNL     1      23.417   1.459  52.718  1.00  0.00    -0.029 A 
HETATM    3  C3  UNL     1      22.117   1.726  52.650  1.00  0.00    -0.001 A 
HETATM    4  C4  UNL     1      20.891   0.979  52.854  1.00  0.00     0.129 A 
HETATM    5  N1  UNL     1      19.889   1.782  52.641  1.00  0.00    -0.271 NA
HETATM    6  C5  UNL     1      20.386   3.073  52.295  1.00  0.00     0.128 A 
HETATM    7  C6  UNL     1      21.697   3.075  52.290  1.00  0.00    -0.007 A 
HETATM    8  C7  UNL     1      22.666   4.117  52.008  1.00  0.00     0.013 A 
HETATM    9  C8  UNL     1      23.939   3.759  52.102  1.00  0.00     0.021 A 
HETATM   10  C9  UNL     1      24.502   2.433  52.455  1.00  0.00     0.130 A 
HETATM   11  C10 UNL     1      25.650   1.979  51.720  1.00  0.00     0.052 A 
HETATM   12  C11 UNL     1      26.409   2.090  52.782  1.00  0.00     0.049 A 
HETATM   13  O1  UNL     1      25.351   2.530  53.543  1.00  0.00    -0.332 OA
ENDROOT
BRANCH  12  14
HETATM   14  C12 UNL     1      27.796   1.896  53.237  1.00  0.00     0.076 C 
BRANCH  14  15
HETATM   15  C13 UNL     1      28.032   0.508  53.745  1.00  0.00     0.036 C 
HETATM   16  C14 UNL     1      29.453   0.172  53.880  1.00  0.00    -0.022 C 
HETATM   17  C15 UNL     1      29.907  -1.056  53.644  1.00  0.00    -0.026 C 
HETATM   18  C16 UNL     1      29.070  -2.216  53.226  1.00  0.00     0.053 C 
HETATM   19  C17 UNL     1      27.745  -1.704  52.722  1.00  0.00    -0.026 C 
HETATM   20  C18 UNL     1      27.270  -0.468  52.955  1.00  0.00    -0.022 C 
ENDBRANCH  14  15
ENDBRANCH  12  14
TORSDOF 2
ENDMDL
MODEL 7
REMARK VINA RESULT:      -8.1      4.271      5.856
REMARK  2 active torsions:
REMARK  status: ('A' for Active; 'I' for Inactive)
REMARK    1  A    between atoms: C11_12  and  C12_13 
REMARK    2  A    between atoms: C12_13  and  C13_14 
ROOT
HETATM    1  C1  UNL     1      26.651   1.936  51.323  1.00  0.00     0.048 C 
HETATM    2  C2  UNL     1      25.349   1.553  51.875  1.00  0.00    -0.029 A 
HETATM    3  C3  UNL     1      25.279   0.619  52.818  1.00  0.00    -0.001 A 
HETATM    4  C4  UNL     1      26.231  -0.215  53.526  1.00  0.00     0.129 A 
HETATM    5  N1  UNL     1      25.569  -0.963  54.360  1.00  0.00    -0.271 NA
HETATM    6  C5  UNL     1      24.177  -0.671  54.252  1.00  0.00     0.128 A 
HETATM    7  C6  UNL     1      23.971   0.258  53.351  1.00  0.00    -0.007 A 
HETATM    8  C7  UNL     1      22.759   0.896  52.873  1.00  0.00     0.013 A 
HETATM    9  C8  UNL     1      22.926   1.817  51.933  1.00  0.00     0.021 A 
HETATM   10  C9  UNL     1      24.188   2.277  51.306  1.00  0.00     0.130 A 
HETATM   11  C10 UNL     1      24.178   2.523  49.890  1.00  0.00     0.052 A 
HETATM   12  C11 UNL     1      24.324   3.812  50.085  1.00  0.00     0.049 A 
HETATM   13  O1  UNL     1      24.342   3.645  51.450  1.00  0.00    -0.332 OA
ENDROOT
BRANCH  12  14
HETATM   14  C12 UNL     1      24.445   5.084  49.355  1.00  0.00     0.076 C 
BRANCH  14  15
HETATM   15  C13 UNL     1      25.829   5.650  49.439  1.00  0.00     0.036 C 
HETATM   16  C14 UNL     1      26.001   6.881  48.660  1.00  0.00    -0.022 C 
HETATM   17  C15 UNL     1      27.146   7.164  48.044  1.00  0.00    -0.026 C 
HETATM   18  C16 UNL     1      28.364   6.305  48.056  1.00  0.00     0.053 C 
HETATM   19  C17 UNL     1      27.979   4.920  48.507  1.00  0.00    -0.026 C 
HETATM   20  C18 UNL     1      26.829   4.618  49.135  1.00  0.00    -0.022 C 
ENDBRANCH  14  15
ENDBRANCH  12  14
TORSDOF 2
ENDMDL
MODEL 8
REMARK VINA RESULT:      -7.8      2.583      7.534
REMARK  2 active torsions:
REMARK  status: ('A' for Active; 'I' for Inactive)
REMARK    1  A    between atoms: C11_12  and  C12_13 
REMARK    2  A    between atoms: C12_13  and  C13_14 
ROOT
HETATM    1  C1  UNL     1      21.793  -1.097  54.359  1.00  0.00     0.048 C 
HETATM    2  C2  UNL     1      22.755  -0.260  53.637  1.00  0.00    -0.029 A 
HETATM    3  C3  UNL     1      24.042  -0.294  53.969  1.00  0.00    -0.001 A 
HETATM    4  C4  UNL     1      24.843  -1.003  54.948  1.00  0.00     0.129 A 
HETATM    5  N1  UNL     1      26.080  -0.625  54.805  1.00  0.00    -0.271 NA
HETATM    6  C5  UNL     1      26.163   0.330  53.749  1.00  0.00     0.128 A 
HETATM    7  C6  UNL     1      24.977   0.548  53.233  1.00  0.00    -0.007 A 
HETATM    8  C7  UNL     1      24.529   1.413  52.159  1.00  0.00     0.013 A 
HETATM    9  C8  UNL     1      23.230   1.380  51.897  1.00  0.00     0.021 A 
HETATM   10  C9  UNL     1      22.175   0.578  52.562  1.00  0.00     0.130 A 
HETATM   11  C10 UNL     1      20.912   1.215  52.813  1.00  0.00     0.052 A 
HETATM   12  C11 UNL     1      20.317   0.448  51.930  1.00  0.00     0.049 A 
HETATM   13  O1  UNL     1      21.495  -0.203  51.643  1.00  0.00    -0.332 OA
ENDROOT
BRANCH  12  14
HETATM   14  C12 UNL     1      19.001   0.188  51.326  1.00  0.00     0.076 C 
BRANCH  14  15
HETATM   15  C13 UNL     1      18.029  -0.372  52.317  1.00  0.00     0.036 C 
HETATM   16  C14 UNL     1      18.584  -1.467  53.120  1.00  0.00    -0.022 C 
HETATM   17  C15 UNL     1      17.837  -2.496  53.513  1.00  0.00    -0.026 C 
HETATM   18  C16 UNL     1      16.389  -2.673  53.204  1.00  0.00     0.053 C 
HETATM   19  C17 UNL     1      16.017  -1.755  52.068  1.00  0.00    -0.026 C 
HETATM   20  C18 UNL     1      16.759  -0.710  51.662  1.00  0.00    -0.022 C 
ENDBRANCH  14  15
ENDBRANCH  12  14
TORSDOF 2
ENDMDL
MODEL 9
REMARK VINA RESULT:      -7.7      1.010      2.317
REMARK  2 active torsions:
REMARK  status: ('A' for Active; 'I' for Inactive)
REMARK    1  A    between atoms: C11_12  and  C12_13 
REMARK    2  A    between atoms: C12_13  and  C13_14 
ROOT
HETATM    1  C1  UNL     1      21.683  -1.214  54.586  1.00  0.00     0.048 C 
HETATM    2  C2  UNL     1      21.576  -0.470  53.328  1.00  0.00    -0.029 A 
HETATM    3  C3  UNL     1      20.385  -0.288  52.767  1.00  0.00    -0.001 A 
HETATM    4  C4  UNL     1      19.020  -0.658  53.084  1.00  0.00     0.129 A 
HETATM    5  N1  UNL     1      18.248  -0.194  52.145  1.00  0.00    -0.271 NA
HETATM    6  C5  UNL     1      19.042   0.493  51.179  1.00  0.00     0.128 A 
HETATM    7  C6  UNL     1      20.309   0.456  51.516  1.00  0.00    -0.007 A 
HETATM    8  C7  UNL     1      21.498   0.994  50.883  1.00  0.00     0.013 A 
HETATM    9  C8  UNL     1      22.640   0.765  51.515  1.00  0.00     0.021 A 
HETATM   10  C9  UNL     1      22.861   0.028  52.783  1.00  0.00     0.130 A 
HETATM   11  C10 UNL     1      24.005  -0.837  52.860  1.00  0.00     0.052 A 
HETATM   12  C11 UNL     1      24.578  -0.048  53.737  1.00  0.00     0.049 A 
HETATM   13  O1  UNL     1      23.513   0.823  53.709  1.00  0.00    -0.332 OA
ENDROOT
BRANCH  12  14
HETATM   14  C12 UNL     1      25.800   0.086  54.545  1.00  0.00     0.076 C 
BRANCH  14  15
HETATM   15  C13 UNL     1      27.028   0.190  53.694  1.00  0.00     0.036 C 
HETATM   16  C14 UNL     1      27.598  -1.112  53.335  1.00  0.00    -0.022 C 
HETATM   17  C15 UNL     1      28.911  -1.293  53.218  1.00  0.00    -0.026 C 
HETATM   18  C16 UNL     1      29.945  -0.240  53.427  1.00  0.00     0.053 C 
HETATM   19  C17 UNL     1      29.324   0.912  54.175  1.00  0.00    -0.026 C 
HETATM   20  C18 UNL     1      28.000   1.111  54.298  1.00  0.00    -0.022 C 
ENDBRANCH  14  15
ENDBRANCH  12  14
TORSDOF 2
ENDMDL
