MODEL 1
REMARK VINA RESULT:      -9.2      0.000      0.000
REMARK  5 active torsions:
REMARK  status: ('A' for Active; 'I' for Inactive)
REMARK    1  A    between atoms: C6_6  and  C7_7 
REMARK    2  A    between atoms: C16_18  and  C18_20 
REMARK    3  A    between atoms: C20_24  and  C21_25 
REMARK    4  A    between atoms: C21_25  and  C22_26 
REMARK    5  A    between atoms: C22_26  and  C23_27 
ROOT
HETATM    1  C23 UNL     1      18.042   3.731  50.720  1.00  0.00     0.131 C 
HETATM    2  C24 UNL     1      16.921   4.020  51.650  1.00  0.00     0.059 C 
HETATM    3  N3  UNL     1      16.048   4.253  52.395  1.00  0.00    -0.197 NA
ENDROOT
BRANCH   1   4
HETATM    4  C22 UNL     1      19.344   3.895  51.455  1.00  0.00     0.031 C 
BRANCH   4   5
HETATM    5  C21 UNL     1      19.957   2.802  52.252  1.00  0.00     0.043 A 
HETATM    6  N2  UNL     1      21.190   2.738  51.568  1.00  0.00    -0.281 N 
HETATM    7  C16 UNL     1      22.554   2.105  51.497  1.00  0.00     0.072 C 
HETATM    8  C19 UNL     1      20.514   2.046  52.678  1.00  0.00     0.122 A 
HETATM    9  C15 UNL     1      22.579   1.137  52.583  1.00  0.00     0.057 C 
HETATM   10  C17 UNL     1      23.362   3.393  51.814  1.00  0.00     0.041 C 
HETATM   11  C2  UNL     1      21.216   0.594  52.661  1.00  0.00    -0.003 A 
HETATM   12  C6  UNL     1      23.655   0.277  52.954  1.00  0.00    -0.068 C 
HETATM   13  C1  UNL     1      20.639   0.168  51.307  1.00  0.00     0.021 C 
HETATM   14  C3  UNL     1      21.152  -0.665  53.440  1.00  0.00    -0.016 C 
HETATM   15  C20 UNL     1      20.131   1.556  53.405  1.00  0.00     0.003 A 
HETATM   16  C4  UNL     1      22.108  -1.385  53.916  1.00  0.00    -0.003 C 
HETATM   17  C5  UNL     1      23.414  -0.846  53.626  1.00  0.00     0.003 C 
BRANCH   7  18
HETATM   18  C18 UNL     1      22.867   1.790  50.133  1.00  0.00     0.257 C 
HETATM   19  O2  UNL     1      22.393   2.831  49.648  1.00  0.00    -0.305 OA
ENDBRANCH   7  18
BRANCH  12  20
HETATM   20  C7  UNL     1      25.157   0.444  52.875  1.00  0.00     0.016 C 
HETATM   21  C8  UNL     1      25.840  -0.739  53.569  1.00  0.00     0.011 C 
HETATM   22  C9  UNL     1      26.919  -1.382  52.718  1.00  0.00     0.034 C 
HETATM   23  C10 UNL     1      28.281  -0.809  53.050  1.00  0.00     0.141 C 
HETATM   24  C11 UNL     1      28.340   0.678  52.770  1.00  0.00     0.151 C 
HETATM   25  O1  UNL     1      28.448  -0.942  54.436  1.00  0.00    -0.365 OA
HETATM   26  N1  UNL     1      28.020   1.238  54.009  1.00  0.00    -0.390 N 
HETATM   27  C12 UNL     1      26.795   1.847  54.273  1.00  0.00     0.119 C 
HETATM   28  C14 UNL     1      28.571   0.340  54.970  1.00  0.00     0.288 C 
HETATM   29  C13 UNL     1      25.674   1.752  53.332  1.00  0.00     0.028 C 
ENDBRANCH  12  20
ENDBRANCH   4   5
ENDBRANCH   1   4
TORSDOF 5
ENDMDL
MODEL 2
REMARK VINA RESULT:      -9.0      2.024      7.636
REMARK  5 active torsions:
REMARK  status: ('A' for Active; 'I' for Inactive)
REMARK    1  A    between atoms: C6_6  and  C7_7 
REMARK    2  A    between atoms: C16_18  and  C18_20 
REMARK    3  A    between atoms: C20_24  and  C21_25 
REMARK    4  A    between atoms: C21_25  and  C22_26 
REMARK    5  A    between atoms: C22_26  and  C23_27 
ROOT
HETATM    1  C23 UNL     1      29.612  -0.045  53.539  1.00  0.00     0.131 C 
HETATM    2  C24 UNL     1      29.376  -1.511  53.493  1.00  0.00     0.059 C 
HETATM    3  N3  UNL     1      29.174  -2.663  53.449  1.00  0.00    -0.197 NA
ENDROOT
BRANCH   1   4
HETATM    4  C22 UNL     1      28.375   0.667  53.064  1.00  0.00     0.031 C 
BRANCH   4   5
HETATM    5  C21 UNL     1      27.042   0.015  53.025  1.00  0.00     0.043 A 
HETATM    6  N2  UNL     1      26.269   1.177  52.814  1.00  0.00    -0.281 N 
HETATM    7  C16 UNL     1      24.896   1.744  52.570  1.00  0.00     0.072 C 
HETATM    8  C19 UNL     1      26.050  -0.267  52.999  1.00  0.00     0.122 A 
HETATM    9  C15 UNL     1      24.003   0.594  52.590  1.00  0.00     0.057 C 
HETATM   10  C17 UNL     1      25.175   2.270  51.135  1.00  0.00     0.041 C 
HETATM   11  C2  UNL     1      24.554  -0.318  53.601  1.00  0.00    -0.003 A 
HETATM   12  C6  UNL     1      22.590   0.590  52.397  1.00  0.00    -0.068 C 
HETATM   13  C1  UNL     1      24.907   0.365  54.926  1.00  0.00     0.021 C 
HETATM   14  C3  UNL     1      23.577  -1.347  54.027  1.00  0.00    -0.016 C 
HETATM   15  C20 UNL     1      25.840  -1.193  53.114  1.00  0.00     0.003 A 
HETATM   16  C4  UNL     1      22.325  -1.457  53.746  1.00  0.00    -0.003 C 
HETATM   17  C5  UNL     1      21.850  -0.403  52.884  1.00  0.00     0.003 C 
BRANCH   7  18
HETATM   18  C18 UNL     1      24.711   2.917  53.373  1.00  0.00     0.257 C 
HETATM   19  O2  UNL     1      24.323   3.647  52.446  1.00  0.00    -0.305 OA
ENDBRANCH   7  18
BRANCH  12  20
HETATM   20  C7  UNL     1      21.681   1.465  51.561  1.00  0.00     0.016 C 
HETATM   21  C8  UNL     1      20.821   2.336  52.484  1.00  0.00     0.011 C 
HETATM   22  C9  UNL     1      20.845   3.804  52.104  1.00  0.00     0.034 C 
HETATM   23  C10 UNL     1      19.673   4.150  51.209  1.00  0.00     0.141 C 
HETATM   24  C11 UNL     1      19.716   3.368  49.912  1.00  0.00     0.151 C 
HETATM   25  O1  UNL     1      18.516   3.718  51.874  1.00  0.00    -0.365 OA
HETATM   26  N1  UNL     1      18.920   2.257  50.195  1.00  0.00    -0.390 N 
HETATM   27  C12 UNL     1      19.442   0.980  50.397  1.00  0.00     0.119 C 
HETATM   28  C14 UNL     1      17.913   2.743  51.082  1.00  0.00     0.288 C 
HETATM   29  C13 UNL     1      20.884   0.756  50.537  1.00  0.00     0.028 C 
ENDBRANCH  12  20
ENDBRANCH   4   5
ENDBRANCH   1   4
TORSDOF 5
ENDMDL
MODEL 3
REMARK VINA RESULT:      -8.9      1.837      2.284
REMARK  5 active torsions:
REMARK  status: ('A' for Active; 'I' for Inactive)
REMARK    1  A    between atoms: C6_6  and  C7_7 
REMARK    2  A    between atoms: C16_18  and  C18_20 
REMARK    3  A    between atoms: C20_24  and  C21_25 
REMARK    4  A    between atoms: C21_25  and  C22_26 
REMARK    5  A    between atoms: C22_26  and  C23_27 
ROOT
HETATM    1  C23 UNL     1      20.726   4.854  50.003  1.00  0.00     0.131 C 
HETATM    2  C24 UNL     1      21.092   6.275  50.229  1.00  0.00     0.059 C 
HETATM    3  N3  UNL     1      21.376   7.394  50.422  1.00  0.00    -0.197 NA
ENDROOT
BRANCH   1   4
HETATM    4  C22 UNL     1      20.065   4.315  51.243  1.00  0.00     0.031 C 
BRANCH   4   5
HETATM    5  C21 UNL     1      20.562   3.112  51.957  1.00  0.00     0.043 A 
HETATM    6  N2  UNL     1      21.940   3.318  51.738  1.00  0.00    -0.281 N 
HETATM    7  C16 UNL     1      23.340   2.833  52.008  1.00  0.00     0.072 C 
HETATM    8  C19 UNL     1      21.069   2.320  52.382  1.00  0.00     0.122 A 
HETATM    9  C15 UNL     1      23.175   1.631  52.813  1.00  0.00     0.057 C 
HETATM   10  C17 UNL     1      23.795   4.063  52.841  1.00  0.00     0.041 C 
HETATM   11  C2  UNL     1      21.960   0.979  52.307  1.00  0.00    -0.003 A 
HETATM   12  C6  UNL     1      24.203   0.795  53.343  1.00  0.00    -0.068 C 
HETATM   13  C1  UNL     1      21.912   0.856  50.781  1.00  0.00     0.021 C 
HETATM   14  C3  UNL     1      21.855  -0.435  52.739  1.00  0.00    -0.016 C 
HETATM   15  C20 UNL     1      20.560   1.637  52.816  1.00  0.00     0.003 A 
HETATM   16  C4  UNL     1      22.715  -1.171  53.353  1.00  0.00    -0.003 C 
HETATM   17  C5  UNL     1      23.943  -0.475  53.645  1.00  0.00     0.003 C 
BRANCH   7  18
HETATM   18  C18 UNL     1      24.110   2.891  50.800  1.00  0.00     0.257 C 
HETATM   19  O2  UNL     1      24.090   4.128  50.693  1.00  0.00    -0.305 OA
ENDBRANCH   7  18
BRANCH  12  20
HETATM   20  C7  UNL     1      25.608   1.097  53.818  1.00  0.00     0.016 C 
HETATM   21  C8  UNL     1      26.578   1.003  52.635  1.00  0.00     0.011 C 
HETATM   22  C9  UNL     1      27.483   2.213  52.515  1.00  0.00     0.034 C 
HETATM   23  C10 UNL     1      28.806   1.970  53.211  1.00  0.00     0.141 C 
HETATM   24  C11 UNL     1      28.615   1.720  54.692  1.00  0.00     0.151 C 
HETATM   25  O1  UNL     1      29.323   0.776  52.688  1.00  0.00    -0.365 OA
HETATM   26  N1  UNL     1      28.545   0.327  54.763  1.00  0.00    -0.390 N 
HETATM   27  C12 UNL     1      27.358  -0.362  55.007  1.00  0.00     0.119 C 
HETATM   28  C14 UNL     1      29.419  -0.137  53.736  1.00  0.00     0.288 C 
HETATM   29  C13 UNL     1      26.060   0.320  54.992  1.00  0.00     0.028 C 
ENDBRANCH  12  20
ENDBRANCH   4   5
ENDBRANCH   1   4
TORSDOF 5
ENDMDL
MODEL 4
REMARK VINA RESULT:      -8.8      2.453      7.428
REMARK  5 active torsions:
REMARK  status: ('A' for Active; 'I' for Inactive)
REMARK    1  A    between atoms: C6_6  and  C7_7 
REMARK    2  A    between atoms: C16_18  and  C18_20 
REMARK    3  A    between atoms: C20_24  and  C21_25 
REMARK    4  A    between atoms: C21_25  and  C22_26 
REMARK    5  A    between atoms: C22_26  and  C23_27 
ROOT
HETATM    1  C23 UNL     1      30.006  -1.034  53.661  1.00  0.00     0.131 C 
HETATM    2  C24 UNL     1      29.438  -2.398  53.516  1.00  0.00     0.059 C 
HETATM    3  N3  UNL     1      28.976  -3.467  53.394  1.00  0.00    -0.197 NA
ENDROOT
BRANCH   1   4
HETATM    4  C22 UNL     1      29.006  -0.030  53.156  1.00  0.00     0.031 C 
BRANCH   4   5
HETATM    5  C21 UNL     1      27.583  -0.373  52.905  1.00  0.00     0.043 A 
HETATM    6  N2  UNL     1      27.067   0.940  52.920  1.00  0.00    -0.281 N 
HETATM    7  C16 UNL     1      25.854   1.813  52.739  1.00  0.00     0.072 C 
HETATM    8  C19 UNL     1      26.563  -0.436  52.767  1.00  0.00     0.122 A 
HETATM    9  C15 UNL     1      24.763   0.891  52.457  1.00  0.00     0.057 C 
HETATM   10  C17 UNL     1      26.360   2.558  51.474  1.00  0.00     0.041 C 
HETATM   11  C2  UNL     1      25.035  -0.305  53.266  1.00  0.00    -0.003 A 
HETATM   12  C6  UNL     1      23.398   1.216  52.197  1.00  0.00    -0.068 C 
HETATM   13  C1  UNL     1      25.384   0.000  54.726  1.00  0.00     0.021 C 
HETATM   14  C3  UNL     1      23.846  -1.179  53.403  1.00  0.00    -0.016 C 
HETATM   15  C20 UNL     1      26.173  -1.303  52.662  1.00  0.00     0.003 A 
HETATM   16  C4  UNL     1      22.628  -0.969  53.041  1.00  0.00    -0.003 C 
HETATM   17  C5  UNL     1      22.442   0.315  52.414  1.00  0.00     0.003 C 
BRANCH   7  18
HETATM   18  C18 UNL     1      25.818   2.806  53.773  1.00  0.00     0.257 C 
HETATM   19  O2  UNL     1      27.035   2.780  54.018  1.00  0.00    -0.305 OA
ENDBRANCH   7  18
BRANCH  12  20
HETATM   20  C7  UNL     1      22.752   2.413  51.533  1.00  0.00     0.016 C 
HETATM   21  C8  UNL     1      23.257   2.529  50.090  1.00  0.00     0.011 C 
HETATM   22  C9  UNL     1      22.134   2.685  49.083  1.00  0.00     0.034 C 
HETATM   23  C10 UNL     1      21.880   4.146  48.777  1.00  0.00     0.141 C 
HETATM   24  C11 UNL     1      21.454   4.905  50.017  1.00  0.00     0.151 C 
HETATM   25  O1  UNL     1      23.111   4.699  48.398  1.00  0.00    -0.365 OA
HETATM   26  N1  UNL     1      22.661   5.417  50.495  1.00  0.00    -0.390 N 
HETATM   27  C12 UNL     1      23.299   4.922  51.631  1.00  0.00     0.119 C 
HETATM   28  C14 UNL     1      23.434   5.687  49.327  1.00  0.00     0.288 C 
HETATM   29  C13 UNL     1      22.855   3.685  52.280  1.00  0.00     0.028 C 
ENDBRANCH  12  20
ENDBRANCH   4   5
ENDBRANCH   1   4
TORSDOF 5
ENDMDL
MODEL 5
REMARK VINA RESULT:      -8.8      2.190      4.041
REMARK  5 active torsions:
REMARK  status: ('A' for Active; 'I' for Inactive)
REMARK    1  A    between atoms: C6_6  and  C7_7 
REMARK    2  A    between atoms: C16_18  and  C18_20 
REMARK    3  A    between atoms: C20_24  and  C21_25 
REMARK    4  A    between atoms: C21_25  and  C22_26 
REMARK    5  A    between atoms: C22_26  and  C23_27 
ROOT
HETATM    1  C23 UNL     1      19.575   3.998  50.954  1.00  0.00     0.131 C 
HETATM    2  C24 UNL     1      18.145   3.997  50.553  1.00  0.00     0.059 C 
HETATM    3  N3  UNL     1      17.023   4.003  50.222  1.00  0.00    -0.197 NA
ENDROOT
BRANCH   1   4
HETATM    4  C22 UNL     1      20.378   4.724  49.909  1.00  0.00     0.031 C 
BRANCH   4   5
HETATM    5  C21 UNL     1      21.783   4.369  49.589  1.00  0.00     0.043 A 
HETATM    6  N2  UNL     1      22.217   4.105  50.906  1.00  0.00    -0.281 N 
HETATM    7  C16 UNL     1      23.347   3.641  51.785  1.00  0.00     0.072 C 
HETATM    8  C19 UNL     1      22.785   4.124  49.547  1.00  0.00     0.122 A 
HETATM    9  C15 UNL     1      24.456   3.389  50.876  1.00  0.00     0.057 C 
HETATM   10  C17 UNL     1      22.661   2.337  52.280  1.00  0.00     0.041 C 
HETATM   11  C2  UNL     1      24.347   4.412  49.827  1.00  0.00    -0.003 A 
HETATM   12  C6  UNL     1      25.761   2.921  51.209  1.00  0.00    -0.068 C 
HETATM   13  C1  UNL     1      24.140   5.832  50.363  1.00  0.00     0.021 C 
HETATM   14  C3  UNL     1      25.595   4.551  49.040  1.00  0.00    -0.016 C 
HETATM   15  C20 UNL     1      23.214   4.119  48.692  1.00  0.00     0.003 A 
HETATM   16  C4  UNL     1      26.752   4.019  49.236  1.00  0.00    -0.003 C 
HETATM   17  C5  UNL     1      26.788   3.170  50.400  1.00  0.00     0.003 C 
BRANCH   7  18
HETATM   18  C18 UNL     1      23.433   4.484  52.942  1.00  0.00     0.257 C 
HETATM   19  O2  UNL     1      22.248   4.856  52.918  1.00  0.00    -0.305 OA
ENDBRANCH   7  18
BRANCH  12  20
HETATM   20  C7  UNL     1      26.256   1.996  52.300  1.00  0.00     0.016 C 
HETATM   21  C8  UNL     1      27.776   2.143  52.443  1.00  0.00     0.011 C 
HETATM   22  C9  UNL     1      28.216   2.362  53.877  1.00  0.00     0.034 C 
HETATM   23  C10 UNL     1      28.599   1.051  54.532  1.00  0.00     0.141 C 
HETATM   24  C11 UNL     1      27.426   0.094  54.583  1.00  0.00     0.151 C 
HETATM   25  O1  UNL     1      29.548   0.445  53.696  1.00  0.00    -0.365 OA
HETATM   26  N1  UNL     1      27.595  -0.662  53.421  1.00  0.00    -0.390 N 
HETATM   27  C12 UNL     1      26.782  -0.520  52.298  1.00  0.00     0.119 C 
HETATM   28  C14 UNL     1      29.007  -0.759  53.248  1.00  0.00     0.288 C 
HETATM   29  C13 UNL     1      25.826   0.586  52.180  1.00  0.00     0.028 C 
ENDBRANCH  12  20
ENDBRANCH   4   5
ENDBRANCH   1   4
TORSDOF 5
ENDMDL
MODEL 6
REMARK VINA RESULT:      -8.5      2.474      8.060
REMARK  5 active torsions:
REMARK  status: ('A' for Active; 'I' for Inactive)
REMARK    1  A    between atoms: C6_6  and  C7_7 
REMARK    2  A    between atoms: C16_18  and  C18_20 
REMARK    3  A    between atoms: C20_24  and  C21_25 
REMARK    4  A    between atoms: C21_25  and  C22_26 
REMARK    5  A    between atoms: C22_26  and  C23_27 
ROOT
HETATM    1  C23 UNL     1      25.933   0.238  52.341  1.00  0.00     0.131 C 
HETATM    2  C24 UNL     1      26.598   1.477  51.862  1.00  0.00     0.059 C 
HETATM    3  N3  UNL     1      27.111   2.463  51.493  1.00  0.00    -0.197 NA
ENDROOT
BRANCH   1   4
HETATM    4  C22 UNL     1      24.752   0.614  53.192  1.00  0.00     0.031 C 
BRANCH   4   5
HETATM    5  C21 UNL     1      23.443  -0.082  53.098  1.00  0.00     0.043 A 
HETATM    6  N2  UNL     1      22.704   0.981  52.537  1.00  0.00    -0.281 N 
HETATM    7  C16 UNL     1      21.379   1.431  51.982  1.00  0.00     0.072 C 
HETATM    8  C19 UNL     1      22.468  -0.402  52.988  1.00  0.00     0.122 A 
HETATM    9  C15 UNL     1      20.501   0.277  52.113  1.00  0.00     0.057 C 
HETATM   10  C17 UNL     1      21.867   1.659  50.524  1.00  0.00     0.041 C 
HETATM   11  C2  UNL     1      20.900  -0.383  53.363  1.00  0.00    -0.003 A 
HETATM   12  C6  UNL     1      19.133   0.180  51.722  1.00  0.00    -0.068 C 
HETATM   13  C1  UNL     1      21.045   0.573  54.551  1.00  0.00     0.021 C 
HETATM   14  C3  UNL     1      19.876  -1.338  53.850  1.00  0.00    -0.016 C 
HETATM   15  C20 UNL     1      22.249  -1.291  53.264  1.00  0.00     0.003 A 
HETATM   16  C4  UNL     1      18.682  -1.551  53.419  1.00  0.00    -0.003 C 
HETATM   17  C5  UNL     1      18.335  -0.717  52.295  1.00  0.00     0.003 C 
BRANCH   7  18
HETATM   18  C18 UNL     1      21.068   2.738  52.483  1.00  0.00     0.257 C 
HETATM   19  O2  UNL     1      22.175   3.240  52.229  1.00  0.00    -0.305 OA
ENDBRANCH   7  18
BRANCH  12  20
HETATM   20  C7  UNL     1      18.353   0.828  50.597  1.00  0.00     0.016 C 
HETATM   21  C8  UNL     1      17.808   2.181  51.068  1.00  0.00     0.011 C 
HETATM   22  C9  UNL     1      18.113   3.309  50.101  1.00  0.00     0.034 C 
HETATM   23  C10 UNL     1      16.957   3.531  49.148  1.00  0.00     0.141 C 
HETATM   24  C11 UNL     1      16.689   2.301  48.305  1.00  0.00     0.151 C 
HETATM   25  O1  UNL     1      15.811   3.707  49.937  1.00  0.00    -0.365 OA
HETATM   26  N1  UNL     1      15.704   1.635  49.035  1.00  0.00    -0.390 N 
HETATM   27  C12 UNL     1      15.952   0.469  49.757  1.00  0.00     0.119 C 
HETATM   28  C14 UNL     1      14.928   2.671  49.635  1.00  0.00     0.288 C 
HETATM   29  C13 UNL     1      17.316  -0.022  49.974  1.00  0.00     0.028 C 
ENDBRANCH  12  20
ENDBRANCH   4   5
ENDBRANCH   1   4
TORSDOF 5
ENDMDL
MODEL 7
REMARK VINA RESULT:      -8.4      2.802      7.536
REMARK  5 active torsions:
REMARK  status: ('A' for Active; 'I' for Inactive)
REMARK    1  A    between atoms: C6_6  and  C7_7 
REMARK    2  A    between atoms: C16_18  and  C18_20 
REMARK    3  A    between atoms: C20_24  and  C21_25 
REMARK    4  A    between atoms: C21_25  and  C22_26 
REMARK    5  A    between atoms: C22_26  and  C23_27 
ROOT
HETATM    1  C23 UNL     1      26.476   4.107  49.268  1.00  0.00     0.131 C 
HETATM    2  C24 UNL     1      27.701   4.750  48.728  1.00  0.00     0.059 C 
HETATM    3  N3  UNL     1      28.676   5.248  48.313  1.00  0.00    -0.197 NA
ENDROOT
BRANCH   1   4
HETATM    4  C22 UNL     1      26.853   3.239  50.437  1.00  0.00     0.031 C 
BRANCH   4   5
HETATM    5  C21 UNL     1      25.906   2.278  51.058  1.00  0.00     0.043 A 
HETATM    6  N2  UNL     1      24.714   2.975  50.772  1.00  0.00    -0.281 N 
HETATM    7  C16 UNL     1      23.210   2.972  50.846  1.00  0.00     0.072 C 
HETATM    8  C19 UNL     1      25.124   1.739  51.460  1.00  0.00     0.122 A 
HETATM    9  C15 UNL     1      22.867   1.730  51.525  1.00  0.00     0.057 C 
HETATM   10  C17 UNL     1      22.959   2.915  49.314  1.00  0.00     0.041 C 
HETATM   11  C2  UNL     1      23.927   1.516  52.518  1.00  0.00    -0.003 A 
HETATM   12  C6  UNL     1      21.562   1.244  51.835  1.00  0.00    -0.068 C 
HETATM   13  C1  UNL     1      24.246   2.754  53.362  1.00  0.00     0.021 C 
HETATM   14  C3  UNL     1      23.545   0.522  53.549  1.00  0.00    -0.016 C 
HETATM   15  C20 UNL     1      25.324   0.925  51.921  1.00  0.00     0.003 A 
HETATM   16  C4  UNL     1      22.409  -0.046  53.759  1.00  0.00    -0.003 C 
HETATM   17  C5  UNL     1      21.391   0.374  52.828  1.00  0.00     0.003 C 
BRANCH   7  18
HETATM   18  C18 UNL     1      22.746   4.265  51.257  1.00  0.00     0.257 C 
HETATM   19  O2  UNL     1      23.173   4.876  50.263  1.00  0.00    -0.305 OA
ENDBRANCH   7  18
BRANCH  12  20
HETATM   20  C7  UNL     1      20.232   1.396  51.130  1.00  0.00     0.016 C 
HETATM   21  C8  UNL     1      19.544   2.679  51.611  1.00  0.00     0.011 C 
HETATM   22  C9  UNL     1      19.060   3.554  50.471  1.00  0.00     0.034 C 
HETATM   23  C10 UNL     1      17.607   3.271  50.151  1.00  0.00     0.141 C 
HETATM   24  C11 UNL     1      17.406   1.836  49.708  1.00  0.00     0.151 C 
HETATM   25  O1  UNL     1      16.897   3.400  51.352  1.00  0.00    -0.365 OA
HETATM   26  N1  UNL     1      17.067   1.191  50.898  1.00  0.00    -0.390 N 
HETATM   27  C12 UNL     1      17.934   0.333  51.571  1.00  0.00     0.119 C 
HETATM   28  C14 UNL     1      16.332   2.160  51.644  1.00  0.00     0.288 C 
HETATM   29  C13 UNL     1      19.345   0.215  51.188  1.00  0.00     0.028 C 
ENDBRANCH  12  20
ENDBRANCH   4   5
ENDBRANCH   1   4
TORSDOF 5
ENDMDL
MODEL 8
REMARK VINA RESULT:      -8.2      2.924      3.902
REMARK  5 active torsions:
REMARK  status: ('A' for Active; 'I' for Inactive)
REMARK    1  A    between atoms: C6_6  and  C7_7 
REMARK    2  A    between atoms: C16_18  and  C18_20 
REMARK    3  A    between atoms: C20_24  and  C21_25 
REMARK    4  A    between atoms: C21_25  and  C22_26 
REMARK    5  A    between atoms: C22_26  and  C23_27 
ROOT
HETATM    1  C23 UNL     1      21.183   8.159  48.993  1.00  0.00     0.131 C 
HETATM    2  C24 UNL     1      20.657   9.532  49.205  1.00  0.00     0.059 C 
HETATM    3  N3  UNL     1      20.243  10.611  49.390  1.00  0.00    -0.197 NA
ENDROOT
BRANCH   1   4
HETATM    4  C22 UNL     1      21.226   7.440  50.313  1.00  0.00     0.031 C 
BRANCH   4   5
HETATM    5  C21 UNL     1      21.062   5.969  50.430  1.00  0.00     0.043 A 
HETATM    6  N2  UNL     1      22.385   5.661  50.812  1.00  0.00    -0.281 N 
HETATM    7  C16 UNL     1      23.350   4.586  51.238  1.00  0.00     0.072 C 
HETATM    8  C19 UNL     1      21.129   4.944  50.531  1.00  0.00     0.122 A 
HETATM    9  C15 UNL     1      22.578   3.352  51.211  1.00  0.00     0.057 C 
HETATM   10  C17 UNL     1      23.587   5.122  52.677  1.00  0.00     0.041 C 
HETATM   11  C2  UNL     1      21.653   3.488  50.078  1.00  0.00    -0.003 A 
HETATM   12  C6  UNL     1      23.030   2.040  51.543  1.00  0.00    -0.068 C 
HETATM   13  C1  UNL     1      22.322   3.968  48.786  1.00  0.00     0.021 C 
HETATM   14  C3  UNL     1      21.068   2.190  49.666  1.00  0.00    -0.016 C 
HETATM   15  C20 UNL     1      20.348   4.420  50.360  1.00  0.00     0.003 A 
HETATM   16  C4  UNL     1      21.357   0.998  50.061  1.00  0.00    -0.003 C 
HETATM   17  C5  UNL     1      22.405   0.973  51.050  1.00  0.00     0.003 C 
BRANCH   7  18
HETATM   18  C18 UNL     1      24.600   4.766  50.558  1.00  0.00     0.257 C 
HETATM   19  O2  UNL     1      24.662   5.995  50.727  1.00  0.00    -0.305 OA
ENDBRANCH   7  18
BRANCH  12  20
HETATM   20  C7  UNL     1      24.060   1.545  52.534  1.00  0.00     0.016 C 
HETATM   21  C8  UNL     1      25.411   1.381  51.827  1.00  0.00     0.011 C 
HETATM   22  C9  UNL     1      26.551   2.050  52.570  1.00  0.00     0.034 C 
HETATM   23  C10 UNL     1      27.262   1.063  53.472  1.00  0.00     0.141 C 
HETATM   24  C11 UNL     1      26.329   0.507  54.528  1.00  0.00     0.151 C 
HETATM   25  O1  UNL     1      27.623  -0.029  52.671  1.00  0.00    -0.365 OA
HETATM   26  N1  UNL     1      25.861  -0.668  53.938  1.00  0.00    -0.390 N 
HETATM   27  C12 UNL     1      24.567  -0.806  53.441  1.00  0.00     0.119 C 
HETATM   28  C14 UNL     1      26.957  -1.151  53.163  1.00  0.00     0.288 C 
HETATM   29  C13 UNL     1      23.671   0.347  53.309  1.00  0.00     0.028 C 
ENDBRANCH  12  20
ENDBRANCH   4   5
ENDBRANCH   1   4
TORSDOF 5
ENDMDL
MODEL 9
REMARK VINA RESULT:      -8.0      6.281      8.586
REMARK  5 active torsions:
REMARK  status: ('A' for Active; 'I' for Inactive)
REMARK    1  A    between atoms: C6_6  and  C7_7 
REMARK    2  A    between atoms: C16_18  and  C18_20 
REMARK    3  A    between atoms: C20_24  and  C21_25 
REMARK    4  A    between atoms: C21_25  and  C22_26 
REMARK    5  A    between atoms: C22_26  and  C23_27 
ROOT
HETATM    1  C23 UNL     1      25.255  11.913  46.468  1.00  0.00     0.131 C 
HETATM    2  C24 UNL     1      26.145  12.144  47.634  1.00  0.00     0.059 C 
HETATM    3  N3  UNL     1      26.845  12.310  48.558  1.00  0.00    -0.197 NA
ENDROOT
BRANCH   1   4
HETATM    4  C22 UNL     1      24.730  10.504  46.524  1.00  0.00     0.031 C 
BRANCH   4   5
HETATM    5  C21 UNL     1      25.619   9.322  46.656  1.00  0.00     0.043 A 
HETATM    6  N2  UNL     1      24.984   8.732  47.769  1.00  0.00    -0.281 N 
HETATM    7  C16 UNL     1      24.940   7.560  48.713  1.00  0.00     0.072 C 
HETATM    8  C19 UNL     1      26.148   8.472  46.905  1.00  0.00     0.122 A 
HETATM    9  C15 UNL     1      26.041   6.701  48.301  1.00  0.00     0.057 C 
HETATM   10  C17 UNL     1      23.553   7.024  48.264  1.00  0.00     0.041 C 
HETATM   11  C2  UNL     1      27.111   7.610  47.868  1.00  0.00    -0.003 A 
HETATM   12  C6  UNL     1      26.426   5.451  48.872  1.00  0.00    -0.068 C 
HETATM   13  C1  UNL     1      27.393   8.750  48.852  1.00  0.00     0.021 C 
HETATM   14  C3  UNL     1      28.428   6.935  47.784  1.00  0.00    -0.016 C 
HETATM   15  C20 UNL     1      26.916   8.247  46.382  1.00  0.00     0.003 A 
HETATM   16  C4  UNL     1      28.768   5.750  48.157  1.00  0.00    -0.003 C 
HETATM   17  C5  UNL     1      27.673   5.008  48.732  1.00  0.00     0.003 C 
BRANCH   7  18
HETATM   18  C18 UNL     1      24.746   8.030  50.054  1.00  0.00     0.257 C 
HETATM   19  O2  UNL     1      23.541   8.298  49.923  1.00  0.00    -0.305 OA
ENDBRANCH   7  18
BRANCH  12  20
HETATM   20  C7  UNL     1      25.624   4.351  49.533  1.00  0.00     0.016 C 
HETATM   21  C8  UNL     1      25.033   4.871  50.848  1.00  0.00     0.011 C 
HETATM   22  C9  UNL     1      23.548   4.596  50.978  1.00  0.00     0.034 C 
HETATM   23  C10 UNL     1      23.301   3.311  51.742  1.00  0.00     0.141 C 
HETATM   24  C11 UNL     1      23.899   2.117  51.026  1.00  0.00     0.151 C 
HETATM   25  O1  UNL     1      24.001   3.420  52.951  1.00  0.00    -0.365 OA
HETATM   26  N1  UNL     1      25.156   2.000  51.622  1.00  0.00    -0.390 N 
HETATM   27  C12 UNL     1      26.339   2.346  50.972  1.00  0.00     0.119 C 
HETATM   28  C14 UNL     1      24.961   2.409  52.974  1.00  0.00     0.288 C 
HETATM   29  C13 UNL     1      26.329   3.061  49.692  1.00  0.00     0.028 C 
ENDBRANCH  12  20
ENDBRANCH   4   5
ENDBRANCH   1   4
TORSDOF 5
ENDMDL
