MODEL 1
REMARK VINA RESULT:      -7.7      0.000      0.000
REMARK  10 active torsions:
REMARK  status: ('A' for Active; 'I' for Inactive)
REMARK    1  A    between atoms: C2_2  and  C3_3 
REMARK    2  A    between atoms: C3_3  and  O1_4 
REMARK    3  A    between atoms: O1_4  and  C4_5 
REMARK    4  A    between atoms: C5_6  and  C6_7 
REMARK    5  A    between atoms: C6_7  and  C8_10 
REMARK       I    between atoms: C8_10  and  N2_11 
REMARK    6  A    between atoms: C10_14  and  C11_15 
REMARK    7  A    between atoms: C11_15  and  C12_16 
REMARK    8  A    between atoms: C12_16  and  S1_17 
REMARK    9  A    between atoms: S1_17  and  C13_18 
REMARK   10  A    between atoms: C20_25  and  O3_26 
ROOT
HETATM    1  C6  UNL     1      26.077   0.833  52.889  1.00  0.00     0.216 C 
HETATM    2  C7  UNL     1      27.165   1.759  52.546  1.00  0.00     0.078 C 
HETATM    3  N1  UNL     1      28.021   2.467  52.289  1.00  0.00    -0.196 NA
ENDROOT
BRANCH   1   4
HETATM    4  C5  UNL     1      24.798   1.535  52.676  1.00  0.00    -0.018 A 
HETATM    5  C4  UNL     1      23.550   0.814  52.304  1.00  0.00     0.209 A 
HETATM    6  C20 UNL     1      22.606   1.990  52.224  1.00  0.00     0.082 A 
HETATM    7  C10 UNL     1      23.209   3.136  52.494  1.00  0.00    -0.025 A 
HETATM    8  C9  UNL     1      24.608   2.844  52.782  1.00  0.00     0.017 A 
BRANCH   5   9
HETATM    9  O1  UNL     1      23.101   0.079  53.372  1.00  0.00    -0.375 OA
BRANCH   9  10
HETATM   10  C3  UNL     1      22.414  -1.068  53.083  1.00  0.00     0.168 C 
BRANCH  10  11
HETATM   11  C2  UNL     1      21.219  -1.279  53.972  1.00  0.00     0.022 C 
HETATM   12  C1  UNL     1      21.043  -0.064  54.891  1.00  0.00     0.007 C 
ENDBRANCH  10  11
ENDBRANCH   9  10
ENDBRANCH   5   9
BRANCH   6  13
HETATM   13  O3  UNL     1      21.299   1.756  51.895  1.00  0.00    -0.361 OA
HETATM   14  H24 UNL     1      20.850   2.498  51.337  1.00  0.00     0.217 HD
ENDBRANCH   6  13
BRANCH   7  15
HETATM   15  C11 UNL     1      22.595   4.488  52.508  1.00  0.00     0.051 C 
BRANCH  15  16
HETATM   16  C12 UNL     1      23.393   5.464  51.670  1.00  0.00     0.084 C 
BRANCH  16  17
HETATM   17  S1  UNL     1      23.417   4.976  49.933  1.00  0.00    -0.130 SA
BRANCH  17  18
HETATM   18  C13 UNL     1      25.109   5.200  49.364  1.00  0.00     0.000 A 
HETATM   19  C14 UNL     1      25.584   6.369  48.807  1.00  0.00     0.019 A 
HETATM   20  C15 UNL     1      26.899   6.477  48.389  1.00  0.00     0.008 A 
HETATM   21  C16 UNL     1      27.737   5.408  48.530  1.00  0.00    -0.062 A 
HETATM   22  C17 UNL     1      29.166   5.494  48.087  1.00  0.00     0.048 C 
HETATM   23  C18 UNL     1      27.309   4.217  49.080  1.00  0.00     0.008 A 
HETATM   24  C19 UNL     1      26.006   4.152  49.480  1.00  0.00     0.019 A 
ENDBRANCH  17  18
ENDBRANCH  16  17
ENDBRANCH  15  16
ENDBRANCH   7  15
ENDBRANCH   1   4
BRANCH   1  25
HETATM   25  C8  UNL     1      26.213   0.408  54.326  1.00  0.00     0.237 C 
HETATM   26  N2  UNL     1      25.656  -0.837  54.716  1.00  0.00    -0.369 N 
HETATM   27  H10 UNL     1      25.051  -1.161  55.502  1.00  0.00     0.159 HD
HETATM   28  H11 UNL     1      25.900  -1.642  54.065  1.00  0.00     0.159 HD
HETATM   29  O2  UNL     1      26.763   0.985  55.316  1.00  0.00    -0.272 OA
ENDBRANCH   1  25
TORSDOF 10
ENDMDL
MODEL 2
REMARK VINA RESULT:      -7.6      1.994      3.790
REMARK  10 active torsions:
REMARK  status: ('A' for Active; 'I' for Inactive)
REMARK    1  A    between atoms: C2_2  and  C3_3 
REMARK    2  A    between atoms: C3_3  and  O1_4 
REMARK    3  A    between atoms: O1_4  and  C4_5 
REMARK    4  A    between atoms: C5_6  and  C6_7 
REMARK    5  A    between atoms: C6_7  and  C8_10 
REMARK       I    between atoms: C8_10  and  N2_11 
REMARK    6  A    between atoms: C10_14  and  C11_15 
REMARK    7  A    between atoms: C11_15  and  C12_16 
REMARK    8  A    between atoms: C12_16  and  S1_17 
REMARK    9  A    between atoms: S1_17  and  C13_18 
REMARK   10  A    between atoms: C20_25  and  O3_26 
ROOT
HETATM    1  C6  UNL     1      22.676  -0.587  53.291  1.00  0.00     0.216 C 
HETATM    2  C7  UNL     1      22.929  -1.088  54.649  1.00  0.00     0.078 C 
HETATM    3  N1  UNL     1      23.111  -1.487  55.700  1.00  0.00    -0.196 NA
ENDROOT
BRANCH   1   4
HETATM    4  C5  UNL     1      23.376   0.703  53.144  1.00  0.00    -0.018 A 
HETATM    5  C4  UNL     1      24.853   0.825  53.280  1.00  0.00     0.209 A 
HETATM    6  C20 UNL     1      24.996   2.309  53.040  1.00  0.00     0.082 A 
HETATM    7  C10 UNL     1      23.831   2.896  52.816  1.00  0.00    -0.025 A 
HETATM    8  C9  UNL     1      22.798   1.870  52.883  1.00  0.00     0.017 A 
BRANCH   5   9
HETATM    9  O1  UNL     1      25.470   0.236  52.206  1.00  0.00    -0.375 OA
BRANCH   9  10
HETATM   10  C3  UNL     1      26.418  -0.709  52.485  1.00  0.00     0.168 C 
BRANCH  10  11
HETATM   11  C2  UNL     1      27.142  -0.455  53.779  1.00  0.00     0.022 C 
HETATM   12  C1  UNL     1      28.650  -0.356  53.511  1.00  0.00     0.007 C 
ENDBRANCH  10  11
ENDBRANCH   9  10
ENDBRANCH   5   9
BRANCH   6  13
HETATM   13  O3  UNL     1      26.248   2.858  53.078  1.00  0.00    -0.361 OA
HETATM   14  H24 UNL     1      26.493   3.446  52.267  1.00  0.00     0.217 HD
ENDBRANCH   6  13
BRANCH   7  15
HETATM   15  C11 UNL     1      23.593   4.336  52.544  1.00  0.00     0.051 C 
BRANCH  15  16
HETATM   16  C12 UNL     1      22.697   4.527  51.339  1.00  0.00     0.084 C 
BRANCH  16  17
HETATM   17  S1  UNL     1      23.305   3.605  49.912  1.00  0.00    -0.130 SA
BRANCH  17  18
HETATM   18  C13 UNL     1      24.822   4.418  49.387  1.00  0.00     0.000 A 
HETATM   19  C14 UNL     1      24.875   5.712  48.909  1.00  0.00     0.019 A 
HETATM   20  C15 UNL     1      26.076   6.279  48.523  1.00  0.00     0.008 A 
HETATM   21  C16 UNL     1      27.225   5.547  48.614  1.00  0.00    -0.062 A 
HETATM   22  C17 UNL     1      28.541   6.134  48.203  1.00  0.00     0.048 C 
HETATM   23  C18 UNL     1      27.223   4.249  49.086  1.00  0.00     0.008 A 
HETATM   24  C19 UNL     1      26.019   3.727  49.457  1.00  0.00     0.019 A 
ENDBRANCH  17  18
ENDBRANCH  16  17
ENDBRANCH  15  16
ENDBRANCH   7  15
ENDBRANCH   1   4
BRANCH   1  25
HETATM   25  C8  UNL     1      21.196  -0.411  53.086  1.00  0.00     0.237 C 
HETATM   26  N2  UNL     1      20.332  -0.636  54.188  1.00  0.00    -0.369 N 
HETATM   27  H10 UNL     1      19.447  -1.170  54.335  1.00  0.00     0.159 HD
HETATM   28  H11 UNL     1      20.642  -0.158  55.085  1.00  0.00     0.159 HD
HETATM   29  O2  UNL     1      20.533  -0.080  52.054  1.00  0.00    -0.272 OA
ENDBRANCH   1  25
TORSDOF 10
ENDMDL
MODEL 3
REMARK VINA RESULT:      -7.4      2.534      4.960
REMARK  10 active torsions:
REMARK  status: ('A' for Active; 'I' for Inactive)
REMARK    1  A    between atoms: C2_2  and  C3_3 
REMARK    2  A    between atoms: C3_3  and  O1_4 
REMARK    3  A    between atoms: O1_4  and  C4_5 
REMARK    4  A    between atoms: C5_6  and  C6_7 
REMARK    5  A    between atoms: C6_7  and  C8_10 
REMARK       I    between atoms: C8_10  and  N2_11 
REMARK    6  A    between atoms: C10_14  and  C11_15 
REMARK    7  A    between atoms: C11_15  and  C12_16 
REMARK    8  A    between atoms: C12_16  and  S1_17 
REMARK    9  A    between atoms: S1_17  and  C13_18 
REMARK   10  A    between atoms: C20_25  and  O3_26 
ROOT
HETATM    1  C6  UNL     1      26.786   0.515  52.401  1.00  0.00     0.216 C 
HETATM    2  C7  UNL     1      27.714   1.610  52.716  1.00  0.00     0.078 C 
HETATM    3  N1  UNL     1      28.446   2.447  52.962  1.00  0.00    -0.196 NA
ENDROOT
BRANCH   1   4
HETATM    4  C5  UNL     1      25.411   1.017  52.578  1.00  0.00    -0.018 A 
HETATM    5  C4  UNL     1      25.033   2.422  52.266  1.00  0.00     0.209 A 
HETATM    6  C20 UNL     1      23.567   2.362  52.625  1.00  0.00     0.082 A 
HETATM    7  C10 UNL     1      23.203   1.164  53.052  1.00  0.00    -0.025 A 
HETATM    8  C9  UNL     1      24.381   0.306  53.022  1.00  0.00     0.017 A 
BRANCH   5   9
HETATM    9  O1  UNL     1      25.053   2.620  50.909  1.00  0.00    -0.375 OA
BRANCH   9  10
HETATM   10  C3  UNL     1      25.654   3.764  50.464  1.00  0.00     0.168 C 
BRANCH  10  11
HETATM   11  C2  UNL     1      26.699   3.511  49.412  1.00  0.00     0.022 C 
HETATM   12  C1  UNL     1      27.165   4.848  48.821  1.00  0.00     0.007 C 
ENDBRANCH  10  11
ENDBRANCH   9  10
ENDBRANCH   5   9
BRANCH   6  13
HETATM   13  O3  UNL     1      22.814   3.495  52.478  1.00  0.00    -0.361 OA
HETATM   14  H24 UNL     1      23.042   4.259  53.132  1.00  0.00     0.217 HD
ENDBRANCH   6  13
BRANCH   7  15
HETATM   15  C11 UNL     1      21.848   0.744  53.489  1.00  0.00     0.051 C 
BRANCH  15  16
HETATM   16  C12 UNL     1      21.255  -0.275  52.539  1.00  0.00     0.084 C 
BRANCH  16  17
HETATM   17  S1  UNL     1      19.941   0.447  51.534  1.00  0.00    -0.130 SA
BRANCH  17  18
HETATM   18  C13 UNL     1      20.743   1.553  50.365  1.00  0.00     0.000 A 
HETATM   19  C14 UNL     1      21.825   1.196  49.585  1.00  0.00     0.019 A 
HETATM   20  C15 UNL     1      22.395   2.096  48.703  1.00  0.00     0.008 A 
HETATM   21  C16 UNL     1      21.881   3.357  48.604  1.00  0.00    -0.062 A 
HETATM   22  C17 UNL     1      22.478   4.355  47.658  1.00  0.00     0.048 C 
HETATM   23  C18 UNL     1      20.801   3.762  49.363  1.00  0.00     0.008 A 
HETATM   24  C19 UNL     1      20.267   2.845  50.220  1.00  0.00     0.019 A 
ENDBRANCH  17  18
ENDBRANCH  16  17
ENDBRANCH  15  16
ENDBRANCH   7  15
ENDBRANCH   1   4
BRANCH   1  25
HETATM   25  C8  UNL     1      27.048  -0.647  53.320  1.00  0.00     0.237 C 
HETATM   26  N2  UNL     1      27.493  -0.376  54.639  1.00  0.00    -0.369 N 
HETATM   27  H10 UNL     1      28.256  -0.741  55.250  1.00  0.00     0.159 HD
HETATM   28  H11 UNL     1      26.931   0.375  55.139  1.00  0.00     0.159 HD
HETATM   29  O2  UNL     1      26.939  -1.899  53.130  1.00  0.00    -0.272 OA
ENDBRANCH   1  25
TORSDOF 10
ENDMDL
MODEL 4
REMARK VINA RESULT:      -7.2      3.663      7.352
REMARK  10 active torsions:
REMARK  status: ('A' for Active; 'I' for Inactive)
REMARK    1  A    between atoms: C2_2  and  C3_3 
REMARK    2  A    between atoms: C3_3  and  O1_4 
REMARK    3  A    between atoms: O1_4  and  C4_5 
REMARK    4  A    between atoms: C5_6  and  C6_7 
REMARK    5  A    between atoms: C6_7  and  C8_10 
REMARK       I    between atoms: C8_10  and  N2_11 
REMARK    6  A    between atoms: C10_14  and  C11_15 
REMARK    7  A    between atoms: C11_15  and  C12_16 
REMARK    8  A    between atoms: C12_16  and  S1_17 
REMARK    9  A    between atoms: S1_17  and  C13_18 
REMARK   10  A    between atoms: C20_25  and  O3_26 
ROOT
HETATM    1  C6  UNL     1      23.269   4.516  48.419  1.00  0.00     0.216 C 
HETATM    2  C7  UNL     1      22.390   3.461  47.899  1.00  0.00     0.078 C 
HETATM    3  N1  UNL     1      21.698   2.654  47.487  1.00  0.00    -0.196 NA
ENDROOT
BRANCH   1   4
HETATM    4  C5  UNL     1      24.067   3.944  49.519  1.00  0.00    -0.018 A 
HETATM    5  C4  UNL     1      25.550   4.062  49.569  1.00  0.00     0.209 A 
HETATM    6  C20 UNL     1      25.808   3.323  50.860  1.00  0.00     0.082 A 
HETATM    7  C10 UNL     1      24.692   2.880  51.417  1.00  0.00    -0.025 A 
HETATM    8  C9  UNL     1      23.582   3.277  50.560  1.00  0.00     0.017 A 
BRANCH   5   9
HETATM    9  O1  UNL     1      25.906   5.360  49.833  1.00  0.00    -0.375 OA
BRANCH   9  10
HETATM   10  C3  UNL     1      26.742   5.963  48.934  1.00  0.00     0.168 C 
BRANCH  10  11
HETATM   11  C2  UNL     1      27.849   5.061  48.462  1.00  0.00     0.022 C 
HETATM   12  C1  UNL     1      29.067   5.908  48.072  1.00  0.00     0.007 C 
ENDBRANCH  10  11
ENDBRANCH   9  10
ENDBRANCH   5   9
BRANCH   6  13
HETATM   13  O3  UNL     1      27.100   3.196  51.292  1.00  0.00    -0.361 OA
HETATM   14  H24 UNL     1      27.212   2.726  52.203  1.00  0.00     0.217 HD
ENDBRANCH   6  13
BRANCH   7  15
HETATM   15  C11 UNL     1      24.567   2.115  52.683  1.00  0.00     0.051 C 
BRANCH  15  16
HETATM   16  C12 UNL     1      23.646   0.926  52.519  1.00  0.00     0.084 C 
BRANCH  16  17
HETATM   17  S1  UNL     1      24.039  -0.381  53.700  1.00  0.00    -0.130 SA
BRANCH  17  18
HETATM   18  C13 UNL     1      25.834  -0.478  53.775  1.00  0.00     0.000 A 
HETATM   19  C14 UNL     1      26.597   0.143  54.743  1.00  0.00     0.019 A 
HETATM   20  C15 UNL     1      27.976   0.028  54.744  1.00  0.00     0.008 A 
HETATM   21  C16 UNL     1      28.589  -0.710  53.773  1.00  0.00    -0.062 A 
HETATM   22  C17 UNL     1      30.081  -0.854  53.748  1.00  0.00     0.048 C 
HETATM   23  C18 UNL     1      27.869  -1.349  52.784  1.00  0.00     0.008 A 
HETATM   24  C19 UNL     1      26.512  -1.211  52.817  1.00  0.00     0.019 A 
ENDBRANCH  17  18
ENDBRANCH  16  17
ENDBRANCH  15  16
ENDBRANCH   7  15
ENDBRANCH   1   4
BRANCH   1  25
HETATM   25  C8  UNL     1      22.436   5.667  48.915  1.00  0.00     0.237 C 
HETATM   26  N2  UNL     1      21.024   5.561  48.834  1.00  0.00    -0.369 N 
HETATM   27  H10 UNL     1      20.255   6.180  48.495  1.00  0.00     0.159 HD
HETATM   28  H11 UNL     1      20.638   4.639  49.196  1.00  0.00     0.159 HD
HETATM   29  O2  UNL     1      22.775   6.781  49.423  1.00  0.00    -0.272 OA
ENDBRANCH   1  25
TORSDOF 10
ENDMDL
MODEL 5
REMARK VINA RESULT:      -7.0      2.690      5.533
REMARK  10 active torsions:
REMARK  status: ('A' for Active; 'I' for Inactive)
REMARK    1  A    between atoms: C2_2  and  C3_3 
REMARK    2  A    between atoms: C3_3  and  O1_4 
REMARK    3  A    between atoms: O1_4  and  C4_5 
REMARK    4  A    between atoms: C5_6  and  C6_7 
REMARK    5  A    between atoms: C6_7  and  C8_10 
REMARK       I    between atoms: C8_10  and  N2_11 
REMARK    6  A    between atoms: C10_14  and  C11_15 
REMARK    7  A    between atoms: C11_15  and  C12_16 
REMARK    8  A    between atoms: C12_16  and  S1_17 
REMARK    9  A    between atoms: S1_17  and  C13_18 
REMARK   10  A    between atoms: C20_25  and  O3_26 
ROOT
HETATM    1  C6  UNL     1      22.470  -0.596  53.545  1.00  0.00     0.216 C 
HETATM    2  C7  UNL     1      22.928  -1.144  54.829  1.00  0.00     0.078 C 
HETATM    3  N1  UNL     1      23.268  -1.579  55.826  1.00  0.00    -0.196 NA
ENDROOT
BRANCH   1   4
HETATM    4  C5  UNL     1      23.268   0.608  53.253  1.00  0.00    -0.018 A 
HETATM    5  C4  UNL     1      24.718   0.699  53.580  1.00  0.00     0.209 A 
HETATM    6  C20 UNL     1      24.992   2.096  53.077  1.00  0.00     0.082 A 
HETATM    7  C10 UNL     1      23.911   2.669  52.574  1.00  0.00    -0.025 A 
HETATM    8  C9  UNL     1      22.812   1.719  52.687  1.00  0.00     0.017 A 
BRANCH   5   9
HETATM    9  O1  UNL     1      25.435  -0.120  52.745  1.00  0.00    -0.375 OA
BRANCH   9  10
HETATM   10  C3  UNL     1      26.441  -0.849  53.316  1.00  0.00     0.168 C 
BRANCH  10  11
HETATM   11  C2  UNL     1      27.804  -0.483  52.795  1.00  0.00     0.022 C 
HETATM   12  C1  UNL     1      28.863  -1.363  53.471  1.00  0.00     0.007 C 
ENDBRANCH  10  11
ENDBRANCH   9  10
ENDBRANCH   5   9
BRANCH   6  13
HETATM   13  O3  UNL     1      26.261   2.593  53.192  1.00  0.00    -0.361 OA
HETATM   14  H24 UNL     1      26.608   3.101  52.364  1.00  0.00     0.217 HD
ENDBRANCH   6  13
BRANCH   7  15
HETATM   15  C11 UNL     1      23.810   4.032  51.993  1.00  0.00     0.051 C 
BRANCH  15  16
HETATM   16  C12 UNL     1      24.582   4.136  50.695  1.00  0.00     0.084 C 
BRANCH  16  17
HETATM   17  S1  UNL     1      23.485   4.465  49.300  1.00  0.00    -0.130 SA
BRANCH  17  18
HETATM   18  C13 UNL     1      22.093   3.338  49.469  1.00  0.00     0.000 A 
HETATM   19  C14 UNL     1      22.144   1.998  49.144  1.00  0.00     0.019 A 
HETATM   20  C15 UNL     1      21.036   1.185  49.298  1.00  0.00     0.008 A 
HETATM   21  C16 UNL     1      19.874   1.717  49.778  1.00  0.00    -0.062 A 
HETATM   22  C17 UNL     1      18.656   0.861  49.956  1.00  0.00     0.048 C 
HETATM   23  C18 UNL     1      19.772   3.052  50.116  1.00  0.00     0.008 A 
HETATM   24  C19 UNL     1      20.887   3.820  49.950  1.00  0.00     0.019 A 
ENDBRANCH  17  18
ENDBRANCH  16  17
ENDBRANCH  15  16
ENDBRANCH   7  15
ENDBRANCH   1   4
BRANCH   1  25
HETATM   25  C8  UNL     1      21.008  -0.252  53.638  1.00  0.00     0.237 C 
HETATM   26  N2  UNL     1      20.481   0.117  54.902  1.00  0.00    -0.369 N 
HETATM   27  H10 UNL     1      19.641  -0.153  55.459  1.00  0.00     0.159 HD
HETATM   28  H11 UNL     1      21.066   0.838  55.421  1.00  0.00     0.159 HD
HETATM   29  O2  UNL     1      20.102  -0.227  52.747  1.00  0.00    -0.272 OA
ENDBRANCH   1  25
TORSDOF 10
ENDMDL
MODEL 6
REMARK VINA RESULT:      -6.9      3.027      7.338
REMARK  10 active torsions:
REMARK  status: ('A' for Active; 'I' for Inactive)
REMARK    1  A    between atoms: C2_2  and  C3_3 
REMARK    2  A    between atoms: C3_3  and  O1_4 
REMARK    3  A    between atoms: O1_4  and  C4_5 
REMARK    4  A    between atoms: C5_6  and  C6_7 
REMARK    5  A    between atoms: C6_7  and  C8_10 
REMARK       I    between atoms: C8_10  and  N2_11 
REMARK    6  A    between atoms: C10_14  and  C11_15 
REMARK    7  A    between atoms: C11_15  and  C12_16 
REMARK    8  A    between atoms: C12_16  and  S1_17 
REMARK    9  A    between atoms: S1_17  and  C13_18 
REMARK   10  A    between atoms: C20_25  and  O3_26 
ROOT
HETATM    1  C6  UNL     1      27.373   0.566  52.724  1.00  0.00     0.216 C 
HETATM    2  C7  UNL     1      28.186   1.729  53.104  1.00  0.00     0.078 C 
HETATM    3  N1  UNL     1      28.831   2.620  53.403  1.00  0.00    -0.196 NA
ENDROOT
BRANCH   1   4
HETATM    4  C5  UNL     1      25.956   0.972  52.751  1.00  0.00    -0.018 A 
HETATM    5  C4  UNL     1      25.506   2.315  52.290  1.00  0.00     0.209 A 
HETATM    6  C20 UNL     1      24.024   2.171  52.538  1.00  0.00     0.082 A 
HETATM    7  C10 UNL     1      23.711   0.987  53.039  1.00  0.00    -0.025 A 
HETATM    8  C9  UNL     1      24.945   0.223  53.175  1.00  0.00     0.017 A 
BRANCH   5   9
HETATM    9  O1  UNL     1      25.625   2.403  50.926  1.00  0.00    -0.375 OA
BRANCH   9  10
HETATM   10  C3  UNL     1      26.512   3.325  50.446  1.00  0.00     0.168 C 
BRANCH  10  11
HETATM   11  C2  UNL     1      25.971   4.116  49.286  1.00  0.00     0.022 C 
HETATM   12  C1  UNL     1      27.025   5.131  48.824  1.00  0.00     0.007 C 
ENDBRANCH  10  11
ENDBRANCH   9  10
ENDBRANCH   5   9
BRANCH   6  13
HETATM   13  O3  UNL     1      23.207   3.226  52.236  1.00  0.00    -0.361 OA
HETATM   14  H24 UNL     1      23.487   3.772  51.407  1.00  0.00     0.217 HD
ENDBRANCH   6  13
BRANCH   7  15
HETATM   15  C11 UNL     1      22.357   0.500  53.406  1.00  0.00     0.051 C 
BRANCH  15  16
HETATM   16  C12 UNL     1      21.604   0.001  52.191  1.00  0.00     0.084 C 
BRANCH  16  17
HETATM   17  S1  UNL     1      20.231   1.094  51.771  1.00  0.00    -0.130 SA
BRANCH  17  18
HETATM   18  C13 UNL     1      18.738   0.096  51.866  1.00  0.00     0.000 A 
HETATM   19  C14 UNL     1      17.734   0.121  50.919  1.00  0.00     0.019 A 
HETATM   20  C15 UNL     1      16.609  -0.673  51.051  1.00  0.00     0.008 A 
HETATM   21  C16 UNL     1      16.491  -1.493  52.136  1.00  0.00    -0.062 A 
HETATM   22  C17 UNL     1      15.284  -2.366  52.307  1.00  0.00     0.048 C 
HETATM   23  C18 UNL     1      17.467  -1.554  53.110  1.00  0.00     0.008 A 
HETATM   24  C19 UNL     1      18.560  -0.756  52.943  1.00  0.00     0.019 A 
ENDBRANCH  17  18
ENDBRANCH  16  17
ENDBRANCH  15  16
ENDBRANCH   7  15
ENDBRANCH   1   4
BRANCH   1  25
HETATM   25  C8  UNL     1      27.618  -0.559  53.692  1.00  0.00     0.237 C 
HETATM   26  N2  UNL     1      27.766  -1.872  53.177  1.00  0.00    -0.369 N 
HETATM   27  H10 UNL     1      27.370  -2.808  53.415  1.00  0.00     0.159 HD
HETATM   28  H11 UNL     1      28.434  -1.940  52.352  1.00  0.00     0.159 HD
HETATM   29  O2  UNL     1      27.724  -0.558  54.959  1.00  0.00    -0.272 OA
ENDBRANCH   1  25
TORSDOF 10
ENDMDL
MODEL 7
REMARK VINA RESULT:      -6.8      2.976      6.158
REMARK  10 active torsions:
REMARK  status: ('A' for Active; 'I' for Inactive)
REMARK    1  A    between atoms: C2_2  and  C3_3 
REMARK    2  A    between atoms: C3_3  and  O1_4 
REMARK    3  A    between atoms: O1_4  and  C4_5 
REMARK    4  A    between atoms: C5_6  and  C6_7 
REMARK    5  A    between atoms: C6_7  and  C8_10 
REMARK       I    between atoms: C8_10  and  N2_11 
REMARK    6  A    between atoms: C10_14  and  C11_15 
REMARK    7  A    between atoms: C11_15  and  C12_16 
REMARK    8  A    between atoms: C12_16  and  S1_17 
REMARK    9  A    between atoms: S1_17  and  C13_18 
REMARK   10  A    between atoms: C20_25  and  O3_26 
ROOT
HETATM    1  C6  UNL     1      24.927   3.105  51.989  1.00  0.00     0.216 C 
HETATM    2  C7  UNL     1      26.014   2.981  51.009  1.00  0.00     0.078 C 
HETATM    3  N1  UNL     1      26.851   2.900  50.239  1.00  0.00    -0.196 NA
ENDROOT
BRANCH   1   4
HETATM    4  C5  UNL     1      24.822   1.826  52.716  1.00  0.00    -0.018 A 
HETATM    5  C4  UNL     1      26.015   0.997  53.040  1.00  0.00     0.209 A 
HETATM    6  C20 UNL     1      25.330  -0.142  53.757  1.00  0.00     0.082 A 
HETATM    7  C10 UNL     1      24.018   0.020  53.818  1.00  0.00    -0.025 A 
HETATM    8  C9  UNL     1      23.695   1.276  53.154  1.00  0.00     0.017 A 
BRANCH   5   9
HETATM    9  O1  UNL     1      26.765   1.617  54.006  1.00  0.00    -0.375 OA
BRANCH   9  10
HETATM   10  C3  UNL     1      28.101   1.757  53.750  1.00  0.00     0.168 C 
BRANCH  10  11
HETATM   11  C2  UNL     1      28.958   0.824  54.561  1.00  0.00     0.022 C 
HETATM   12  C1  UNL     1      29.608  -0.210  53.632  1.00  0.00     0.007 C 
ENDBRANCH  10  11
ENDBRANCH   9  10
ENDBRANCH   5   9
BRANCH   6  13
HETATM   13  O3  UNL     1      26.098  -1.166  54.239  1.00  0.00    -0.361 OA
HETATM   14  H24 UNL     1      25.870  -1.469  55.198  1.00  0.00     0.217 HD
ENDBRANCH   6  13
BRANCH   7  15
HETATM   15  C11 UNL     1      23.032  -0.896  54.445  1.00  0.00     0.051 C 
BRANCH  15  16
HETATM   16  C12 UNL     1      22.010  -1.377  53.437  1.00  0.00     0.084 C 
BRANCH  16  17
HETATM   17  S1  UNL     1      20.476  -0.433  53.553  1.00  0.00    -0.130 SA
BRANCH  17  18
HETATM   18  C13 UNL     1      20.334   0.500  52.021  1.00  0.00     0.000 A 
HETATM   19  C14 UNL     1      19.409   1.503  51.815  1.00  0.00     0.019 A 
HETATM   20  C15 UNL     1      19.353   2.183  50.611  1.00  0.00     0.008 A 
HETATM   21  C16 UNL     1      20.226   1.856  49.614  1.00  0.00    -0.062 A 
HETATM   22  C17 UNL     1      20.190   2.575  48.299  1.00  0.00     0.048 C 
HETATM   23  C18 UNL     1      21.168   0.860  49.772  1.00  0.00     0.008 A 
HETATM   24  C19 UNL     1      21.192   0.213  50.973  1.00  0.00     0.019 A 
ENDBRANCH  17  18
ENDBRANCH  16  17
ENDBRANCH  15  16
ENDBRANCH   7  15
ENDBRANCH   1   4
BRANCH   1  25
HETATM   25  C8  UNL     1      23.639   3.414  51.276  1.00  0.00     0.237 C 
HETATM   26  N2  UNL     1      23.621   3.355  49.859  1.00  0.00    -0.369 N 
HETATM   27  H10 UNL     1      23.271   3.978  49.099  1.00  0.00     0.159 HD
HETATM   28  H11 UNL     1      24.066   2.477  49.458  1.00  0.00     0.159 HD
HETATM   29  O2  UNL     1      22.496   3.738  51.728  1.00  0.00    -0.272 OA
ENDBRANCH   1  25
TORSDOF 10
ENDMDL
MODEL 8
REMARK VINA RESULT:      -6.8      1.604      2.163
REMARK  10 active torsions:
REMARK  status: ('A' for Active; 'I' for Inactive)
REMARK    1  A    between atoms: C2_2  and  C3_3 
REMARK    2  A    between atoms: C3_3  and  O1_4 
REMARK    3  A    between atoms: O1_4  and  C4_5 
REMARK    4  A    between atoms: C5_6  and  C6_7 
REMARK    5  A    between atoms: C6_7  and  C8_10 
REMARK       I    between atoms: C8_10  and  N2_11 
REMARK    6  A    between atoms: C10_14  and  C11_15 
REMARK    7  A    between atoms: C11_15  and  C12_16 
REMARK    8  A    between atoms: C12_16  and  S1_17 
REMARK    9  A    between atoms: S1_17  and  C13_18 
REMARK   10  A    between atoms: C20_25  and  O3_26 
ROOT
HETATM    1  C6  UNL     1      26.220   0.329  53.883  1.00  0.00     0.216 C 
HETATM    2  C7  UNL     1      25.694  -0.456  55.009  1.00  0.00     0.078 C 
HETATM    3  N1  UNL     1      25.300  -1.076  55.880  1.00  0.00    -0.196 NA
ENDROOT
BRANCH   1   4
HETATM    4  C5  UNL     1      25.138   1.202  53.392  1.00  0.00    -0.018 A 
HETATM    5  C4  UNL     1      23.878   0.657  52.816  1.00  0.00     0.209 A 
HETATM    6  C20 UNL     1      23.176   1.956  52.500  1.00  0.00     0.082 A 
HETATM    7  C10 UNL     1      23.901   3.012  52.832  1.00  0.00    -0.025 A 
HETATM    8  C9  UNL     1      25.152   2.530  53.401  1.00  0.00     0.017 A 
BRANCH   5   9
HETATM    9  O1  UNL     1      23.122   0.084  53.807  1.00  0.00    -0.375 OA
BRANCH   9  10
HETATM   10  C3  UNL     1      22.434  -1.050  53.475  1.00  0.00     0.168 C 
BRANCH  10  11
HETATM   11  C2  UNL     1      21.292  -1.342  54.410  1.00  0.00     0.022 C 
HETATM   12  C1  UNL     1      19.993  -0.777  53.822  1.00  0.00     0.007 C 
ENDBRANCH  10  11
ENDBRANCH   9  10
ENDBRANCH   5   9
BRANCH   6  13
HETATM   13  O3  UNL     1      21.932   1.904  51.932  1.00  0.00    -0.361 OA
HETATM   14  H24 UNL     1      21.502   0.967  51.909  1.00  0.00     0.217 HD
ENDBRANCH   6  13
BRANCH   7  15
HETATM   15  C11 UNL     1      23.529   4.440  52.665  1.00  0.00     0.051 C 
BRANCH  15  16
HETATM   16  C12 UNL     1      23.667   4.880  51.223  1.00  0.00     0.084 C 
BRANCH  16  17
HETATM   17  S1  UNL     1      24.206   6.598  51.106  1.00  0.00    -0.130 SA
BRANCH  17  18
HETATM   18  C13 UNL     1      25.613   6.616  49.986  1.00  0.00     0.000 A 
HETATM   19  C14 UNL     1      26.063   5.507  49.298  1.00  0.00     0.019 A 
HETATM   20  C15 UNL     1      27.153   5.588  48.450  1.00  0.00     0.008 A 
HETATM   21  C16 UNL     1      27.792   6.784  48.292  1.00  0.00    -0.062 A 
HETATM   22  C17 UNL     1      28.976   6.904  47.380  1.00  0.00     0.048 C 
HETATM   23  C18 UNL     1      27.381   7.921  48.958  1.00  0.00     0.008 A 
HETATM   24  C19 UNL     1      26.303   7.799  49.785  1.00  0.00     0.019 A 
ENDBRANCH  17  18
ENDBRANCH  16  17
ENDBRANCH  15  16
ENDBRANCH   7  15
ENDBRANCH   1   4
BRANCH   1  25
HETATM   25  C8  UNL     1      26.684  -0.600  52.795  1.00  0.00     0.237 C 
HETATM   26  N2  UNL     1      26.998  -1.940  53.139  1.00  0.00    -0.369 N 
HETATM   27  H10 UNL     1      27.792  -2.586  52.941  1.00  0.00     0.159 HD
HETATM   28  H11 UNL     1      26.263  -2.414  53.744  1.00  0.00     0.159 HD
HETATM   29  O2  UNL     1      26.859  -0.402  51.551  1.00  0.00    -0.272 OA
ENDBRANCH   1  25
TORSDOF 10
ENDMDL
MODEL 9
REMARK VINA RESULT:      -6.8      2.733      4.313
REMARK  10 active torsions:
REMARK  status: ('A' for Active; 'I' for Inactive)
REMARK    1  A    between atoms: C2_2  and  C3_3 
REMARK    2  A    between atoms: C3_3  and  O1_4 
REMARK    3  A    between atoms: O1_4  and  C4_5 
REMARK    4  A    between atoms: C5_6  and  C6_7 
REMARK    5  A    between atoms: C6_7  and  C8_10 
REMARK       I    between atoms: C8_10  and  N2_11 
REMARK    6  A    between atoms: C10_14  and  C11_15 
REMARK    7  A    between atoms: C11_15  and  C12_16 
REMARK    8  A    between atoms: C12_16  and  S1_17 
REMARK    9  A    between atoms: S1_17  and  C13_18 
REMARK   10  A    between atoms: C20_25  and  O3_26 
ROOT
HETATM    1  C6  UNL     1      22.263   1.435  50.563  1.00  0.00     0.216 C 
HETATM    2  C7  UNL     1      21.327   0.748  51.463  1.00  0.00     0.078 C 
HETATM    3  N1  UNL     1      20.598   0.203  52.149  1.00  0.00    -0.196 NA
ENDROOT
BRANCH   1   4
HETATM    4  C5  UNL     1      22.446   2.811  51.059  1.00  0.00    -0.018 A 
HETATM    5  C4  UNL     1      23.343   3.130  52.203  1.00  0.00     0.209 A 
HETATM    6  C20 UNL     1      23.141   4.626  52.259  1.00  0.00     0.082 A 
HETATM    7  C10 UNL     1      22.298   5.053  51.333  1.00  0.00    -0.025 A 
HETATM    8  C9  UNL     1      21.855   3.894  50.568  1.00  0.00     0.017 A 
BRANCH   5   9
HETATM    9  O1  UNL     1      24.652   2.969  51.828  1.00  0.00    -0.375 OA
BRANCH   9  10
HETATM   10  C3  UNL     1      25.423   2.163  52.618  1.00  0.00     0.168 C 
BRANCH  10  11
HETATM   11  C2  UNL     1      25.493   0.743  52.124  1.00  0.00     0.022 C 
HETATM   12  C1  UNL     1      24.784  -0.181  53.122  1.00  0.00     0.007 C 
ENDBRANCH  10  11
ENDBRANCH   9  10
ENDBRANCH   5   9
BRANCH   6  13
HETATM   13  O3  UNL     1      23.814   5.339  53.213  1.00  0.00    -0.361 OA
HETATM   14  H24 UNL     1      24.801   5.069  53.345  1.00  0.00     0.217 HD
ENDBRANCH   6  13
BRANCH   7  15
HETATM   15  C11 UNL     1      21.866   6.454  51.095  1.00  0.00     0.051 C 
BRANCH  15  16
HETATM   16  C12 UNL     1      22.946   7.252  50.398  1.00  0.00     0.084 C 
BRANCH  16  17
HETATM   17  S1  UNL     1      23.251   6.633  48.731  1.00  0.00    -0.130 SA
BRANCH  17  18
HETATM   18  C13 UNL     1      24.991   6.183  48.664  1.00  0.00     0.000 A 
HETATM   19  C14 UNL     1      25.488   4.968  49.092  1.00  0.00     0.019 A 
HETATM   20  C15 UNL     1      26.840   4.684  49.013  1.00  0.00     0.008 A 
HETATM   21  C16 UNL     1      27.694   5.620  48.505  1.00  0.00    -0.062 A 
HETATM   22  C17 UNL     1      29.163   5.341  48.406  1.00  0.00     0.048 C 
HETATM   23  C18 UNL     1      27.245   6.849  48.064  1.00  0.00     0.008 A 
HETATM   24  C19 UNL     1      25.906   7.090  48.159  1.00  0.00     0.019 A 
ENDBRANCH  17  18
ENDBRANCH  16  17
ENDBRANCH  15  16
ENDBRANCH   7  15
ENDBRANCH   1   4
BRANCH   1  25
HETATM   25  C8  UNL     1      21.702   1.447  49.167  1.00  0.00     0.237 C 
HETATM   26  N2  UNL     1      20.317   1.197  48.995  1.00  0.00    -0.369 N 
HETATM   27  H10 UNL     1      19.749   0.586  48.368  1.00  0.00     0.159 HD
HETATM   28  H11 UNL     1      19.693   1.755  49.651  1.00  0.00     0.159 HD
HETATM   29  O2  UNL     1      22.266   1.650  48.046  1.00  0.00    -0.272 OA
ENDBRANCH   1  25
TORSDOF 10
ENDMDL
