MODEL 1
REMARK VINA RESULT:      -9.7      0.000      0.000
REMARK  3 active torsions:
REMARK  status: ('A' for Active; 'I' for Inactive)
REMARK    1  A    between atoms: C2_3  and  C3_4 
REMARK    2  A    between atoms: C16_19  and  N4_20 
REMARK    3  A    between atoms: N4_20  and  C17_21 
ROOT
HETATM    1  C3  UNL     1      23.713   0.729  53.073  1.00  0.00     0.057 C 
HETATM    2  C4  UNL     1      23.295  -0.737  53.280  1.00  0.00     0.016 C 
HETATM    3  C5  UNL     1      22.607  -0.890  54.623  1.00  0.00     0.021 C 
HETATM    4  C6  UNL     1      21.126  -0.949  54.447  1.00  0.00     0.120 C 
HETATM    5  N2  UNL     1      20.647   0.089  53.563  1.00  0.00    -0.389 N 
HETATM    6  C7  UNL     1      21.216   1.207  52.892  1.00  0.00     0.048 C 
HETATM    7  C8  UNL     1      22.506   1.443  52.705  1.00  0.00    -0.042 C 
HETATM    8  C9  UNL     1      23.084   2.609  52.008  1.00  0.00     0.046 C 
HETATM    9  C10 UNL     1      22.595   3.936  52.627  1.00  0.00     0.022 C 
HETATM   10  C11 UNL     1      23.833   4.766  52.872  1.00  0.00     0.015 C 
HETATM   11  C12 UNL     1      21.591   4.608  51.793  1.00  0.00    -0.006 C 
HETATM   12  C13 UNL     1      21.895   5.837  51.094  1.00  0.00     0.084 A 
HETATM   13  C14 UNL     1      21.057   6.569  50.309  1.00  0.00     0.148 A 
HETATM   14  N3  UNL     1      21.383   7.701  49.672  1.00  0.00    -0.267 NA
HETATM   15  C15 UNL     1      22.621   8.202  49.780  1.00  0.00     0.166 A 
HETATM   16  C16 UNL     1      23.509   7.507  50.559  1.00  0.00     0.146 A 
HETATM   17  N5  UNL     1      23.104   6.386  51.160  1.00  0.00    -0.228 NA
HETATM   18  C23 UNL     1      20.372   4.126  51.638  1.00  0.00     0.126 C 
HETATM   19  N6  UNL     1      19.590   3.003  52.078  1.00  0.00    -0.270 NA
HETATM   20  C24 UNL     1      19.908   1.833  52.580  1.00  0.00     0.145 C 
HETATM   21  H12 UNL     1      19.616  -0.105  53.441  1.00  0.00     0.159 HD
ENDROOT
BRANCH  16  22
HETATM   22  N4  UNL     1      24.850   7.904  50.788  1.00  0.00    -0.340 N 
HETATM   23  H21 UNL     1      25.106   8.406  51.680  1.00  0.00     0.167 HD
BRANCH  22  24
HETATM   24  C17 UNL     1      26.000   7.745  49.985  1.00  0.00     0.035 A 
HETATM   25  C18 UNL     1      26.242   6.610  49.203  1.00  0.00     0.029 A 
HETATM   26  C19 UNL     1      27.436   6.573  48.481  1.00  0.00     0.004 A 
HETATM   27  C20 UNL     1      28.401   7.564  48.471  1.00  0.00     0.024 A 
HETATM   28  C21 UNL     1      28.157   8.669  49.237  1.00  0.00     0.036 A 
HETATM   29 CL1  UNL     1      29.347   9.949  49.259  1.00  0.00    -0.084 Cl
HETATM   30  C22 UNL     1      26.988   8.731  49.959  1.00  0.00     0.053 A 
ENDBRANCH  22  24
ENDBRANCH  16  22
BRANCH   1  31
HETATM   31  C2  UNL     1      24.835   0.717  52.160  1.00  0.00     0.254 C 
HETATM   32  N1  UNL     1      26.068   0.865  52.474  1.00  0.00    -0.428 NA
HETATM   33  C1  UNL     1      26.472   1.069  53.858  1.00  0.00     0.131 C 
ENDBRANCH   1  31
TORSDOF 3
ENDMDL
MODEL 2
REMARK VINA RESULT:      -9.5      2.747      5.330
REMARK  3 active torsions:
REMARK  status: ('A' for Active; 'I' for Inactive)
REMARK    1  A    between atoms: C2_3  and  C3_4 
REMARK    2  A    between atoms: C16_19  and  N4_20 
REMARK    3  A    between atoms: N4_20  and  C17_21 
ROOT
HETATM    1  C3  UNL     1      18.196   0.596  51.679  1.00  0.00     0.057 C 
HETATM    2  C4  UNL     1      16.907   0.116  52.370  1.00  0.00     0.016 C 
HETATM    3  C5  UNL     1      16.673  -1.350  52.057  1.00  0.00     0.021 C 
HETATM    4  C6  UNL     1      17.089  -2.202  53.210  1.00  0.00     0.120 C 
HETATM    5  N2  UNL     1      18.387  -1.825  53.717  1.00  0.00    -0.389 N 
HETATM    6  C7  UNL     1      19.409  -0.909  53.341  1.00  0.00     0.048 C 
HETATM    7  C8  UNL     1      19.293   0.095  52.483  1.00  0.00    -0.042 C 
HETATM    8  C9  UNL     1      20.362   1.037  52.099  1.00  0.00     0.046 C 
HETATM    9  C10 UNL     1      21.605   0.295  51.567  1.00  0.00     0.022 C 
HETATM   10  C11 UNL     1      21.964   0.959  50.259  1.00  0.00     0.015 C 
HETATM   11  C12 UNL     1      22.706   0.274  52.539  1.00  0.00    -0.006 C 
HETATM   12  C13 UNL     1      23.914   1.040  52.320  1.00  0.00     0.084 A 
HETATM   13  C14 UNL     1      25.012   1.095  53.125  1.00  0.00     0.148 A 
HETATM   14  N3  UNL     1      26.109   1.825  52.890  1.00  0.00    -0.267 NA
HETATM   15  C15 UNL     1      26.190   2.582  51.787  1.00  0.00     0.166 A 
HETATM   16  C16 UNL     1      25.115   2.565  50.938  1.00  0.00     0.146 A 
HETATM   17  N5  UNL     1      24.058   1.810  51.247  1.00  0.00    -0.228 NA
HETATM   18  C23 UNL     1      22.647  -0.434  53.650  1.00  0.00     0.126 C 
HETATM   19  N6  UNL     1      21.734  -1.319  54.320  1.00  0.00    -0.270 NA
HETATM   20  C24 UNL     1      20.442  -1.522  54.211  1.00  0.00     0.145 C 
HETATM   21  H12 UNL     1      18.535  -2.423  54.576  1.00  0.00     0.159 HD
ENDROOT
BRANCH  16  22
HETATM   22  N4  UNL     1      25.043   3.296  49.726  1.00  0.00    -0.340 N 
HETATM   23  H21 UNL     1      24.389   2.982  48.960  1.00  0.00     0.167 HD
BRANCH  22  24
HETATM   24  C17 UNL     1      25.737   4.454  49.315  1.00  0.00     0.035 A 
HETATM   25  C18 UNL     1      25.139   5.715  49.218  1.00  0.00     0.029 A 
HETATM   26  C19 UNL     1      25.938   6.769  48.768  1.00  0.00     0.004 A 
HETATM   27  C20 UNL     1      27.270   6.672  48.409  1.00  0.00     0.024 A 
HETATM   28  C21 UNL     1      27.846   5.436  48.507  1.00  0.00     0.036 A 
HETATM   29 CL1  UNL     1      29.528   5.261  48.065  1.00  0.00    -0.084 Cl
HETATM   30  C22 UNL     1      27.082   4.381  48.948  1.00  0.00     0.053 A 
ENDBRANCH  22  24
ENDBRANCH  16  22
BRANCH   1  31
HETATM   31  C2  UNL     1      18.055   2.022  51.483  1.00  0.00     0.254 C 
HETATM   32  N1  UNL     1      17.687   2.605  50.403  1.00  0.00    -0.428 NA
HETATM   33  C1  UNL     1      17.357   1.838  49.211  1.00  0.00     0.131 C 
ENDBRANCH   1  31
TORSDOF 3
ENDMDL
MODEL 3
REMARK VINA RESULT:      -9.2      4.894      8.978
REMARK  3 active torsions:
REMARK  status: ('A' for Active; 'I' for Inactive)
REMARK    1  A    between atoms: C2_3  and  C3_4 
REMARK    2  A    between atoms: C16_19  and  N4_20 
REMARK    3  A    between atoms: N4_20  and  C17_21 
ROOT
HETATM    1  C3  UNL     1      24.064   1.654  52.182  1.00  0.00     0.057 C 
HETATM    2  C4  UNL     1      25.594   1.528  52.287  1.00  0.00     0.016 C 
HETATM    3  C5  UNL     1      26.062   2.063  53.626  1.00  0.00     0.021 C 
HETATM    4  C6  UNL     1      26.343   0.939  54.568  1.00  0.00     0.120 C 
HETATM    5  N2  UNL     1      25.279  -0.038  54.572  1.00  0.00    -0.389 N 
HETATM    6  C7  UNL     1      23.992  -0.156  53.976  1.00  0.00     0.048 C 
HETATM    7  C8  UNL     1      23.516   0.570  52.975  1.00  0.00    -0.042 C 
HETATM    8  C9  UNL     1      22.178   0.440  52.367  1.00  0.00     0.046 C 
HETATM    9  C10 UNL     1      21.062   0.570  53.424  1.00  0.00     0.022 C 
HETATM   10  C11 UNL     1      20.082   1.581  52.878  1.00  0.00     0.015 C 
HETATM   11  C12 UNL     1      20.450  -0.723  53.757  1.00  0.00    -0.006 C 
HETATM   12  C13 UNL     1      19.095  -1.038  53.359  1.00  0.00     0.084 A 
HETATM   13  C14 UNL     1      18.405  -2.183  53.618  1.00  0.00     0.148 A 
HETATM   14  N3  UNL     1      17.152  -2.438  53.222  1.00  0.00    -0.267 NA
HETATM   15  C15 UNL     1      16.471  -1.527  52.512  1.00  0.00     0.166 A 
HETATM   16  C16 UNL     1      17.116  -0.354  52.222  1.00  0.00     0.146 A 
HETATM   17  N5  UNL     1      18.367  -0.178  52.653  1.00  0.00    -0.228 NA
HETATM   18  C23 UNL     1      21.101  -1.654  54.427  1.00  0.00     0.126 C 
HETATM   19  N6  UNL     1      22.393  -1.851  55.025  1.00  0.00    -0.270 NA
HETATM   20  C24 UNL     1      23.556  -1.265  54.858  1.00  0.00     0.145 C 
HETATM   21  H12 UNL     1      25.623  -0.821  55.193  1.00  0.00     0.159 HD
ENDROOT
BRANCH  16  22
HETATM   22  N4  UNL     1      16.538   0.716  51.493  1.00  0.00    -0.340 N 
HETATM   23  H21 UNL     1      16.523   0.687  50.438  1.00  0.00     0.167 HD
BRANCH  22  24
HETATM   24  C17 UNL     1      15.934   1.908  51.945  1.00  0.00     0.035 A 
HETATM   25  C18 UNL     1      16.531   3.168  51.821  1.00  0.00     0.029 A 
HETATM   26  C19 UNL     1      15.833   4.260  52.340  1.00  0.00     0.004 A 
HETATM   27  C20 UNL     1      14.601   4.204  52.967  1.00  0.00     0.024 A 
HETATM   28  C21 UNL     1      14.025   2.969  53.084  1.00  0.00     0.036 A 
HETATM   29 CL1  UNL     1      12.469   2.846  53.869  1.00  0.00    -0.084 Cl
HETATM   30  C22 UNL     1      14.692   1.876  52.581  1.00  0.00     0.053 A 
ENDBRANCH  22  24
ENDBRANCH  16  22
BRANCH   1  31
HETATM   31  C2  UNL     1      23.749   1.729  50.773  1.00  0.00     0.254 C 
HETATM   32  N1  UNL     1      23.271   2.746  50.157  1.00  0.00    -0.428 NA
HETATM   33  C1  UNL     1      22.989   3.987  50.862  1.00  0.00     0.131 C 
ENDBRANCH   1  31
TORSDOF 3
ENDMDL
MODEL 4
REMARK VINA RESULT:      -8.7      1.935      2.068
REMARK  3 active torsions:
REMARK  status: ('A' for Active; 'I' for Inactive)
REMARK    1  A    between atoms: C2_3  and  C3_4 
REMARK    2  A    between atoms: C16_19  and  N4_20 
REMARK    3  A    between atoms: N4_20  and  C17_21 
ROOT
HETATM    1  C3  UNL     1      23.806   0.134  53.321  1.00  0.00     0.057 C 
HETATM    2  C4  UNL     1      23.355  -1.236  53.858  1.00  0.00     0.016 C 
HETATM    3  C5  UNL     1      22.351  -1.043  54.978  1.00  0.00     0.021 C 
HETATM    4  C6  UNL     1      20.962  -1.269  54.480  1.00  0.00     0.120 C 
HETATM    5  N2  UNL     1      20.718  -0.578  53.235  1.00  0.00    -0.389 N 
HETATM    6  C7  UNL     1      21.433   0.336  52.412  1.00  0.00     0.048 C 
HETATM    7  C8  UNL     1      22.728   0.609  52.476  1.00  0.00    -0.042 C 
HETATM    8  C9  UNL     1      23.458   1.562  51.617  1.00  0.00     0.046 C 
HETATM    9  C10 UNL     1      22.825   2.968  51.667  1.00  0.00     0.022 C 
HETATM   10  C11 UNL     1      23.957   3.930  51.936  1.00  0.00     0.015 C 
HETATM   11  C12 UNL     1      22.060   3.283  50.453  1.00  0.00    -0.006 C 
HETATM   12  C13 UNL     1      22.526   4.274  49.508  1.00  0.00     0.084 A 
HETATM   13  C14 UNL     1      21.910   4.674  48.361  1.00  0.00     0.148 A 
HETATM   14  N3  UNL     1      22.382   5.591  47.507  1.00  0.00    -0.267 NA
HETATM   15  C15 UNL     1      23.551   6.199  47.750  1.00  0.00     0.166 A 
HETATM   16  C16 UNL     1      24.217   5.836  48.892  1.00  0.00     0.146 A 
HETATM   17  N5  UNL     1      23.678   4.913  49.691  1.00  0.00    -0.228 NA
HETATM   18  C23 UNL     1      20.922   2.681  50.166  1.00  0.00     0.126 C 
HETATM   19  N6  UNL     1      20.058   1.678  50.727  1.00  0.00    -0.270 NA
HETATM   20  C24 UNL     1      20.244   0.736  51.621  1.00  0.00     0.145 C 
HETATM   21  H12 UNL     1      19.751  -0.881  52.934  1.00  0.00     0.159 HD
ENDROOT
BRANCH  16  22
HETATM   22  N4  UNL     1      25.455   6.389  49.303  1.00  0.00    -0.340 N 
HETATM   23  H21 UNL     1      25.644   6.556  50.328  1.00  0.00     0.167 HD
BRANCH  22  24
HETATM   24  C17 UNL     1      26.573   6.794  48.542  1.00  0.00     0.035 A 
HETATM   25  C18 UNL     1      26.587   7.948  47.751  1.00  0.00     0.029 A 
HETATM   26  C19 UNL     1      27.751   8.212  47.026  1.00  0.00     0.004 A 
HETATM   27  C20 UNL     1      28.891   7.430  47.022  1.00  0.00     0.024 A 
HETATM   28  C21 UNL     1      28.869   6.304  47.798  1.00  0.00     0.036 A 
HETATM   29 CL1  UNL     1      30.285   5.282  47.826  1.00  0.00    -0.084 Cl
HETATM   30  C22 UNL     1      27.735   6.020  48.522  1.00  0.00     0.053 A 
ENDBRANCH  22  24
ENDBRANCH  16  22
BRANCH   1  31
HETATM   31  C2  UNL     1      25.121  -0.056  52.751  1.00  0.00     0.254 C 
HETATM   32  N1  UNL     1      26.237   0.036  53.375  1.00  0.00    -0.428 NA
HETATM   33  C1  UNL     1      26.281   0.357  54.794  1.00  0.00     0.131 C 
ENDBRANCH   1  31
TORSDOF 3
ENDMDL
MODEL 5
REMARK VINA RESULT:      -8.7      4.041      9.786
REMARK  3 active torsions:
REMARK  status: ('A' for Active; 'I' for Inactive)
REMARK    1  A    between atoms: C2_3  and  C3_4 
REMARK    2  A    between atoms: C16_19  and  N4_20 
REMARK    3  A    between atoms: N4_20  and  C17_21 
ROOT
HETATM    1  C3  UNL     1      31.979   7.452  48.169  1.00  0.00     0.057 C 
HETATM    2  C4  UNL     1      33.294   8.250  48.136  1.00  0.00     0.016 C 
HETATM    3  C5  UNL     1      33.396   9.018  46.832  1.00  0.00     0.021 C 
HETATM    4  C6  UNL     1      33.039  10.452  47.042  1.00  0.00     0.120 C 
HETATM    5  N2  UNL     1      31.826  10.598  47.813  1.00  0.00    -0.389 N 
HETATM    6  C7  UNL     1      30.837   9.724  48.344  1.00  0.00     0.048 C 
HETATM    7  C8  UNL     1      30.936   8.409  48.478  1.00  0.00    -0.042 C 
HETATM    8  C9  UNL     1      29.901   7.512  49.029  1.00  0.00     0.046 C 
HETATM    9  C10 UNL     1      28.563   7.664  48.276  1.00  0.00     0.022 C 
HETATM   10  C11 UNL     1      28.122   6.266  47.915  1.00  0.00     0.015 C 
HETATM   11  C12 UNL     1      27.565   8.415  49.049  1.00  0.00    -0.006 C 
HETATM   12  C13 UNL     1      26.396   7.765  49.599  1.00  0.00     0.084 A 
HETATM   13  C14 UNL     1      25.391   8.342  50.313  1.00  0.00     0.148 A 
HETATM   14  N3  UNL     1      24.328   7.700  50.813  1.00  0.00    -0.267 NA
HETATM   15  C15 UNL     1      24.189   6.380  50.626  1.00  0.00     0.166 A 
HETATM   16  C16 UNL     1      25.172   5.745  49.913  1.00  0.00     0.146 A 
HETATM   17  N5  UNL     1      26.200   6.458  49.449  1.00  0.00    -0.228 NA
HETATM   18  C23 UNL     1      27.686   9.708  49.279  1.00  0.00     0.126 C 
HETATM   19  N6  UNL     1      28.599  10.778  48.983  1.00  0.00    -0.270 NA
HETATM   20  C24 UNL     1      29.857  10.805  48.609  1.00  0.00     0.145 C 
HETATM   21  H12 UNL     1      31.724  11.637  47.976  1.00  0.00     0.159 HD
ENDROOT
BRANCH  16  22
HETATM   22  N4  UNL     1      25.173   4.359  49.615  1.00  0.00    -0.340 N 
HETATM   23  H21 UNL     1      25.028   4.033  48.622  1.00  0.00     0.167 HD
BRANCH  22  24
HETATM   24  C17 UNL     1      25.340   3.243  50.462  1.00  0.00     0.035 A 
HETATM   25  C18 UNL     1      26.592   2.746  50.842  1.00  0.00     0.029 A 
HETATM   26  C19 UNL     1      26.610   1.615  51.660  1.00  0.00     0.004 A 
HETATM   27  C20 UNL     1      25.496   0.942  52.128  1.00  0.00     0.024 A 
HETATM   28  C21 UNL     1      24.277   1.434  51.752  1.00  0.00     0.036 A 
HETATM   29 CL1  UNL     1      22.838   0.618  52.316  1.00  0.00    -0.084 Cl
HETATM   30  C22 UNL     1      24.230   2.547  50.946  1.00  0.00     0.053 A 
ENDBRANCH  22  24
ENDBRANCH  16  22
BRANCH   1  31
HETATM   31  C2  UNL     1      32.197   6.330  49.055  1.00  0.00     0.254 C 
HETATM   32  N1  UNL     1      32.103   5.091  48.745  1.00  0.00    -0.428 NA
HETATM   33  C1  UNL     1      31.750   4.679  47.394  1.00  0.00     0.131 C 
ENDBRANCH   1  31
TORSDOF 3
ENDMDL
MODEL 6
REMARK VINA RESULT:      -8.5      2.905      5.532
REMARK  3 active torsions:
REMARK  status: ('A' for Active; 'I' for Inactive)
REMARK    1  A    between atoms: C2_3  and  C3_4 
REMARK    2  A    between atoms: C16_19  and  N4_20 
REMARK    3  A    between atoms: N4_20  and  C17_21 
ROOT
HETATM    1  C3  UNL     1      18.008   0.088  51.828  1.00  0.00     0.057 C 
HETATM    2  C4  UNL     1      16.870  -0.509  52.675  1.00  0.00     0.016 C 
HETATM    3  C5  UNL     1      16.823  -2.013  52.486  1.00  0.00     0.021 C 
HETATM    4  C6  UNL     1      17.461  -2.704  53.646  1.00  0.00     0.120 C 
HETATM    5  N2  UNL     1      18.731  -2.111  53.994  1.00  0.00    -0.389 N 
HETATM    6  C7  UNL     1      19.571  -1.096  53.457  1.00  0.00     0.048 C 
HETATM    7  C8  UNL     1      19.234  -0.190  52.550  1.00  0.00    -0.042 C 
HETATM    8  C9  UNL     1      20.116   0.856  51.999  1.00  0.00     0.046 C 
HETATM    9  C10 UNL     1      21.401   0.252  51.395  1.00  0.00     0.022 C 
HETATM   10  C11 UNL     1      21.541   0.853  50.017  1.00  0.00     0.015 C 
HETATM   11  C12 UNL     1      22.576   0.463  52.251  1.00  0.00    -0.006 C 
HETATM   12  C13 UNL     1      23.636   1.367  51.863  1.00  0.00     0.084 A 
HETATM   13  C14 UNL     1      24.781   1.638  52.548  1.00  0.00     0.148 A 
HETATM   14  N3  UNL     1      25.735   2.491  52.155  1.00  0.00    -0.267 NA
HETATM   15  C15 UNL     1      25.607   3.161  51.002  1.00  0.00     0.166 A 
HETATM   16  C16 UNL     1      24.473   2.928  50.268  1.00  0.00     0.146 A 
HETATM   17  N5  UNL     1      23.569   2.061  50.731  1.00  0.00    -0.228 NA
HETATM   18  C23 UNL     1      22.720  -0.155  53.408  1.00  0.00     0.126 C 
HETATM   19  N6  UNL     1      22.008  -1.101  54.224  1.00  0.00    -0.270 NA
HETATM   20  C24 UNL     1      20.755  -1.489  54.259  1.00  0.00     0.145 C 
HETATM   21  H12 UNL     1      19.040  -2.613  54.872  1.00  0.00     0.159 HD
ENDROOT
BRANCH  16  22
HETATM   22  N4  UNL     1      24.187   3.542  49.023  1.00  0.00    -0.340 N 
HETATM   23  H21 UNL     1      24.474   3.069  48.124  1.00  0.00     0.167 HD
BRANCH  22  24
HETATM   24  C17 UNL     1      23.544   4.764  48.734  1.00  0.00     0.035 A 
HETATM   25  C18 UNL     1      22.169   4.874  48.500  1.00  0.00     0.029 A 
HETATM   26  C19 UNL     1      21.671   6.142  48.194  1.00  0.00     0.004 A 
HETATM   27  C20 UNL     1      22.421   7.300  48.103  1.00  0.00     0.024 A 
HETATM   28  C21 UNL     1      23.764   7.184  48.333  1.00  0.00     0.036 A 
HETATM   29 CL1  UNL     1      24.755   8.620  48.227  1.00  0.00    -0.084 Cl
HETATM   30  C22 UNL     1      24.281   5.947  48.635  1.00  0.00     0.053 A 
ENDBRANCH  22  24
ENDBRANCH  16  22
BRANCH   1  31
HETATM   31  C2  UNL     1      17.645   1.460  51.552  1.00  0.00     0.254 C 
HETATM   32  N1  UNL     1      17.072   1.893  50.491  1.00  0.00    -0.428 NA
HETATM   33  C1  UNL     1      16.713   0.988  49.408  1.00  0.00     0.131 C 
ENDBRANCH   1  31
TORSDOF 3
ENDMDL
MODEL 7
REMARK VINA RESULT:      -8.4      4.037      6.786
REMARK  3 active torsions:
REMARK  status: ('A' for Active; 'I' for Inactive)
REMARK    1  A    between atoms: C2_3  and  C3_4 
REMARK    2  A    between atoms: C16_19  and  N4_20 
REMARK    3  A    between atoms: N4_20  and  C17_21 
ROOT
HETATM    1  C3  UNL     1      23.918   0.490  52.733  1.00  0.00     0.057 C 
HETATM    2  C4  UNL     1      24.981   0.003  53.733  1.00  0.00     0.016 C 
HETATM    3  C5  UNL     1      25.942  -0.943  53.041  1.00  0.00     0.021 C 
HETATM    4  C6  UNL     1      27.214  -0.239  52.701  1.00  0.00     0.120 C 
HETATM    5  N2  UNL     1      26.971   1.042  52.080  1.00  0.00    -0.389 N 
HETATM    6  C7  UNL     1      25.831   1.762  51.627  1.00  0.00     0.048 C 
HETATM    7  C8  UNL     1      24.564   1.502  51.921  1.00  0.00    -0.042 C 
HETATM    8  C9  UNL     1      23.389   2.256  51.442  1.00  0.00     0.046 C 
HETATM    9  C10 UNL     1      23.357   2.333  49.901  1.00  0.00     0.022 C 
HETATM   10  C11 UNL     1      21.968   1.910  49.488  1.00  0.00     0.015 C 
HETATM   11  C12 UNL     1      23.744   3.658  49.398  1.00  0.00    -0.006 C 
HETATM   12  C13 UNL     1      22.776   4.538  48.780  1.00  0.00     0.084 A 
HETATM   13  C14 UNL     1      23.003   5.775  48.257  1.00  0.00     0.148 A 
HETATM   14  N3  UNL     1      22.074   6.563  47.701  1.00  0.00    -0.267 NA
HETATM   15  C15 UNL     1      20.801   6.152  47.625  1.00  0.00     0.166 A 
HETATM   16  C16 UNL     1      20.514   4.914  48.135  1.00  0.00     0.146 A 
HETATM   17  N5  UNL     1      21.497   4.191  48.674  1.00  0.00    -0.228 NA
HETATM   18  C23 UNL     1      24.981   4.106  49.485  1.00  0.00     0.126 C 
HETATM   19  N6  UNL     1      26.258   3.667  49.978  1.00  0.00    -0.270 NA
HETATM   20  C24 UNL     1      26.616   2.737  50.831  1.00  0.00     0.145 C 
HETATM   21  H12 UNL     1      27.925   1.484  51.971  1.00  0.00     0.159 HD
ENDROOT
BRANCH  16  22
HETATM   22  N4  UNL     1      19.224   4.326  48.124  1.00  0.00    -0.340 N 
HETATM   23  H21 UNL     1      18.666   4.296  47.229  1.00  0.00     0.167 HD
BRANCH  22  24
HETATM   24  C17 UNL     1      18.484   3.727  49.166  1.00  0.00     0.035 A 
HETATM   25  C18 UNL     1      17.958   4.444  50.247  1.00  0.00     0.029 A 
HETATM   26  C19 UNL     1      17.272   3.719  51.223  1.00  0.00     0.004 A 
HETATM   27  C20 UNL     1      17.066   2.352  51.213  1.00  0.00     0.024 A 
HETATM   28  C21 UNL     1      17.583   1.658  50.154  1.00  0.00     0.036 A 
HETATM   29 CL1  UNL     1      17.351  -0.073  50.096  1.00  0.00    -0.084 Cl
HETATM   30  C22 UNL     1      18.264   2.348  49.178  1.00  0.00     0.053 A 
ENDBRANCH  22  24
ENDBRANCH  16  22
BRANCH   1  31
HETATM   31  C2  UNL     1      22.750   0.844  53.508  1.00  0.00     0.254 C 
HETATM   32  N1  UNL     1      21.840   0.039  53.915  1.00  0.00    -0.428 NA
HETATM   33  C1  UNL     1      21.907  -1.384  53.619  1.00  0.00     0.131 C 
ENDBRANCH   1  31
TORSDOF 3
ENDMDL
MODEL 8
REMARK VINA RESULT:      -8.4      4.528      7.556
REMARK  3 active torsions:
REMARK  status: ('A' for Active; 'I' for Inactive)
REMARK    1  A    between atoms: C2_3  and  C3_4 
REMARK    2  A    between atoms: C16_19  and  N4_20 
REMARK    3  A    between atoms: N4_20  and  C17_21 
ROOT
HETATM    1  C3  UNL     1      23.567   0.196  53.033  1.00  0.00     0.057 C 
HETATM    2  C4  UNL     1      24.775   0.096  53.981  1.00  0.00     0.016 C 
HETATM    3  C5  UNL     1      25.880  -0.705  53.320  1.00  0.00     0.021 C 
HETATM    4  C6  UNL     1      26.933   0.205  52.781  1.00  0.00     0.120 C 
HETATM    5  N2  UNL     1      26.365   1.303  52.035  1.00  0.00    -0.389 N 
HETATM    6  C7  UNL     1      25.064   1.688  51.607  1.00  0.00     0.048 C 
HETATM    7  C8  UNL     1      23.912   1.202  52.048  1.00  0.00    -0.042 C 
HETATM    8  C9  UNL     1      22.567   1.607  51.593  1.00  0.00     0.046 C 
HETATM    9  C10 UNL     1      22.419   1.462  50.064  1.00  0.00     0.022 C 
HETATM   10  C11 UNL     1      21.140   0.693  49.837  1.00  0.00     0.015 C 
HETATM   11  C12 UNL     1      22.461   2.755  49.370  1.00  0.00    -0.006 C 
HETATM   12  C13 UNL     1      21.280   3.310  48.745  1.00  0.00     0.084 A 
HETATM   13  C14 UNL     1      21.185   4.482  48.057  1.00  0.00     0.148 A 
HETATM   14  N3  UNL     1      20.067   4.963  47.499  1.00  0.00    -0.267 NA
HETATM   15  C15 UNL     1      18.919   4.279  47.592  1.00  0.00     0.166 A 
HETATM   16  C16 UNL     1      18.955   3.091  48.274  1.00  0.00     0.146 A 
HETATM   17  N5  UNL     1      20.110   2.681  48.801  1.00  0.00    -0.228 NA
HETATM   18  C23 UNL     1      23.566   3.471  49.286  1.00  0.00     0.126 C 
HETATM   19  N6  UNL     1      24.938   3.393  49.708  1.00  0.00    -0.270 NA
HETATM   20  C24 UNL     1      25.553   2.690  50.629  1.00  0.00     0.145 C 
HETATM   21  H12 UNL     1      27.184   1.923  51.784  1.00  0.00     0.159 HD
ENDROOT
BRANCH  16  22
HETATM   22  N4  UNL     1      17.836   2.240  48.454  1.00  0.00    -0.340 N 
HETATM   23  H21 UNL     1      17.236   1.976  47.628  1.00  0.00     0.167 HD
BRANCH  22  24
HETATM   24  C17 UNL     1      17.328   1.634  49.623  1.00  0.00     0.035 A 
HETATM   25  C18 UNL     1      17.548   0.292  49.952  1.00  0.00     0.029 A 
HETATM   26  C19 UNL     1      16.960  -0.185  51.126  1.00  0.00     0.004 A 
HETATM   27  C20 UNL     1      16.178   0.557  51.992  1.00  0.00     0.024 A 
HETATM   28  C21 UNL     1      15.968   1.868  51.664  1.00  0.00     0.036 A 
HETATM   29 CL1  UNL     1      14.986   2.847  52.726  1.00  0.00    -0.084 Cl
HETATM   30  C22 UNL     1      16.536   2.363  50.513  1.00  0.00     0.053 A 
ENDBRANCH  22  24
ENDBRANCH  16  22
BRANCH   1  31
HETATM   31  C2  UNL     1      22.401   0.390  53.865  1.00  0.00     0.254 C 
HETATM   32  N1  UNL     1      21.615  -0.526  54.294  1.00  0.00    -0.428 NA
HETATM   33  C1  UNL     1      21.841  -1.925  53.962  1.00  0.00     0.131 C 
ENDBRANCH   1  31
TORSDOF 3
ENDMDL
MODEL 9
REMARK VINA RESULT:      -8.1      3.220      5.393
REMARK  3 active torsions:
REMARK  status: ('A' for Active; 'I' for Inactive)
REMARK    1  A    between atoms: C2_3  and  C3_4 
REMARK    2  A    between atoms: C16_19  and  N4_20 
REMARK    3  A    between atoms: N4_20  and  C17_21 
ROOT
HETATM    1  C3  UNL     1      21.574   1.782  52.380  1.00  0.00     0.057 C 
HETATM    2  C4  UNL     1      21.412   0.822  53.571  1.00  0.00     0.016 C 
HETATM    3  C5  UNL     1      21.599  -0.609  53.105  1.00  0.00     0.021 C 
HETATM    4  C6  UNL     1      22.965  -1.099  53.457  1.00  0.00     0.120 C 
HETATM    5  N2  UNL     1      23.987  -0.141  53.105  1.00  0.00    -0.389 N 
HETATM    6  C7  UNL     1      24.032   1.109  52.427  1.00  0.00     0.048 C 
HETATM    7  C8  UNL     1      22.999   1.889  52.140  1.00  0.00    -0.042 C 
HETATM    8  C9  UNL     1      23.058   3.183  51.433  1.00  0.00     0.046 C 
HETATM    9  C10 UNL     1      23.756   3.047  50.063  1.00  0.00     0.022 C 
HETATM   10  C11 UNL     1      22.843   3.708  49.059  1.00  0.00     0.015 C 
HETATM   11  C12 UNL     1      25.119   3.595  50.070  1.00  0.00    -0.006 C 
HETATM   12  C13 UNL     1      25.445   4.806  49.349  1.00  0.00     0.084 A 
HETATM   13  C14 UNL     1      26.664   5.407  49.256  1.00  0.00     0.148 A 
HETATM   14  N3  UNL     1      26.921   6.535  48.583  1.00  0.00    -0.267 NA
HETATM   15  C15 UNL     1      25.938   7.168  47.928  1.00  0.00     0.166 A 
HETATM   16  C16 UNL     1      24.689   6.608  47.985  1.00  0.00     0.146 A 
HETATM   17  N5  UNL     1      24.516   5.480  48.679  1.00  0.00    -0.228 NA
HETATM   18  C23 UNL     1      26.103   3.016  50.730  1.00  0.00     0.126 C 
HETATM   19  N6  UNL     1      26.315   1.863  51.563  1.00  0.00    -0.270 NA
HETATM   20  C24 UNL     1      25.504   1.091  52.247  1.00  0.00     0.145 C 
HETATM   21  H12 UNL     1      24.888  -0.546  53.480  1.00  0.00     0.159 HD
ENDROOT
BRANCH  16  22
HETATM   22  N4  UNL     1      23.545   7.140  47.340  1.00  0.00    -0.340 N 
HETATM   23  H21 UNL     1      23.496   8.171  47.120  1.00  0.00     0.167 HD
BRANCH  22  24
HETATM   24  C17 UNL     1      22.362   6.504  46.905  1.00  0.00     0.035 A 
HETATM   25  C18 UNL     1      22.293   5.715  45.752  1.00  0.00     0.029 A 
HETATM   26  C19 UNL     1      21.049   5.171  45.423  1.00  0.00     0.004 A 
HETATM   27  C20 UNL     1      19.880   5.345  46.141  1.00  0.00     0.024 A 
HETATM   28  C21 UNL     1      19.957   6.117  47.267  1.00  0.00     0.036 A 
HETATM   29 CL1  UNL     1      18.506   6.368  48.207  1.00  0.00    -0.084 Cl
HETATM   30  C22 UNL     1      21.169   6.665  47.613  1.00  0.00     0.053 A 
ENDBRANCH  22  24
ENDBRANCH  16  22
BRANCH   1  31
HETATM   31  C2  UNL     1      20.819   2.973  52.702  1.00  0.00     0.254 C 
HETATM   32  N1  UNL     1      19.620   3.232  52.332  1.00  0.00    -0.428 NA
HETATM   33  C1  UNL     1      18.867   2.296  51.511  1.00  0.00     0.131 C 
ENDBRANCH   1  31
TORSDOF 3
ENDMDL
