MODEL 1
REMARK VINA RESULT:      -9.0      0.000      0.000
REMARK  7 active torsions:
REMARK  status: ('A' for Active; 'I' for Inactive)
REMARK    1  A    between atoms: N1_1  and  C1_2 
REMARK    2  A    between atoms: C1_2  and  C2_3 
REMARK    3  A    between atoms: C1_2  and  C9_12 
REMARK    4  A    between atoms: C3_4  and  C4_5 
REMARK    5  A    between atoms: C4_5  and  N2_6 
REMARK    6  A    between atoms: C14_19  and  N5_20 
REMARK    7  A    between atoms: N5_20  and  C15_21 
ROOT
HETATM    1  C9  UNL     1      20.773   1.035  51.631  1.00  0.00    -0.013 A 
HETATM    2  C10 UNL     1      19.720   0.485  52.353  1.00  0.00     0.012 A 
HETATM    3  C11 UNL     1      19.997  -0.280  53.464  1.00  0.00     0.033 A 
HETATM    4  C12 UNL     1      21.299  -0.486  53.837  1.00  0.00     0.072 A 
HETATM    5  N3  UNL     1      21.516  -1.259  54.948  1.00  0.00    -0.241 NA
HETATM    6  C13 UNL     1      22.786  -1.495  55.351  1.00  0.00     0.236 A 
HETATM    7  N4  UNL     1      23.810  -0.978  54.672  1.00  0.00    -0.224 NA
HETATM    8  C14 UNL     1      23.698  -0.210  53.578  1.00  0.00     0.142 A 
HETATM    9  C21 UNL     1      22.409   0.030  53.167  1.00  0.00     0.039 A 
HETATM   10  C22 UNL     1      22.051   0.780  52.073  1.00  0.00     0.028 A 
ENDROOT
BRANCH   1  11
HETATM   11  C1  UNL     1      20.477   1.846  50.438  1.00  0.00     0.329 C 
BRANCH  11  12
HETATM   12  N1  UNL     1      19.986   1.041  49.313  1.00  0.00     0.098 N 
HETATM   13  H1  UNL     1      20.729   0.308  49.189  1.00  0.00     0.314 HD
HETATM   14  H2  UNL     1      19.862   1.628  48.468  1.00  0.00     0.314 HD
ENDBRANCH  11  12
BRANCH  11  15
HETATM   15  C2  UNL     1      21.649   2.602  50.004  1.00  0.00    -0.064 C 
HETATM   16  C3  UNL     1      22.614   3.237  49.626  1.00  0.00    -0.074 C 
BRANCH  16  17
HETATM   17  C4  UNL     1      23.764   4.001  49.147  1.00  0.00     0.366 C 
BRANCH  17  18
HETATM   18  N2  UNL     1      24.562   4.384  50.260  1.00  0.00     0.103 N 
HETATM   19  C5  UNL     1      25.467   5.429  49.800  1.00  0.00     0.299 C 
HETATM   20  C6  UNL     1      26.622   4.816  49.026  1.00  0.00     0.198 C 
HETATM   21  O1  UNL     1      27.269   3.889  49.818  1.00  0.00    -0.388 OA
HETATM   22  C7  UNL     1      26.483   2.838  50.230  1.00  0.00     0.198 C 
HETATM   23  C8  UNL     1      25.249   3.344  50.944  1.00  0.00     0.299 C 
ENDBRANCH  17  18
ENDBRANCH  16  17
ENDBRANCH  11  15
ENDBRANCH   1  11
BRANCH   8  24
HETATM   24  N5  UNL     1      24.767   0.345  52.843  1.00  0.00    -0.340 N 
HETATM   25  H17 UNL     1      24.607   0.987  52.044  1.00  0.00     0.167 HD
BRANCH  24  26
HETATM   26  C15 UNL     1      26.155   0.150  53.047  1.00  0.00     0.035 A 
HETATM   27  C16 UNL     1      26.758  -1.054  52.803  1.00  0.00     0.032 A 
HETATM   28  C17 UNL     1      28.115  -1.317  52.988  1.00  0.00     0.046 A 
HETATM   29  C18 UNL     1      28.928  -0.303  53.452  1.00  0.00     0.138 A 
HETATM   30  F1  UNL     1      30.255  -0.490  53.656  1.00  0.00    -0.204 F 
HETATM   31  C19 UNL     1      28.347   0.921  53.707  1.00  0.00     0.074 A 
HETATM   32 CL1  UNL     1      29.347   2.242  54.299  1.00  0.00    -0.081 Cl
HETATM   33  C20 UNL     1      27.002   1.137  53.510  1.00  0.00     0.056 A 
ENDBRANCH  24  26
ENDBRANCH   8  24
TORSDOF 7
ENDMDL
MODEL 2
REMARK VINA RESULT:      -8.9      2.688      5.480
REMARK  7 active torsions:
REMARK  status: ('A' for Active; 'I' for Inactive)
REMARK    1  A    between atoms: N1_1  and  C1_2 
REMARK    2  A    between atoms: C1_2  and  C2_3 
REMARK    3  A    between atoms: C1_2  and  C9_12 
REMARK    4  A    between atoms: C3_4  and  C4_5 
REMARK    5  A    between atoms: C4_5  and  N2_6 
REMARK    6  A    between atoms: C14_19  and  N5_20 
REMARK    7  A    between atoms: N5_20  and  C15_21 
ROOT
HETATM    1  C9  UNL     1      21.745   0.080  52.911  1.00  0.00    -0.013 A 
HETATM    2  C10 UNL     1      20.398  -0.152  52.656  1.00  0.00     0.012 A 
HETATM    3  C11 UNL     1      19.624   0.874  52.162  1.00  0.00     0.033 A 
HETATM    4  C12 UNL     1      20.190   2.100  51.931  1.00  0.00     0.072 A 
HETATM    5  N3  UNL     1      19.373   3.086  51.443  1.00  0.00    -0.241 NA
HETATM    6  C13 UNL     1      19.887   4.314  51.205  1.00  0.00     0.236 A 
HETATM    7  N4  UNL     1      21.176   4.557  51.443  1.00  0.00    -0.224 NA
HETATM    8  C14 UNL     1      22.053   3.659  51.916  1.00  0.00     0.142 A 
HETATM    9  C21 UNL     1      21.532   2.411  52.159  1.00  0.00     0.039 A 
HETATM   10  C22 UNL     1      22.236   1.339  52.651  1.00  0.00     0.028 A 
ENDROOT
BRANCH   1  11
HETATM   11  C1  UNL     1      22.571  -1.015  53.447  1.00  0.00     0.329 C 
BRANCH  11  12
HETATM   12  N1  UNL     1      21.953  -1.676  54.604  1.00  0.00     0.098 N 
HETATM   13  H1  UNL     1      20.923  -1.592  54.417  1.00  0.00     0.314 HD
HETATM   14  H2  UNL     1      22.237  -1.211  55.486  1.00  0.00     0.314 HD
ENDBRANCH  11  12
BRANCH  11  15
HETATM   15  C2  UNL     1      23.901  -0.543  53.825  1.00  0.00    -0.064 C 
HETATM   16  C3  UNL     1      25.013  -0.170  54.144  1.00  0.00    -0.074 C 
BRANCH  16  17
HETATM   17  C4  UNL     1      26.352   0.257  54.542  1.00  0.00     0.366 C 
BRANCH  17  18
HETATM   18  N2  UNL     1      27.079   0.644  53.383  1.00  0.00     0.103 N 
HETATM   19  C5  UNL     1      27.774  -0.541  52.896  1.00  0.00     0.299 C 
HETATM   20  C6  UNL     1      29.012  -0.803  53.737  1.00  0.00     0.198 C 
HETATM   21  O1  UNL     1      29.826   0.311  53.722  1.00  0.00    -0.388 OA
HETATM   22  C7  UNL     1      29.249   1.451  54.233  1.00  0.00     0.198 C 
HETATM   23  C8  UNL     1      27.952   1.758  53.518  1.00  0.00     0.299 C 
ENDBRANCH  17  18
ENDBRANCH  16  17
ENDBRANCH  11  15
ENDBRANCH   1  11
BRANCH   8  24
HETATM   24  N5  UNL     1      23.419   3.895  52.178  1.00  0.00    -0.340 N 
HETATM   25  H17 UNL     1      23.775   4.041  53.141  1.00  0.00     0.167 HD
BRANCH  24  26
HETATM   26  C15 UNL     1      24.483   3.965  51.244  1.00  0.00     0.035 A 
HETATM   27  C16 UNL     1      25.385   2.947  51.100  1.00  0.00     0.032 A 
HETATM   28  C17 UNL     1      26.457   2.953  50.208  1.00  0.00     0.046 A 
HETATM   29  C18 UNL     1      26.640   4.058  49.402  1.00  0.00     0.138 A 
HETATM   30  F1  UNL     1      27.662   4.131  48.514  1.00  0.00    -0.204 F 
HETATM   31  C19 UNL     1      25.746   5.100  49.526  1.00  0.00     0.074 A 
HETATM   32 CL1  UNL     1      25.942   6.527  48.517  1.00  0.00    -0.081 Cl
HETATM   33  C20 UNL     1      24.701   5.052  50.421  1.00  0.00     0.056 A 
ENDBRANCH  24  26
ENDBRANCH   8  24
TORSDOF 7
ENDMDL
MODEL 3
REMARK VINA RESULT:      -8.7      4.810      8.692
REMARK  7 active torsions:
REMARK  status: ('A' for Active; 'I' for Inactive)
REMARK    1  A    between atoms: N1_1  and  C1_2 
REMARK    2  A    between atoms: C1_2  and  C2_3 
REMARK    3  A    between atoms: C1_2  and  C9_12 
REMARK    4  A    between atoms: C3_4  and  C4_5 
REMARK    5  A    between atoms: C4_5  and  N2_6 
REMARK    6  A    between atoms: C14_19  and  N5_20 
REMARK    7  A    between atoms: N5_20  and  C15_21 
ROOT
HETATM    1  C9  UNL     1      26.336   5.281  48.992  1.00  0.00    -0.013 A 
HETATM    2  C10 UNL     1      25.842   6.556  49.243  1.00  0.00     0.012 A 
HETATM    3  C11 UNL     1      26.664   7.643  49.046  1.00  0.00     0.033 A 
HETATM    4  C12 UNL     1      27.949   7.451  48.610  1.00  0.00     0.072 A 
HETATM    5  N3  UNL     1      28.724   8.568  48.436  1.00  0.00    -0.241 NA
HETATM    6  C13 UNL     1      30.001   8.427  48.012  1.00  0.00     0.236 A 
HETATM    7  N4  UNL     1      30.494   7.213  47.767  1.00  0.00    -0.224 NA
HETATM    8  C14 UNL     1      29.815   6.065  47.904  1.00  0.00     0.142 A 
HETATM    9  C21 UNL     1      28.517   6.206  48.336  1.00  0.00     0.039 A 
HETATM   10  C22 UNL     1      27.637   5.175  48.555  1.00  0.00     0.028 A 
ENDROOT
BRANCH   1  11
HETATM   11  C1  UNL     1      25.460   4.117  49.209  1.00  0.00     0.329 C 
BRANCH  11  12
HETATM   12  N1  UNL     1      24.120   4.497  49.678  1.00  0.00     0.098 N 
HETATM   13  H1  UNL     1      23.483   3.830  49.175  1.00  0.00     0.314 HD
HETATM   14  H2  UNL     1      23.919   5.488  49.450  1.00  0.00     0.314 HD
ENDBRANCH  11  12
BRANCH  11  15
HETATM   15  C2  UNL     1      26.046   3.178  50.162  1.00  0.00    -0.064 C 
HETATM   16  C3  UNL     1      26.543   2.413  50.965  1.00  0.00    -0.074 C 
BRANCH  16  17
HETATM   17  C4  UNL     1      27.159   1.510  51.934  1.00  0.00     0.366 C 
BRANCH  17  18
HETATM   18  N2  UNL     1      27.122   2.114  53.220  1.00  0.00     0.103 N 
HETATM   19  C5  UNL     1      28.500   2.398  53.601  1.00  0.00     0.299 C 
HETATM   20  C6  UNL     1      29.181   1.128  54.081  1.00  0.00     0.198 C 
HETATM   21  O1  UNL     1      28.463   0.584  55.126  1.00  0.00    -0.388 OA
HETATM   22  C7  UNL     1      27.171   0.230  54.811  1.00  0.00     0.198 C 
HETATM   23  C8  UNL     1      26.420   1.412  54.238  1.00  0.00     0.299 C 
ENDBRANCH  17  18
ENDBRANCH  16  17
ENDBRANCH  11  15
ENDBRANCH   1  11
BRANCH   8  24
HETATM   24  N5  UNL     1      30.317   4.770  47.653  1.00  0.00    -0.340 N 
HETATM   25  H17 UNL     1      29.691   3.947  47.571  1.00  0.00     0.167 HD
BRANCH  24  26
HETATM   26  C15 UNL     1      31.667   4.382  47.473  1.00  0.00     0.035 A 
HETATM   27  C16 UNL     1      32.028   3.421  46.569  1.00  0.00     0.032 A 
HETATM   28  C17 UNL     1      33.334   2.987  46.346  1.00  0.00     0.046 A 
HETATM   29  C18 UNL     1      34.354   3.556  47.080  1.00  0.00     0.138 A 
HETATM   30  F1  UNL     1      35.646   3.181  46.916  1.00  0.00    -0.204 F 
HETATM   31  C19 UNL     1      34.020   4.528  47.999  1.00  0.00     0.074 A 
HETATM   32 CL1  UNL     1      35.290   5.281  48.956  1.00  0.00    -0.081 Cl
HETATM   33  C20 UNL     1      32.716   4.926  48.187  1.00  0.00     0.056 A 
ENDBRANCH  24  26
ENDBRANCH   8  24
TORSDOF 7
ENDMDL
MODEL 4
REMARK VINA RESULT:      -8.5      3.430      6.833
REMARK  7 active torsions:
REMARK  status: ('A' for Active; 'I' for Inactive)
REMARK    1  A    between atoms: N1_1  and  C1_2 
REMARK    2  A    between atoms: C1_2  and  C2_3 
REMARK    3  A    between atoms: C1_2  and  C9_12 
REMARK    4  A    between atoms: C3_4  and  C4_5 
REMARK    5  A    between atoms: C4_5  and  N2_6 
REMARK    6  A    between atoms: C14_19  and  N5_20 
REMARK    7  A    between atoms: N5_20  and  C15_21 
ROOT
HETATM    1  C9  UNL     1      24.679   4.712  49.076  1.00  0.00    -0.013 A 
HETATM    2  C10 UNL     1      24.229   5.823  48.373  1.00  0.00     0.012 A 
HETATM    3  C11 UNL     1      22.968   5.800  47.821  1.00  0.00     0.033 A 
HETATM    4  C12 UNL     1      22.182   4.688  47.972  1.00  0.00     0.072 A 
HETATM    5  N3  UNL     1      20.938   4.718  47.398  1.00  0.00    -0.241 NA
HETATM    6  C13 UNL     1      20.129   3.641  47.516  1.00  0.00     0.236 A 
HETATM    7  N4  UNL     1      20.542   2.565  48.186  1.00  0.00    -0.224 NA
HETATM    8  C14 UNL     1      21.737   2.442  48.783  1.00  0.00     0.142 A 
HETATM    9  C21 UNL     1      22.560   3.536  48.663  1.00  0.00     0.039 A 
HETATM   10  C22 UNL     1      23.827   3.636  49.183  1.00  0.00     0.028 A 
ENDROOT
BRANCH   1  11
HETATM   11  C1  UNL     1      26.031   4.733  49.660  1.00  0.00     0.329 C 
BRANCH  11  12
HETATM   12  N1  UNL     1      27.082   4.901  48.648  1.00  0.00     0.098 N 
HETATM   13  H1  UNL     1      27.920   4.440  49.083  1.00  0.00     0.314 HD
HETATM   14  H2  UNL     1      27.240   5.905  48.447  1.00  0.00     0.314 HD
ENDBRANCH  11  12
BRANCH  11  15
HETATM   15  C2  UNL     1      26.300   3.518  50.426  1.00  0.00    -0.064 C 
HETATM   16  C3  UNL     1      26.533   2.519  51.077  1.00  0.00    -0.074 C 
BRANCH  16  17
HETATM   17  C4  UNL     1      26.831   1.330  51.872  1.00  0.00     0.366 C 
BRANCH  17  18
HETATM   18  N2  UNL     1      27.215   1.732  53.181  1.00  0.00     0.103 N 
HETATM   19  C5  UNL     1      28.540   1.179  53.429  1.00  0.00     0.299 C 
HETATM   20  C6  UNL     1      28.433  -0.296  53.779  1.00  0.00     0.198 C 
HETATM   21  O1  UNL     1      27.599  -0.455  54.867  1.00  0.00    -0.388 OA
HETATM   22  C7  UNL     1      26.311  -0.013  54.672  1.00  0.00     0.198 C 
HETATM   23  C8  UNL     1      26.305   1.435  54.233  1.00  0.00     0.299 C 
ENDBRANCH  17  18
ENDBRANCH  16  17
ENDBRANCH  11  15
ENDBRANCH   1  11
BRANCH   8  24
HETATM   24  N5  UNL     1      22.195   1.313  49.494  1.00  0.00    -0.340 N 
HETATM   25  H17 UNL     1      22.767   0.575  49.040  1.00  0.00     0.167 HD
BRANCH  24  26
HETATM   26  C15 UNL     1      21.983   1.001  50.860  1.00  0.00     0.035 A 
HETATM   27  C16 UNL     1      22.927   1.261  51.815  1.00  0.00     0.032 A 
HETATM   28  C17 UNL     1      22.787   0.974  53.172  1.00  0.00     0.046 A 
HETATM   29  C18 UNL     1      21.617   0.385  53.606  1.00  0.00     0.138 A 
HETATM   30  F1  UNL     1      21.415   0.078  54.911  1.00  0.00    -0.204 F 
HETATM   31  C19 UNL     1      20.647   0.112  52.665  1.00  0.00     0.074 A 
HETATM   32 CL1  UNL     1      19.140  -0.639  53.175  1.00  0.00    -0.081 Cl
HETATM   33  C20 UNL     1      20.828   0.412  51.334  1.00  0.00     0.056 A 
ENDBRANCH  24  26
ENDBRANCH   8  24
TORSDOF 7
ENDMDL
MODEL 5
REMARK VINA RESULT:      -8.3      3.025      5.410
REMARK  7 active torsions:
REMARK  status: ('A' for Active; 'I' for Inactive)
REMARK    1  A    between atoms: N1_1  and  C1_2 
REMARK    2  A    between atoms: C1_2  and  C2_3 
REMARK    3  A    between atoms: C1_2  and  C9_12 
REMARK    4  A    between atoms: C3_4  and  C4_5 
REMARK    5  A    between atoms: C4_5  and  N2_6 
REMARK    6  A    between atoms: C14_19  and  N5_20 
REMARK    7  A    between atoms: N5_20  and  C15_21 
ROOT
HETATM    1  C9  UNL     1      22.126  -0.487  54.152  1.00  0.00    -0.013 A 
HETATM    2  C10 UNL     1      22.659  -1.229  55.200  1.00  0.00     0.012 A 
HETATM    3  C11 UNL     1      24.026  -1.294  55.348  1.00  0.00     0.033 A 
HETATM    4  C12 UNL     1      24.836  -0.630  54.464  1.00  0.00     0.072 A 
HETATM    5  N3  UNL     1      26.189  -0.733  54.656  1.00  0.00    -0.241 NA
HETATM    6  C13 UNL     1      27.027  -0.099  53.805  1.00  0.00     0.236 A 
HETATM    7  N4  UNL     1      26.537   0.618  52.794  1.00  0.00    -0.224 NA
HETATM    8  C14 UNL     1      25.233   0.780  52.526  1.00  0.00     0.142 A 
HETATM    9  C21 UNL     1      24.380   0.135  53.390  1.00  0.00     0.039 A 
HETATM   10  C22 UNL     1      23.009   0.151  53.310  1.00  0.00     0.028 A 
ENDROOT
BRANCH   1  11
HETATM   11  C1  UNL     1      20.664  -0.423  53.989  1.00  0.00     0.329 C 
BRANCH  11  12
HETATM   12  N1  UNL     1      20.015  -1.725  54.192  1.00  0.00     0.098 N 
HETATM   13  H1  UNL     1      20.812  -2.408  54.152  1.00  0.00     0.314 HD
HETATM   14  H2  UNL     1      19.304  -1.899  53.458  1.00  0.00     0.314 HD
ENDBRANCH  11  12
BRANCH  11  15
HETATM   15  C2  UNL     1      20.296   0.089  52.671  1.00  0.00    -0.064 C 
HETATM   16  C3  UNL     1      19.971   0.507  51.577  1.00  0.00    -0.074 C 
BRANCH  16  17
HETATM   17  C4  UNL     1      19.562   0.991  50.261  1.00  0.00     0.366 C 
BRANCH  17  18
HETATM   18  N2  UNL     1      19.310   2.388  50.339  1.00  0.00     0.103 N 
HETATM   19  C5  UNL     1      18.626   2.771  49.110  1.00  0.00     0.299 C 
HETATM   20  C6  UNL     1      19.625   2.889  47.972  1.00  0.00     0.198 C 
HETATM   21  O1  UNL     1      20.610   3.793  48.313  1.00  0.00    -0.388 OA
HETATM   22  C7  UNL     1      21.340   3.454  49.430  1.00  0.00     0.198 C 
HETATM   23  C8  UNL     1      20.426   3.226  50.613  1.00  0.00     0.299 C 
ENDBRANCH  17  18
ENDBRANCH  16  17
ENDBRANCH  11  15
ENDBRANCH   1  11
BRANCH   8  24
HETATM   24  N5  UNL     1      24.693   1.531  51.461  1.00  0.00    -0.340 N 
HETATM   25  H17 UNL     1      24.383   1.083  50.578  1.00  0.00     0.167 HD
BRANCH  24  26
HETATM   26  C15 UNL     1      24.482   2.931  51.404  1.00  0.00     0.035 A 
HETATM   27  C16 UNL     1      23.741   3.588  52.347  1.00  0.00     0.032 A 
HETATM   28  C17 UNL     1      23.489   4.959  52.348  1.00  0.00     0.046 A 
HETATM   29  C18 UNL     1      24.016   5.730  51.332  1.00  0.00     0.138 A 
HETATM   30  F1  UNL     1      23.809   7.068  51.271  1.00  0.00    -0.204 F 
HETATM   31  C19 UNL     1      24.769   5.094  50.368  1.00  0.00     0.074 A 
HETATM   32 CL1  UNL     1      25.461   6.038  49.055  1.00  0.00    -0.081 Cl
HETATM   33  C20 UNL     1      24.992   3.736  50.405  1.00  0.00     0.056 A 
ENDBRANCH  24  26
ENDBRANCH   8  24
TORSDOF 7
ENDMDL
MODEL 6
REMARK VINA RESULT:      -8.2      2.583      4.301
REMARK  7 active torsions:
REMARK  status: ('A' for Active; 'I' for Inactive)
REMARK    1  A    between atoms: N1_1  and  C1_2 
REMARK    2  A    between atoms: C1_2  and  C2_3 
REMARK    3  A    between atoms: C1_2  and  C9_12 
REMARK    4  A    between atoms: C3_4  and  C4_5 
REMARK    5  A    between atoms: C4_5  and  N2_6 
REMARK    6  A    between atoms: C14_19  and  N5_20 
REMARK    7  A    between atoms: N5_20  and  C15_21 
ROOT
HETATM    1  C9  UNL     1      24.638   3.057  49.771  1.00  0.00    -0.013 A 
HETATM    2  C10 UNL     1      23.611   3.014  48.835  1.00  0.00     0.012 A 
HETATM    3  C11 UNL     1      22.473   2.294  49.122  1.00  0.00     0.033 A 
HETATM    4  C12 UNL     1      22.373   1.633  50.318  1.00  0.00     0.072 A 
HETATM    5  N3  UNL     1      21.221   0.928  50.549  1.00  0.00    -0.241 NA
HETATM    6  C13 UNL     1      21.079   0.255  51.714  1.00  0.00     0.236 A 
HETATM    7  N4  UNL     1      22.052   0.283  52.624  1.00  0.00    -0.224 NA
HETATM    8  C14 UNL     1      23.211   0.945  52.492  1.00  0.00     0.142 A 
HETATM    9  C21 UNL     1      23.357   1.628  51.308  1.00  0.00     0.039 A 
HETATM   10  C22 UNL     1      24.458   2.367  50.948  1.00  0.00     0.028 A 
ENDROOT
BRANCH   1  11
HETATM   11  C1  UNL     1      25.858   3.821  49.462  1.00  0.00     0.329 C 
BRANCH  11  12
HETATM   12  N1  UNL     1      26.846   3.776  50.548  1.00  0.00     0.098 N 
HETATM   13  H1  UNL     1      26.537   4.543  51.196  1.00  0.00     0.314 HD
HETATM   14  H2  UNL     1      27.802   3.927  50.180  1.00  0.00     0.314 HD
ENDBRANCH  11  12
BRANCH  11  15
HETATM   15  C2  UNL     1      25.551   5.217  49.159  1.00  0.00    -0.064 C 
HETATM   16  C3  UNL     1      25.313   6.381  48.900  1.00  0.00    -0.074 C 
BRANCH  16  17
HETATM   17  C4  UNL     1      25.054   7.784  48.588  1.00  0.00     0.366 C 
BRANCH  17  18
HETATM   18  N2  UNL     1      26.216   8.352  48.000  1.00  0.00     0.103 N 
HETATM   19  C5  UNL     1      27.284   8.265  48.988  1.00  0.00     0.299 C 
HETATM   20  C6  UNL     1      27.123   9.362  50.027  1.00  0.00     0.198 C 
HETATM   21  O1  UNL     1      27.102  10.592  49.403  1.00  0.00    -0.388 OA
HETATM   22  C7  UNL     1      26.073  10.762  48.504  1.00  0.00     0.198 C 
HETATM   23  C8  UNL     1      26.088   9.663  47.465  1.00  0.00     0.299 C 
ENDBRANCH  17  18
ENDBRANCH  16  17
ENDBRANCH  11  15
ENDBRANCH   1  11
BRANCH   8  24
HETATM   24  N5  UNL     1      24.255   0.986  53.440  1.00  0.00    -0.340 N 
HETATM   25  H17 UNL     1      24.159   1.495  54.339  1.00  0.00     0.167 HD
BRANCH  24  26
HETATM   26  C15 UNL     1      25.533   0.379  53.352  1.00  0.00     0.035 A 
HETATM   27  C16 UNL     1      25.705  -0.866  52.812  1.00  0.00     0.032 A 
HETATM   28  C17 UNL     1      26.929  -1.524  52.701  1.00  0.00     0.046 A 
HETATM   29  C18 UNL     1      28.064  -0.891  53.164  1.00  0.00     0.138 A 
HETATM   30  F1  UNL     1      29.286  -1.474  53.089  1.00  0.00    -0.204 F 
HETATM   31  C19 UNL     1      27.921   0.365  53.714  1.00  0.00     0.074 A 
HETATM   32 CL1  UNL     1      29.342   1.208  54.317  1.00  0.00    -0.081 Cl
HETATM   33  C20 UNL     1      26.691   0.978  53.804  1.00  0.00     0.056 A 
ENDBRANCH  24  26
ENDBRANCH   8  24
TORSDOF 7
ENDMDL
MODEL 7
REMARK VINA RESULT:      -7.8      3.722      6.044
REMARK  7 active torsions:
REMARK  status: ('A' for Active; 'I' for Inactive)
REMARK    1  A    between atoms: N1_1  and  C1_2 
REMARK    2  A    between atoms: C1_2  and  C2_3 
REMARK    3  A    between atoms: C1_2  and  C9_12 
REMARK    4  A    between atoms: C3_4  and  C4_5 
REMARK    5  A    between atoms: C4_5  and  N2_6 
REMARK    6  A    between atoms: C14_19  and  N5_20 
REMARK    7  A    between atoms: N5_20  and  C15_21 
ROOT
HETATM    1  C9  UNL     1      25.962   0.990  52.715  1.00  0.00    -0.013 A 
HETATM    2  C10 UNL     1      26.250  -0.148  53.459  1.00  0.00     0.012 A 
HETATM    3  C11 UNL     1      25.218  -0.842  54.050  1.00  0.00     0.033 A 
HETATM    4  C12 UNL     1      23.930  -0.400  53.897  1.00  0.00     0.072 A 
HETATM    5  N3  UNL     1      22.943  -1.126  54.512  1.00  0.00    -0.241 NA
HETATM    6  C13 UNL     1      21.657  -0.724  54.393  1.00  0.00     0.236 A 
HETATM    7  N4  UNL     1      21.358   0.365  53.685  1.00  0.00    -0.224 NA
HETATM    8  C14 UNL     1      22.251   1.136  53.048  1.00  0.00     0.142 A 
HETATM    9  C21 UNL     1      23.559   0.731  53.168  1.00  0.00     0.039 A 
HETATM   10  C22 UNL     1      24.641   1.366  52.610  1.00  0.00     0.028 A 
ENDROOT
BRANCH   1  11
HETATM   11  C1  UNL     1      27.066   1.736  52.089  1.00  0.00     0.329 C 
BRANCH  11  12
HETATM   12  N1  UNL     1      27.912   2.427  53.071  1.00  0.00     0.098 N 
HETATM   13  H1  UNL     1      27.248   2.652  53.855  1.00  0.00     0.314 HD
HETATM   14  H2  UNL     1      28.338   3.275  52.656  1.00  0.00     0.314 HD
ENDBRANCH  11  12
BRANCH  11  15
HETATM   15  C2  UNL     1      26.570   2.713  51.122  1.00  0.00    -0.064 C 
HETATM   16  C3  UNL     1      26.174   3.523  50.307  1.00  0.00    -0.074 C 
BRANCH  16  17
HETATM   17  C4  UNL     1      25.723   4.502  49.321  1.00  0.00     0.366 C 
BRANCH  17  18
HETATM   18  N2  UNL     1      24.373   4.853  49.599  1.00  0.00     0.103 N 
HETATM   19  C5  UNL     1      23.889   5.631  48.466  1.00  0.00     0.299 C 
HETATM   20  C6  UNL     1      24.408   7.056  48.552  1.00  0.00     0.198 C 
HETATM   21  O1  UNL     1      24.030   7.614  49.756  1.00  0.00    -0.388 OA
HETATM   22  C7  UNL     1      24.513   6.963  50.868  1.00  0.00     0.198 C 
HETATM   23  C8  UNL     1      24.124   5.502  50.840  1.00  0.00     0.299 C 
ENDBRANCH  17  18
ENDBRANCH  16  17
ENDBRANCH  11  15
ENDBRANCH   1  11
BRANCH   8  24
HETATM   24  N5  UNL     1      21.959   2.294  52.296  1.00  0.00    -0.340 N 
HETATM   25  H17 UNL     1      22.110   3.247  52.677  1.00  0.00     0.167 HD
BRANCH  24  26
HETATM   26  C15 UNL     1      21.447   2.366  50.976  1.00  0.00     0.035 A 
HETATM   27  C16 UNL     1      22.185   1.971  49.894  1.00  0.00     0.032 A 
HETATM   28  C17 UNL     1      21.747   2.021  48.571  1.00  0.00     0.046 A 
HETATM   29  C18 UNL     1      20.480   2.502  48.312  1.00  0.00     0.138 A 
HETATM   30  F1  UNL     1      19.992   2.581  47.049  1.00  0.00    -0.204 F 
HETATM   31  C19 UNL     1      19.714   2.908  49.384  1.00  0.00     0.074 A 
HETATM   32 CL1  UNL     1      18.092   3.527  49.098  1.00  0.00    -0.081 Cl
HETATM   33  C20 UNL     1      20.187   2.841  50.675  1.00  0.00     0.056 A 
ENDBRANCH  24  26
ENDBRANCH   8  24
TORSDOF 7
ENDMDL
MODEL 8
REMARK VINA RESULT:      -7.8      3.265      5.838
REMARK  7 active torsions:
REMARK  status: ('A' for Active; 'I' for Inactive)
REMARK    1  A    between atoms: N1_1  and  C1_2 
REMARK    2  A    between atoms: C1_2  and  C2_3 
REMARK    3  A    between atoms: C1_2  and  C9_12 
REMARK    4  A    between atoms: C3_4  and  C4_5 
REMARK    5  A    between atoms: C4_5  and  N2_6 
REMARK    6  A    between atoms: C14_19  and  N5_20 
REMARK    7  A    between atoms: N5_20  and  C15_21 
ROOT
HETATM    1  C9  UNL     1      25.008   6.809  49.304  1.00  0.00    -0.013 A 
HETATM    2  C10 UNL     1      23.751   7.360  49.527  1.00  0.00     0.012 A 
HETATM    3  C11 UNL     1      22.862   6.693  50.339  1.00  0.00     0.033 A 
HETATM    4  C12 UNL     1      23.227   5.503  50.910  1.00  0.00     0.072 A 
HETATM    5  N3  UNL     1      22.300   4.880  51.705  1.00  0.00    -0.241 NA
HETATM    6  C13 UNL     1      22.614   3.699  52.286  1.00  0.00     0.236 A 
HETATM    7  N4  UNL     1      23.814   3.153  52.085  1.00  0.00    -0.224 NA
HETATM    8  C14 UNL     1      24.785   3.686  51.328  1.00  0.00     0.142 A 
HETATM    9  C21 UNL     1      24.467   4.885  50.737  1.00  0.00     0.039 A 
HETATM   10  C22 UNL     1      25.296   5.610  49.917  1.00  0.00     0.028 A 
ENDROOT
BRANCH   1  11
HETATM   11  C1  UNL     1      25.957   7.518  48.430  1.00  0.00     0.329 C 
BRANCH  11  12
HETATM   12  N1  UNL     1      25.428   7.734  47.077  1.00  0.00     0.098 N 
HETATM   13  H1  UNL     1      24.393   7.595  47.191  1.00  0.00     0.314 HD
HETATM   14  H2  UNL     1      25.848   7.064  46.408  1.00  0.00     0.314 HD
ENDBRANCH  11  12
BRANCH  11  15
HETATM   15  C2  UNL     1      27.228   6.805  48.333  1.00  0.00    -0.064 C 
HETATM   16  C3  UNL     1      28.281   6.207  48.234  1.00  0.00    -0.074 C 
BRANCH  16  17
HETATM   17  C4  UNL     1      29.537   5.473  48.095  1.00  0.00     0.366 C 
BRANCH  17  18
HETATM   18  N2  UNL     1      30.526   6.342  47.561  1.00  0.00     0.103 N 
HETATM   19  C5  UNL     1      31.679   5.521  47.213  1.00  0.00     0.299 C 
HETATM   20  C6  UNL     1      32.474   5.182  48.463  1.00  0.00     0.198 C 
HETATM   21  O1  UNL     1      32.848   6.345  49.103  1.00  0.00    -0.388 OA
HETATM   22  C7  UNL     1      31.801   7.135  49.518  1.00  0.00     0.198 C 
HETATM   23  C8  UNL     1      30.889   7.464  48.356  1.00  0.00     0.299 C 
ENDBRANCH  17  18
ENDBRANCH  16  17
ENDBRANCH  11  15
ENDBRANCH   1  11
BRANCH   8  24
HETATM   24  N5  UNL     1      26.059   3.125  51.099  1.00  0.00    -0.340 N 
HETATM   25  H17 UNL     1      26.673   3.455  50.331  1.00  0.00     0.167 HD
BRANCH  24  26
HETATM   26  C15 UNL     1      26.694   2.087  51.826  1.00  0.00     0.035 A 
HETATM   27  C16 UNL     1      26.365   0.772  51.642  1.00  0.00     0.032 A 
HETATM   28  C17 UNL     1      26.944  -0.296  52.326  1.00  0.00     0.046 A 
HETATM   29  C18 UNL     1      27.922  -0.030  53.262  1.00  0.00     0.138 A 
HETATM   30  F1  UNL     1      28.525  -1.021  53.964  1.00  0.00    -0.204 F 
HETATM   31  C19 UNL     1      28.274   1.287  53.468  1.00  0.00     0.074 A 
HETATM   32 CL1  UNL     1      29.518   1.671  54.651  1.00  0.00    -0.081 Cl
HETATM   33  C20 UNL     1      27.676   2.312  52.769  1.00  0.00     0.056 A 
ENDBRANCH  24  26
ENDBRANCH   8  24
TORSDOF 7
ENDMDL
MODEL 9
REMARK VINA RESULT:      -7.7      2.791      6.227
REMARK  7 active torsions:
REMARK  status: ('A' for Active; 'I' for Inactive)
REMARK    1  A    between atoms: N1_1  and  C1_2 
REMARK    2  A    between atoms: C1_2  and  C2_3 
REMARK    3  A    between atoms: C1_2  and  C9_12 
REMARK    4  A    between atoms: C3_4  and  C4_5 
REMARK    5  A    between atoms: C4_5  and  N2_6 
REMARK    6  A    between atoms: C14_19  and  N5_20 
REMARK    7  A    between atoms: N5_20  and  C15_21 
ROOT
HETATM    1  C9  UNL     1      23.686   3.931  50.223  1.00  0.00    -0.013 A 
HETATM    2  C10 UNL     1      23.626   4.197  48.859  1.00  0.00     0.012 A 
HETATM    3  C11 UNL     1      22.461   3.930  48.176  1.00  0.00     0.033 A 
HETATM    4  C12 UNL     1      21.387   3.407  48.846  1.00  0.00     0.072 A 
HETATM    5  N3  UNL     1      20.255   3.156  48.115  1.00  0.00    -0.241 NA
HETATM    6  C13 UNL     1      19.171   2.634  48.733  1.00  0.00     0.236 A 
HETATM    7  N4  UNL     1      19.208   2.371  50.039  1.00  0.00    -0.224 NA
HETATM    8  C14 UNL     1      20.265   2.584  50.837  1.00  0.00     0.142 A 
HETATM    9  C21 UNL     1      21.368   3.113  50.210  1.00  0.00     0.039 A 
HETATM   10  C22 UNL     1      22.562   3.407  50.821  1.00  0.00     0.028 A 
ENDROOT
BRANCH   1  11
HETATM   11  C1  UNL     1      24.934   4.209  50.953  1.00  0.00     0.329 C 
BRANCH  11  12
HETATM   12  N1  UNL     1      25.801   5.164  50.249  1.00  0.00     0.098 N 
HETATM   13  H1  UNL     1      26.298   5.667  51.026  1.00  0.00     0.314 HD
HETATM   14  H2  UNL     1      25.239   5.803  49.658  1.00  0.00     0.314 HD
ENDBRANCH  11  12
BRANCH  11  15
HETATM   15  C2  UNL     1      25.689   2.985  51.207  1.00  0.00    -0.064 C 
HETATM   16  C3  UNL     1      26.327   1.968  51.402  1.00  0.00    -0.074 C 
BRANCH  16  17
HETATM   17  C4  UNL     1      27.099   0.746  51.612  1.00  0.00     0.366 C 
BRANCH  17  18
HETATM   18  N2  UNL     1      26.946   0.326  52.961  1.00  0.00     0.103 N 
HETATM   19  C5  UNL     1      27.595   1.325  53.799  1.00  0.00     0.299 C 
HETATM   20  C6  UNL     1      29.101   1.126  53.778  1.00  0.00     0.198 C 
HETATM   21  O1  UNL     1      29.404  -0.157  54.183  1.00  0.00    -0.388 OA
HETATM   22  C7  UNL     1      28.875  -1.150  53.390  1.00  0.00     0.198 C 
HETATM   23  C8  UNL     1      27.376  -0.994  53.272  1.00  0.00     0.299 C 
ENDBRANCH  17  18
ENDBRANCH  16  17
ENDBRANCH  11  15
ENDBRANCH   1  11
BRANCH   8  24
HETATM   24  N5  UNL     1      20.327   2.310  52.220  1.00  0.00    -0.340 N 
HETATM   25  H17 UNL     1      20.093   3.028  52.931  1.00  0.00     0.167 HD
BRANCH  24  26
HETATM   26  C15 UNL     1      20.688   1.093  52.849  1.00  0.00     0.035 A 
HETATM   27  C16 UNL     1      19.769   0.113  53.105  1.00  0.00     0.032 A 
HETATM   28  C17 UNL     1      20.053  -1.103  53.725  1.00  0.00     0.046 A 
HETATM   29  C18 UNL     1      21.351  -1.357  54.118  1.00  0.00     0.138 A 
HETATM   30  F1  UNL     1      21.697  -2.517  54.728  1.00  0.00    -0.204 F 
HETATM   31  C19 UNL     1      22.299  -0.386  53.873  1.00  0.00     0.074 A 
HETATM   32 CL1  UNL     1      23.966  -0.669  54.358  1.00  0.00    -0.081 Cl
HETATM   33  C20 UNL     1      21.974   0.801  53.258  1.00  0.00     0.056 A 
ENDBRANCH  24  26
ENDBRANCH   8  24
TORSDOF 7
ENDMDL
