MODEL 1
REMARK VINA RESULT:      -8.9      0.000      0.000
REMARK  7 active torsions:
REMARK  status: ('A' for Active; 'I' for Inactive)
REMARK    1  A    between atoms: O1_1  and  C1_2 
REMARK    2  A    between atoms: C6_7  and  C7_8 
REMARK    3  A    between atoms: C17_21  and  C18_22 
REMARK    4  A    between atoms: C18_22  and  C19_23 
REMARK    5  A    between atoms: C19_23  and  C20_24 
REMARK    6  A    between atoms: C20_24  and  C21_25 
REMARK    7  A    between atoms: C21_25  and  N3_26 
ROOT
HETATM    1  C7  UNL     1      25.722   1.215  52.441  1.00  0.00     0.145 C 
HETATM    2  C8  UNL     1      24.737   0.202  52.963  1.00  0.00     0.040 C 
HETATM    3  C9  UNL     1      23.574  -0.374  53.345  1.00  0.00     0.086 A 
HETATM    4  F1  UNL     1      22.868  -1.455  53.852  1.00  0.00    -0.357 F 
HETATM    5  C10 UNL     1      22.155  -0.055  53.435  1.00  0.00     0.216 A 
HETATM    6  C11 UNL     1      21.004   0.650  53.345  1.00  0.00     0.014 C 
HETATM    7  C12 UNL     1      20.124   1.804  53.047  1.00  0.00     0.001 C 
HETATM    8  C13 UNL     1      20.433   2.957  52.572  1.00  0.00     0.033 C 
HETATM    9  C14 UNL     1      21.619   3.578  52.162  1.00  0.00     0.080 A 
HETATM   10  N1  UNL     1      21.793   4.726  51.415  1.00  0.00    -0.241 NA
HETATM   11  C15 UNL     1      23.098   5.124  51.134  1.00  0.00     0.236 A 
HETATM   12  N2  UNL     1      24.326   4.548  51.483  1.00  0.00    -0.223 NA
HETATM   13  C16 UNL     1      24.286   3.371  52.245  1.00  0.00     0.146 A 
HETATM   14  C17 UNL     1      22.946   3.388  52.262  1.00  0.00     0.092 A 
HETATM   15  N4  UNL     1      25.276   2.545  52.746  1.00  0.00    -0.361 N 
HETATM   16  H22 UNL     1      25.538   3.285  53.423  1.00  0.00     0.162 HD
ENDROOT
BRANCH  14  17
HETATM   17  C18 UNL     1      23.016   3.102  50.719  1.00  0.00    -0.061 C 
BRANCH  17  18
HETATM   18  C19 UNL     1      23.063   2.851  49.478  1.00  0.00    -0.100 C 
BRANCH  18  19
HETATM   19  C20 UNL     1      23.092   2.565  48.060  1.00  0.00     0.109 C 
BRANCH  19  20
HETATM   20  C21 UNL     1      21.676   2.446  47.585  1.00  0.00     0.107 C 
BRANCH  20  21
HETATM   21  N3  UNL     1      21.284   3.718  47.071  1.00  0.00    -0.278 NA
HETATM   22  C22 UNL     1      19.922   4.091  47.279  1.00  0.00     0.122 C 
HETATM   23  C23 UNL     1      19.068   3.305  46.303  1.00  0.00     0.189 C 
HETATM   24  O2  UNL     1      19.112   3.881  44.998  1.00  0.00    -0.359 OA
HETATM   25  C24 UNL     1      20.335   4.091  44.349  1.00  0.00     0.163 C 
HETATM   26  P1  UNL     1      21.651   4.033  45.360  1.00  0.00     0.054 P 
ENDBRANCH  20  21
ENDBRANCH  19  20
ENDBRANCH  18  19
ENDBRANCH  17  18
ENDBRANCH  14  17
BRANCH   1  27
HETATM   27  C6  UNL     1      27.027   0.856  53.017  1.00  0.00     0.001 A 
HETATM   28  C1  UNL     1      27.948   1.584  53.734  1.00  0.00     0.074 A 
HETATM   29  C2  UNL     1      29.146   1.113  54.197  1.00  0.00     0.037 A 
HETATM   30  C3  UNL     1      29.479  -0.196  53.935  1.00  0.00     0.003 A 
HETATM   31  C4  UNL     1      28.577  -0.981  53.207  1.00  0.00     0.001 A 
HETATM   32  C5  UNL     1      27.379  -0.473  52.758  1.00  0.00     0.012 A 
BRANCH  28  33
HETATM   33  O1  UNL     1      27.618   2.882  53.993  1.00  0.00    -0.360 OA
HETATM   34  H1  UNL     1      27.949   3.689  53.448  1.00  0.00     0.217 HD
ENDBRANCH  28  33
ENDBRANCH   1  27
TORSDOF 7
ENDMDL
MODEL 2
REMARK VINA RESULT:      -8.2      2.751      4.515
REMARK  7 active torsions:
REMARK  status: ('A' for Active; 'I' for Inactive)
REMARK    1  A    between atoms: O1_1  and  C1_2 
REMARK    2  A    between atoms: C6_7  and  C7_8 
REMARK    3  A    between atoms: C17_21  and  C18_22 
REMARK    4  A    between atoms: C18_22  and  C19_23 
REMARK    5  A    between atoms: C19_23  and  C20_24 
REMARK    6  A    between atoms: C20_24  and  C21_25 
REMARK    7  A    between atoms: C21_25  and  N3_26 
ROOT
HETATM    1  C7  UNL     1      24.814   4.524  50.236  1.00  0.00     0.145 C 
HETATM    2  C8  UNL     1      25.794   3.443  50.609  1.00  0.00     0.040 C 
HETATM    3  C9  UNL     1      26.315   2.318  51.151  1.00  0.00     0.086 A 
HETATM    4  F1  UNL     1      27.382   1.457  51.359  1.00  0.00    -0.357 F 
HETATM    5  C10 UNL     1      25.906   1.199  51.989  1.00  0.00     0.216 A 
HETATM    6  C11 UNL     1      25.119   0.401  52.745  1.00  0.00     0.014 C 
HETATM    7  C12 UNL     1      23.886  -0.058  53.428  1.00  0.00     0.001 C 
HETATM    8  C13 UNL     1      22.723   0.485  53.452  1.00  0.00     0.033 C 
HETATM    9  C14 UNL     1      22.153   1.638  52.898  1.00  0.00     0.080 A 
HETATM   10  N1  UNL     1      20.821   1.981  52.768  1.00  0.00    -0.241 NA
HETATM   11  C15 UNL     1      20.522   3.199  52.160  1.00  0.00     0.236 A 
HETATM   12  N2  UNL     1      21.361   4.186  51.629  1.00  0.00    -0.223 NA
HETATM   13  C16 UNL     1      22.743   3.957  51.699  1.00  0.00     0.146 A 
HETATM   14  C17 UNL     1      22.551   2.778  52.307  1.00  0.00     0.092 A 
HETATM   15  N4  UNL     1      23.837   4.690  51.275  1.00  0.00    -0.361 N 
HETATM   16  H22 UNL     1      23.651   5.384  52.023  1.00  0.00     0.162 HD
ENDROOT
BRANCH  14  17
HETATM   17  C18 UNL     1      21.928   2.287  50.951  1.00  0.00    -0.061 C 
BRANCH  17  18
HETATM   18  C19 UNL     1      21.437   1.908  49.847  1.00  0.00    -0.100 C 
BRANCH  18  19
HETATM   19  C20 UNL     1      20.899   1.470  48.576  1.00  0.00     0.109 C 
BRANCH  19  20
HETATM   20  C21 UNL     1      21.608   2.222  47.492  1.00  0.00     0.107 C 
BRANCH  20  21
HETATM   21  N3  UNL     1      20.986   3.501  47.376  1.00  0.00    -0.278 NA
HETATM   22  C22 UNL     1      20.139   3.692  46.243  1.00  0.00     0.122 C 
HETATM   23  C23 UNL     1      21.023   3.884  45.027  1.00  0.00     0.189 C 
HETATM   24  O2  UNL     1      21.539   5.213  44.967  1.00  0.00    -0.359 OA
HETATM   25  C24 UNL     1      22.252   5.753  46.044  1.00  0.00     0.163 C 
HETATM   26  P1  UNL     1      22.055   4.919  47.466  1.00  0.00     0.054 P 
ENDBRANCH  20  21
ENDBRANCH  19  20
ENDBRANCH  18  19
ENDBRANCH  17  18
ENDBRANCH  14  17
BRANCH   1  27
HETATM   27  C6  UNL     1      25.613   5.725  49.946  1.00  0.00     0.001 A 
HETATM   28  C1  UNL     1      25.603   6.990  50.484  1.00  0.00     0.074 A 
HETATM   29  C2  UNL     1      26.406   8.026  50.095  1.00  0.00     0.037 A 
HETATM   30  C3  UNL     1      27.310   7.807  49.081  1.00  0.00     0.003 A 
HETATM   31  C4  UNL     1      27.361   6.536  48.497  1.00  0.00     0.001 A 
HETATM   32  C5  UNL     1      26.536   5.516  48.916  1.00  0.00     0.012 A 
BRANCH  28  33
HETATM   33  O1  UNL     1      24.707   7.208  51.490  1.00  0.00    -0.360 OA
HETATM   34  H1  UNL     1      24.203   6.467  51.994  1.00  0.00     0.217 HD
ENDBRANCH  28  33
ENDBRANCH   1  27
TORSDOF 7
ENDMDL
MODEL 3
REMARK VINA RESULT:      -8.0      9.965     12.156
REMARK  7 active torsions:
REMARK  status: ('A' for Active; 'I' for Inactive)
REMARK    1  A    between atoms: O1_1  and  C1_2 
REMARK    2  A    between atoms: C6_7  and  C7_8 
REMARK    3  A    between atoms: C17_21  and  C18_22 
REMARK    4  A    between atoms: C18_22  and  C19_23 
REMARK    5  A    between atoms: C19_23  and  C20_24 
REMARK    6  A    between atoms: C20_24  and  C21_25 
REMARK    7  A    between atoms: C21_25  and  N3_26 
ROOT
HETATM    1  C7  UNL     1      29.894   6.487  47.348  1.00  0.00     0.145 C 
HETATM    2  C8  UNL     1      30.531   7.835  47.559  1.00  0.00     0.040 C 
HETATM    3  C9  UNL     1      31.463   8.789  47.791  1.00  0.00     0.086 A 
HETATM    4  F1  UNL     1      31.818  10.120  47.951  1.00  0.00    -0.357 F 
HETATM    5  C10 UNL     1      32.891   8.904  48.053  1.00  0.00     0.216 A 
HETATM    6  C11 UNL     1      34.177   8.540  48.257  1.00  0.00     0.014 C 
HETATM    7  C12 UNL     1      35.338   7.630  48.399  1.00  0.00     0.001 C 
HETATM    8  C13 UNL     1      35.378   6.349  48.313  1.00  0.00     0.033 C 
HETATM    9  C14 UNL     1      34.439   5.339  48.069  1.00  0.00     0.080 A 
HETATM   10  N1  UNL     1      34.644   4.016  47.731  1.00  0.00    -0.241 NA
HETATM   11  C15 UNL     1      33.521   3.217  47.529  1.00  0.00     0.236 A 
HETATM   12  N2  UNL     1      32.156   3.522  47.607  1.00  0.00    -0.223 NA
HETATM   13  C16 UNL     1      31.813   4.840  47.943  1.00  0.00     0.146 A 
HETATM   14  C17 UNL     1      33.104   5.188  48.033  1.00  0.00     0.092 A 
HETATM   15  N4  UNL     1      30.597   5.482  48.095  1.00  0.00    -0.361 N 
HETATM   16  H22 UNL     1      30.429   4.941  48.963  1.00  0.00     0.162 HD
ENDROOT
BRANCH  14  17
HETATM   17  C18 UNL     1      33.175   4.963  46.480  1.00  0.00    -0.061 C 
BRANCH  17  18
HETATM   18  C19 UNL     1      33.255   4.789  45.228  1.00  0.00    -0.100 C 
BRANCH  18  19
HETATM   19  C20 UNL     1      33.341   4.566  43.800  1.00  0.00     0.109 C 
BRANCH  19  20
HETATM   20  C21 UNL     1      34.310   5.560  43.237  1.00  0.00     0.107 C 
BRANCH  20  21
HETATM   21  N3  UNL     1      34.322   5.396  41.819  1.00  0.00    -0.278 NA
HETATM   22  C22 UNL     1      34.158   6.582  41.044  1.00  0.00     0.122 C 
HETATM   23  C23 UNL     1      32.696   6.978  41.100  1.00  0.00     0.189 C 
HETATM   24  O2  UNL     1      31.912   6.188  40.207  1.00  0.00    -0.359 OA
HETATM   25  C24 UNL     1      31.930   4.790  40.283  1.00  0.00     0.163 C 
HETATM   26  P1  UNL     1      33.210   4.182  41.148  1.00  0.00     0.054 P 
ENDBRANCH  20  21
ENDBRANCH  19  20
ENDBRANCH  18  19
ENDBRANCH  17  18
ENDBRANCH  14  17
BRANCH   1  27
HETATM   27  C6  UNL     1      28.476   6.640  47.708  1.00  0.00     0.001 A 
HETATM   28  C1  UNL     1      27.655   5.921  48.546  1.00  0.00     0.074 A 
HETATM   29  C2  UNL     1      26.331   6.176  48.771  1.00  0.00     0.037 A 
HETATM   30  C3  UNL     1      25.747   7.235  48.115  1.00  0.00     0.003 A 
HETATM   31  C4  UNL     1      26.538   7.999  47.249  1.00  0.00     0.001 A 
HETATM   32  C5  UNL     1      27.870   7.714  47.047  1.00  0.00     0.012 A 
BRANCH  28  33
HETATM   33  O1  UNL     1      28.233   4.870  49.196  1.00  0.00    -0.360 OA
HETATM   34  H1  UNL     1      29.245   4.694  49.238  1.00  0.00     0.217 HD
ENDBRANCH  28  33
ENDBRANCH   1  27
TORSDOF 7
ENDMDL
MODEL 4
REMARK VINA RESULT:      -7.9      3.176      6.628
REMARK  7 active torsions:
REMARK  status: ('A' for Active; 'I' for Inactive)
REMARK    1  A    between atoms: O1_1  and  C1_2 
REMARK    2  A    between atoms: C6_7  and  C7_8 
REMARK    3  A    between atoms: C17_21  and  C18_22 
REMARK    4  A    between atoms: C18_22  and  C19_23 
REMARK    5  A    between atoms: C19_23  and  C20_24 
REMARK    6  A    between atoms: C20_24  and  C21_25 
REMARK    7  A    between atoms: C21_25  and  N3_26 
ROOT
HETATM    1  C7  UNL     1      20.152   0.732  51.931  1.00  0.00     0.145 C 
HETATM    2  C8  UNL     1      20.536  -0.067  53.149  1.00  0.00     0.040 C 
HETATM    3  C9  UNL     1      21.283  -0.659  54.110  1.00  0.00     0.086 A 
HETATM    4  F1  UNL     1      21.389  -1.431  55.256  1.00  0.00    -0.357 F 
HETATM    5  C10 UNL     1      22.681  -0.809  54.491  1.00  0.00     0.216 A 
HETATM    6  C11 UNL     1      24.027  -0.682  54.457  1.00  0.00     0.014 C 
HETATM    7  C12 UNL     1      25.349  -0.240  53.955  1.00  0.00     0.001 C 
HETATM    8  C13 UNL     1      25.627   0.481  52.929  1.00  0.00     0.033 C 
HETATM    9  C14 UNL     1      24.880   1.111  51.925  1.00  0.00     0.080 A 
HETATM   10  N1  UNL     1      25.268   2.085  51.026  1.00  0.00    -0.241 NA
HETATM   11  C15 UNL     1      24.312   2.554  50.128  1.00  0.00     0.236 A 
HETATM   12  N2  UNL     1      22.965   2.207  49.960  1.00  0.00    -0.223 NA
HETATM   13  C16 UNL     1      22.447   1.225  50.817  1.00  0.00     0.146 A 
HETATM   14  C17 UNL     1      23.629   1.093  51.436  1.00  0.00     0.092 A 
HETATM   15  N4  UNL     1      21.191   0.660  50.942  1.00  0.00    -0.361 N 
HETATM   16  H22 UNL     1      21.331   0.169  50.039  1.00  0.00     0.162 HD
ENDROOT
BRANCH  14  17
HETATM   17  C18 UNL     1      23.399   2.548  51.981  1.00  0.00    -0.061 C 
BRANCH  17  18
HETATM   18  C19 UNL     1      23.233   3.719  52.435  1.00  0.00    -0.100 C 
BRANCH  18  19
HETATM   19  C20 UNL     1      23.020   5.056  52.947  1.00  0.00     0.109 C 
BRANCH  19  20
HETATM   20  C21 UNL     1      22.491   5.899  51.827  1.00  0.00     0.107 C 
BRANCH  20  21
HETATM   21  N3  UNL     1      23.462   5.884  50.780  1.00  0.00    -0.278 NA
HETATM   22  C22 UNL     1      24.540   6.811  50.905  1.00  0.00     0.122 C 
HETATM   23  C23 UNL     1      24.014   8.189  50.554  1.00  0.00     0.189 C 
HETATM   24  O2  UNL     1      23.921   8.362  49.141  1.00  0.00    -0.359 OA
HETATM   25  C24 UNL     1      23.187   7.464  48.356  1.00  0.00     0.163 C 
HETATM   26  P1  UNL     1      22.844   6.029  49.120  1.00  0.00     0.054 P 
ENDBRANCH  20  21
ENDBRANCH  19  20
ENDBRANCH  18  19
ENDBRANCH  17  18
ENDBRANCH  14  17
BRANCH   1  27
HETATM   27  C6  UNL     1      18.848   0.214  51.491  1.00  0.00     0.001 A 
HETATM   28  C1  UNL     1      18.154   0.347  50.311  1.00  0.00     0.074 A 
HETATM   29  C2  UNL     1      16.923  -0.186  50.049  1.00  0.00     0.037 A 
HETATM   30  C3  UNL     1      16.305  -0.921  51.034  1.00  0.00     0.003 A 
HETATM   31  C4  UNL     1      16.967  -1.087  52.257  1.00  0.00     0.001 A 
HETATM   32  C5  UNL     1      18.208  -0.536  52.485  1.00  0.00     0.012 A 
BRANCH  28  33
HETATM   33  O1  UNL     1      18.766   1.076  49.334  1.00  0.00    -0.360 OA
HETATM   34  H1  UNL     1      19.256   1.967  49.490  1.00  0.00     0.217 HD
ENDBRANCH  28  33
ENDBRANCH   1  27
TORSDOF 7
ENDMDL
MODEL 5
REMARK VINA RESULT:      -7.9      4.456      6.605
REMARK  7 active torsions:
REMARK  status: ('A' for Active; 'I' for Inactive)
REMARK    1  A    between atoms: O1_1  and  C1_2 
REMARK    2  A    between atoms: C6_7  and  C7_8 
REMARK    3  A    between atoms: C17_21  and  C18_22 
REMARK    4  A    between atoms: C18_22  and  C19_23 
REMARK    5  A    between atoms: C19_23  and  C20_24 
REMARK    6  A    between atoms: C20_24  and  C21_25 
REMARK    7  A    between atoms: C21_25  and  N3_26 
ROOT
HETATM    1  C7  UNL     1      25.059   3.485  50.685  1.00  0.00     0.145 C 
HETATM    2  C8  UNL     1      24.173   2.842  49.651  1.00  0.00     0.040 C 
HETATM    3  C9  UNL     1      23.248   2.685  48.675  1.00  0.00     0.086 A 
HETATM    4  F1  UNL     1      22.544   1.879  47.793  1.00  0.00    -0.357 F 
HETATM    5  C10 UNL     1      22.314   3.485  47.894  1.00  0.00     0.216 A 
HETATM    6  C11 UNL     1      21.640   4.565  47.438  1.00  0.00     0.014 C 
HETATM    7  C12 UNL     1      21.243   5.989  47.336  1.00  0.00     0.001 C 
HETATM    8  C13 UNL     1      21.682   7.003  47.992  1.00  0.00     0.033 C 
HETATM    9  C14 UNL     1      22.637   7.198  48.997  1.00  0.00     0.080 A 
HETATM   10  N1  UNL     1      23.217   8.371  49.437  1.00  0.00    -0.241 NA
HETATM   11  C15 UNL     1      24.162   8.283  50.457  1.00  0.00     0.236 A 
HETATM   12  N2  UNL     1      24.659   7.173  51.151  1.00  0.00    -0.223 NA
HETATM   13  C16 UNL     1      24.148   5.916  50.796  1.00  0.00     0.146 A 
HETATM   14  C17 UNL     1      23.351   6.465  49.868  1.00  0.00     0.092 A 
HETATM   15  N4  UNL     1      24.411   4.636  51.249  1.00  0.00    -0.361 N 
HETATM   16  H22 UNL     1      23.939   4.864  52.143  1.00  0.00     0.162 HD
ENDROOT
BRANCH  14  17
HETATM   17  C18 UNL     1      24.665   6.822  49.086  1.00  0.00    -0.061 C 
BRANCH  17  18
HETATM   18  C19 UNL     1      25.723   7.090  48.443  1.00  0.00    -0.100 C 
BRANCH  18  19
HETATM   19  C20 UNL     1      26.945   7.390  47.728  1.00  0.00     0.109 C 
BRANCH  19  20
HETATM   20  C21 UNL     1      27.927   7.952  48.710  1.00  0.00     0.107 C 
BRANCH  20  21
HETATM   21  N3  UNL     1      29.181   8.084  48.040  1.00  0.00    -0.278 NA
HETATM   22  C22 UNL     1      29.716   6.894  47.462  1.00  0.00     0.122 C 
HETATM   23  C23 UNL     1      30.275   6.040  48.583  1.00  0.00     0.189 C 
HETATM   24  O2  UNL     1      31.555   6.511  49.002  1.00  0.00    -0.359 OA
HETATM   25  C24 UNL     1      31.732   7.838  49.411  1.00  0.00     0.163 C 
HETATM   26  P1  UNL     1      30.497   8.851  48.956  1.00  0.00     0.054 P 
ENDBRANCH  20  21
ENDBRANCH  19  20
ENDBRANCH  18  19
ENDBRANCH  17  18
ENDBRANCH  14  17
BRANCH   1  27
HETATM   27  C6  UNL     1      25.394   2.431  51.654  1.00  0.00     0.001 A 
HETATM   28  C1  UNL     1      26.575   2.088  52.270  1.00  0.00     0.074 A 
HETATM   29  C2  UNL     1      26.741   1.056  53.151  1.00  0.00     0.037 A 
HETATM   30  C3  UNL     1      25.650   0.279  53.463  1.00  0.00     0.003 A 
HETATM   31  C4  UNL     1      24.422   0.585  52.861  1.00  0.00     0.001 A 
HETATM   32  C5  UNL     1      24.292   1.633  51.980  1.00  0.00     0.012 A 
BRANCH  28  33
HETATM   33  O1  UNL     1      27.659   2.857  51.961  1.00  0.00    -0.360 OA
HETATM   34  H1  UNL     1      27.655   3.885  51.924  1.00  0.00     0.217 HD
ENDBRANCH  28  33
ENDBRANCH   1  27
TORSDOF 7
ENDMDL
MODEL 6
REMARK VINA RESULT:      -7.9      3.592      7.605
REMARK  7 active torsions:
REMARK  status: ('A' for Active; 'I' for Inactive)
REMARK    1  A    between atoms: O1_1  and  C1_2 
REMARK    2  A    between atoms: C6_7  and  C7_8 
REMARK    3  A    between atoms: C17_21  and  C18_22 
REMARK    4  A    between atoms: C18_22  and  C19_23 
REMARK    5  A    between atoms: C19_23  and  C20_24 
REMARK    6  A    between atoms: C20_24  and  C21_25 
REMARK    7  A    between atoms: C21_25  and  N3_26 
ROOT
HETATM    1  C7  UNL     1      21.247   1.601  51.119  1.00  0.00     0.145 C 
HETATM    2  C8  UNL     1      20.924   1.747  49.656  1.00  0.00     0.040 C 
HETATM    3  C9  UNL     1      20.872   2.246  48.399  1.00  0.00     0.086 A 
HETATM    4  F1  UNL     1      20.453   2.163  47.080  1.00  0.00    -0.357 F 
HETATM    5  C10 UNL     1      21.346   3.399  47.644  1.00  0.00     0.216 A 
HETATM    6  C11 UNL     1      21.963   4.570  47.370  1.00  0.00     0.014 C 
HETATM    7  C12 UNL     1      22.759   5.793  47.628  1.00  0.00     0.001 C 
HETATM    8  C13 UNL     1      23.302   6.190  48.723  1.00  0.00     0.033 C 
HETATM    9  C14 UNL     1      23.379   5.695  50.031  1.00  0.00     0.080 A 
HETATM   10  N1  UNL     1      24.218   6.071  51.061  1.00  0.00    -0.241 NA
HETATM   11  C15 UNL     1      24.094   5.400  52.275  1.00  0.00     0.236 A 
HETATM   12  N2  UNL     1      23.236   4.363  52.664  1.00  0.00    -0.223 NA
HETATM   13  C16 UNL     1      22.331   3.888  51.704  1.00  0.00     0.146 A 
HETATM   14  C17 UNL     1      22.788   4.760  50.793  1.00  0.00     0.092 A 
HETATM   15  N4  UNL     1      21.371   2.893  51.733  1.00  0.00    -0.361 N 
HETATM   16  H22 UNL     1      20.795   3.479  52.365  1.00  0.00     0.162 HD
ENDROOT
BRANCH  14  17
HETATM   17  C18 UNL     1      24.126   3.938  50.816  1.00  0.00    -0.061 C 
BRANCH  17  18
HETATM   18  C19 UNL     1      25.195   3.258  50.823  1.00  0.00    -0.100 C 
BRANCH  18  19
HETATM   19  C20 UNL     1      26.418   2.484  50.856  1.00  0.00     0.109 C 
BRANCH  19  20
HETATM   20  C21 UNL     1      26.851   2.368  52.285  1.00  0.00     0.107 C 
BRANCH  20  21
HETATM   21  N3  UNL     1      27.438   1.078  52.454  1.00  0.00    -0.278 NA
HETATM   22  C22 UNL     1      26.543   0.014  52.773  1.00  0.00     0.122 C 
HETATM   23  C23 UNL     1      26.152   0.154  54.232  1.00  0.00     0.189 C 
HETATM   24  O2  UNL     1      27.178  -0.341  55.092  1.00  0.00    -0.359 OA
HETATM   25  C24 UNL     1      28.486   0.148  55.001  1.00  0.00     0.163 C 
HETATM   26  P1  UNL     1      28.801   0.966  53.590  1.00  0.00     0.054 P 
ENDBRANCH  20  21
ENDBRANCH  19  20
ENDBRANCH  18  19
ENDBRANCH  17  18
ENDBRANCH  14  17
BRANCH   1  27
HETATM   27  C6  UNL     1      20.194   0.747  51.692  1.00  0.00     0.001 A 
HETATM   28  C1  UNL     1      20.102   0.076  52.889  1.00  0.00     0.074 A 
HETATM   29  C2  UNL     1      19.051  -0.705  53.282  1.00  0.00     0.037 A 
HETATM   30  C3  UNL     1      17.985  -0.849  52.425  1.00  0.00     0.003 A 
HETATM   31  C4  UNL     1      18.029  -0.187  51.191  1.00  0.00     0.001 A 
HETATM   32  C5  UNL     1      19.103   0.593  50.829  1.00  0.00     0.012 A 
BRANCH  28  33
HETATM   33  O1  UNL     1      21.159   0.217  53.739  1.00  0.00    -0.360 OA
HETATM   34  H1  UNL     1      21.169  -0.101  54.717  1.00  0.00     0.217 HD
ENDBRANCH  28  33
ENDBRANCH   1  27
TORSDOF 7
ENDMDL
MODEL 7
REMARK VINA RESULT:      -7.8      4.729      6.854
REMARK  7 active torsions:
REMARK  status: ('A' for Active; 'I' for Inactive)
REMARK    1  A    between atoms: O1_1  and  C1_2 
REMARK    2  A    between atoms: C6_7  and  C7_8 
REMARK    3  A    between atoms: C17_21  and  C18_22 
REMARK    4  A    between atoms: C18_22  and  C19_23 
REMARK    5  A    between atoms: C19_23  and  C20_24 
REMARK    6  A    between atoms: C20_24  and  C21_25 
REMARK    7  A    between atoms: C21_25  and  N3_26 
ROOT
HETATM    1  C7  UNL     1      24.241   2.991  50.710  1.00  0.00     0.145 C 
HETATM    2  C8  UNL     1      23.516   2.506  49.483  1.00  0.00     0.040 C 
HETATM    3  C9  UNL     1      22.847   2.507  48.306  1.00  0.00     0.086 A 
HETATM    4  F1  UNL     1      22.221   1.832  47.270  1.00  0.00    -0.357 F 
HETATM    5  C10 UNL     1      22.333   3.452  47.324  1.00  0.00     0.216 A 
HETATM    6  C11 UNL     1      22.046   4.630  46.724  1.00  0.00     0.014 C 
HETATM    7  C12 UNL     1      22.010   6.099  46.538  1.00  0.00     0.001 C 
HETATM    8  C13 UNL     1      22.487   7.024  47.292  1.00  0.00     0.033 C 
HETATM    9  C14 UNL     1      23.186   7.056  48.505  1.00  0.00     0.080 A 
HETATM   10  N1  UNL     1      23.885   8.095  49.086  1.00  0.00    -0.241 NA
HETATM   11  C15 UNL     1      24.508   7.854  50.308  1.00  0.00     0.236 A 
HETATM   12  N2  UNL     1      24.562   6.696  51.095  1.00  0.00    -0.223 NA
HETATM   13  C16 UNL     1      23.889   5.563  50.612  1.00  0.00     0.146 A 
HETATM   14  C17 UNL     1      23.485   6.227  49.520  1.00  0.00     0.092 A 
HETATM   15  N4  UNL     1      23.745   4.279  51.105  1.00  0.00    -0.361 N 
HETATM   16  H22 UNL     1      23.130   4.645  51.856  1.00  0.00     0.162 HD
ENDROOT
BRANCH  14  17
HETATM   17  C18 UNL     1      24.996   6.256  49.093  1.00  0.00    -0.061 C 
BRANCH  17  18
HETATM   18  C19 UNL     1      26.209   6.273  48.727  1.00  0.00    -0.100 C 
BRANCH  18  19
HETATM   19  C20 UNL     1      27.601   6.297  48.332  1.00  0.00     0.109 C 
BRANCH  19  20
HETATM   20  C21 UNL     1      27.951   7.706  47.962  1.00  0.00     0.107 C 
BRANCH  20  21
HETATM   21  N3  UNL     1      28.569   8.309  49.098  1.00  0.00    -0.278 NA
HETATM   22  C22 UNL     1      27.902   9.442  49.653  1.00  0.00     0.122 C 
HETATM   23  C23 UNL     1      28.156  10.627  48.742  1.00  0.00     0.189 C 
HETATM   24  O2  UNL     1      29.453  11.179  48.962  1.00  0.00    -0.359 OA
HETATM   25  C24 UNL     1      30.598  10.379  48.873  1.00  0.00     0.163 C 
HETATM   26  P1  UNL     1      30.284   8.749  48.933  1.00  0.00     0.054 P 
ENDBRANCH  20  21
ENDBRANCH  19  20
ENDBRANCH  18  19
ENDBRANCH  17  18
ENDBRANCH  14  17
BRANCH   1  27
HETATM   27  C6  UNL     1      24.088   1.936  51.724  1.00  0.00     0.001 A 
HETATM   28  C1  UNL     1      23.038   1.588  52.540  1.00  0.00     0.074 A 
HETATM   29  C2  UNL     1      23.048   0.577  53.461  1.00  0.00     0.037 A 
HETATM   30  C3  UNL     1      24.195  -0.168  53.601  1.00  0.00     0.003 A 
HETATM   31  C4  UNL     1      25.296   0.145  52.795  1.00  0.00     0.001 A 
HETATM   32  C5  UNL     1      25.249   1.169  51.877  1.00  0.00     0.012 A 
BRANCH  28  33
HETATM   33  O1  UNL     1      21.900   2.328  52.403  1.00  0.00    -0.360 OA
HETATM   34  H1  UNL     1      20.949   1.937  52.373  1.00  0.00     0.217 HD
ENDBRANCH  28  33
ENDBRANCH   1  27
TORSDOF 7
ENDMDL
MODEL 8
REMARK VINA RESULT:      -7.7      8.165     10.519
REMARK  7 active torsions:
REMARK  status: ('A' for Active; 'I' for Inactive)
REMARK    1  A    between atoms: O1_1  and  C1_2 
REMARK    2  A    between atoms: C6_7  and  C7_8 
REMARK    3  A    between atoms: C17_21  and  C18_22 
REMARK    4  A    between atoms: C18_22  and  C19_23 
REMARK    5  A    between atoms: C19_23  and  C20_24 
REMARK    6  A    between atoms: C20_24  and  C21_25 
REMARK    7  A    between atoms: C21_25  and  N3_26 
ROOT
HETATM    1  C7  UNL     1      27.030   7.227  48.300  1.00  0.00     0.145 C 
HETATM    2  C8  UNL     1      25.860   8.112  47.957  1.00  0.00     0.040 C 
HETATM    3  C9  UNL     1      25.112   9.217  47.735  1.00  0.00     0.086 A 
HETATM    4  F1  UNL     1      23.912   9.816  47.384  1.00  0.00    -0.357 F 
HETATM    5  C10 UNL     1      25.241  10.668  47.772  1.00  0.00     0.216 A 
HETATM    6  C11 UNL     1      25.797  11.890  47.937  1.00  0.00     0.014 C 
HETATM    7  C12 UNL     1      26.850  12.885  48.247  1.00  0.00     0.001 C 
HETATM    8  C13 UNL     1      28.069  12.691  48.603  1.00  0.00     0.033 C 
HETATM    9  C14 UNL     1      28.870  11.566  48.833  1.00  0.00     0.080 A 
HETATM   10  N1  UNL     1      30.243  11.478  48.950  1.00  0.00    -0.241 NA
HETATM   11  C15 UNL     1      30.795  10.218  49.169  1.00  0.00     0.236 A 
HETATM   12  N2  UNL     1      30.187   8.962  49.297  1.00  0.00    -0.223 NA
HETATM   13  C16 UNL     1      28.789   8.916  49.196  1.00  0.00     0.146 A 
HETATM   14  C17 UNL     1      28.725  10.241  49.008  1.00  0.00     0.092 A 
HETATM   15  N4  UNL     1      27.880   7.875  49.259  1.00  0.00    -0.361 N 
HETATM   16  H22 UNL     1      28.070   7.781  50.273  1.00  0.00     0.162 HD
ENDROOT
BRANCH  14  17
HETATM   17  C18 UNL     1      29.435   9.986  47.631  1.00  0.00    -0.061 C 
BRANCH  17  18
HETATM   18  C19 UNL     1      29.990   9.767  46.514  1.00  0.00    -0.100 C 
BRANCH  18  19
HETATM   19  C20 UNL     1      30.637   9.500  45.246  1.00  0.00     0.109 C 
BRANCH  19  20
HETATM   20  C21 UNL     1      30.976   8.042  45.201  1.00  0.00     0.107 C 
BRANCH  20  21
HETATM   21  N3  UNL     1      31.951   7.793  46.214  1.00  0.00    -0.278 NA
HETATM   22  C22 UNL     1      33.316   7.837  45.801  1.00  0.00     0.122 C 
HETATM   23  C23 UNL     1      33.615   6.560  45.040  1.00  0.00     0.189 C 
HETATM   24  O2  UNL     1      33.833   5.467  45.930  1.00  0.00    -0.359 OA
HETATM   25  C24 UNL     1      32.875   5.121  46.890  1.00  0.00     0.163 C 
HETATM   26  P1  UNL     1      31.747   6.308  47.169  1.00  0.00     0.054 P 
ENDBRANCH  20  21
ENDBRANCH  19  20
ENDBRANCH  18  19
ENDBRANCH  17  18
ENDBRANCH  14  17
BRANCH   1  27
HETATM   27  C6  UNL     1      26.462   5.946  48.749  1.00  0.00     0.001 A 
HETATM   28  C1  UNL     1      27.047   4.785  49.194  1.00  0.00     0.074 A 
HETATM   29  C2  UNL     1      26.380   3.651  49.566  1.00  0.00     0.037 A 
HETATM   30  C3  UNL     1      25.007   3.647  49.498  1.00  0.00     0.003 A 
HETATM   31  C4  UNL     1      24.359   4.805  49.050  1.00  0.00     0.001 A 
HETATM   32  C5  UNL     1      25.064   5.930  48.684  1.00  0.00     0.012 A 
BRANCH  28  33
HETATM   33  O1  UNL     1      28.410   4.786  49.261  1.00  0.00    -0.360 OA
HETATM   34  H1  UNL     1      28.980   5.593  49.548  1.00  0.00     0.217 HD
ENDBRANCH  28  33
ENDBRANCH   1  27
TORSDOF 7
ENDMDL
MODEL 9
REMARK VINA RESULT:      -7.7      3.849      5.444
REMARK  7 active torsions:
REMARK  status: ('A' for Active; 'I' for Inactive)
REMARK    1  A    between atoms: O1_1  and  C1_2 
REMARK    2  A    between atoms: C6_7  and  C7_8 
REMARK    3  A    between atoms: C17_21  and  C18_22 
REMARK    4  A    between atoms: C18_22  and  C19_23 
REMARK    5  A    between atoms: C19_23  and  C20_24 
REMARK    6  A    between atoms: C20_24  and  C21_25 
REMARK    7  A    between atoms: C21_25  and  N3_26 
ROOT
HETATM    1  C7  UNL     1      24.628   2.651  51.776  1.00  0.00     0.145 C 
HETATM    2  C8  UNL     1      23.635   1.932  50.901  1.00  0.00     0.040 C 
HETATM    3  C9  UNL     1      22.616   1.704  50.041  1.00  0.00     0.086 A 
HETATM    4  F1  UNL     1      21.817   0.833  49.314  1.00  0.00    -0.357 F 
HETATM    5  C10 UNL     1      21.619   2.446  49.282  1.00  0.00     0.216 A 
HETATM    6  C11 UNL     1      20.916   3.493  48.792  1.00  0.00     0.014 C 
HETATM    7  C12 UNL     1      20.528   4.909  48.591  1.00  0.00     0.001 C 
HETATM    8  C13 UNL     1      21.043   5.970  49.100  1.00  0.00     0.033 C 
HETATM    9  C14 UNL     1      22.096   6.239  49.983  1.00  0.00     0.080 A 
HETATM   10  N1  UNL     1      22.732   7.436  50.248  1.00  0.00    -0.241 NA
HETATM   11  C15 UNL     1      23.773   7.425  51.174  1.00  0.00     0.236 A 
HETATM   12  N2  UNL     1      24.322   6.374  51.921  1.00  0.00    -0.223 NA
HETATM   13  C16 UNL     1      23.763   5.101  51.741  1.00  0.00     0.146 A 
HETATM   14  C17 UNL     1      22.884   5.577  50.847  1.00  0.00     0.092 A 
HETATM   15  N4  UNL     1      24.053   3.864  52.287  1.00  0.00    -0.361 N 
HETATM   16  H22 UNL     1      23.676   4.187  53.197  1.00  0.00     0.162 HD
ENDROOT
BRANCH  14  17
HETATM   17  C18 UNL     1      24.118   5.829  49.908  1.00  0.00    -0.061 C 
BRANCH  17  18
HETATM   18  C19 UNL     1      25.128   6.027  49.169  1.00  0.00    -0.100 C 
BRANCH  18  19
HETATM   19  C20 UNL     1      26.285   6.231  48.324  1.00  0.00     0.109 C 
BRANCH  19  20
HETATM   20  C21 UNL     1      26.163   7.584  47.693  1.00  0.00     0.107 C 
BRANCH  20  21
HETATM   21  N3  UNL     1      27.424   8.237  47.824  1.00  0.00    -0.278 NA
HETATM   22  C22 UNL     1      27.942   8.353  49.148  1.00  0.00     0.122 C 
HETATM   23  C23 UNL     1      27.171   9.451  49.856  1.00  0.00     0.189 C 
HETATM   24  O2  UNL     1      27.640  10.743  49.471  1.00  0.00    -0.359 OA
HETATM   25  C24 UNL     1      27.683  11.117  48.123  1.00  0.00     0.163 C 
HETATM   26  P1  UNL     1      27.574   9.839  47.067  1.00  0.00     0.054 P 
ENDBRANCH  20  21
ENDBRANCH  19  20
ENDBRANCH  18  19
ENDBRANCH  17  18
ENDBRANCH  14  17
BRANCH   1  27
HETATM   27  C6  UNL     1      25.045   1.687  52.806  1.00  0.00     0.001 A 
HETATM   28  C1  UNL     1      26.053   1.717  53.741  1.00  0.00     0.074 A 
HETATM   29  C2  UNL     1      26.336   0.723  54.636  1.00  0.00     0.037 A 
HETATM   30  C3  UNL     1      25.561  -0.414  54.618  1.00  0.00     0.003 A 
HETATM   31  C4  UNL     1      24.522  -0.496  53.684  1.00  0.00     0.001 A 
HETATM   32  C5  UNL     1      24.265   0.526  52.798  1.00  0.00     0.012 A 
BRANCH  28  33
HETATM   33  O1  UNL     1      26.822   2.844  53.759  1.00  0.00    -0.360 OA
HETATM   34  H1  UNL     1      27.006   3.439  52.941  1.00  0.00     0.217 HD
ENDBRANCH  28  33
ENDBRANCH   1  27
TORSDOF 7
ENDMDL
