MODEL 1
REMARK VINA RESULT:      -8.2      0.000      0.000
REMARK  0 active torsions:
REMARK  status: ('A' for Active; 'I' for Inactive)
ROOT
HETATM    1  O1  UNL     1      26.356   2.476  52.490  1.00  0.00    -0.135 OA
HETATM    2  C1  UNL     1      26.472   2.381  51.270  1.00  0.00     0.371 A 
HETATM    3  C2  UNL     1      26.608   2.526  49.764  1.00  0.00     0.094 C 
HETATM    4  C3  UNL     1      26.367   4.061  49.538  1.00  0.00     0.098 C 
HETATM    5  C4  UNL     1      25.213   4.428  50.302  1.00  0.00    -0.108 C 
HETATM    6  S1  UNL     1      24.197   4.749  50.991  1.00  0.00    -0.064 SA
HETATM    7  C5  UNL     1      22.975   5.120  51.843  1.00  0.00     0.054 C 
HETATM    8  C6  UNL     1      22.352   4.080  52.448  1.00  0.00    -0.015 C 
HETATM    9  C7  UNL     1      22.984   2.716  52.146  1.00  0.00     0.054 C 
HETATM   10  C8  UNL     1      21.964   1.770  51.871  1.00  0.00    -0.023 C 
HETATM   11  C9  UNL     1      21.431   0.661  52.212  1.00  0.00    -0.001 C 
HETATM   12  C10 UNL     1      21.186  -0.573  52.930  1.00  0.00     0.042 C 
HETATM   13  C11 UNL     1      21.975  -1.013  53.977  1.00  0.00     0.114 C 
HETATM   14  F1  UNL     1      22.365  -1.848  54.991  1.00  0.00    -0.206 F 
HETATM   15  C12 UNL     1      23.369  -0.600  53.954  1.00  0.00     0.084 C 
HETATM   16  C13 UNL     1      24.624  -0.100  53.724  1.00  0.00     0.150 C 
HETATM   17  S2  UNL     1      26.284   0.511  53.503  1.00  0.00     0.349 S 
HETATM   18  O2  UNL     1      27.237  -0.615  53.823  1.00  0.00    -0.196 OA
HETATM   19  O3  UNL     1      26.540   1.535  54.588  1.00  0.00    -0.196 OA
HETATM   20  N1  UNL     1      26.444   1.124  51.919  1.00  0.00     0.191 N 
HETATM   21  H14 UNL     1      26.542   0.286  51.292  1.00  0.00     0.344 HD
ENDROOT
TORSDOF 0
ENDMDL
MODEL 2
REMARK VINA RESULT:      -7.6      3.220      5.336
REMARK  0 active torsions:
REMARK  status: ('A' for Active; 'I' for Inactive)
ROOT
HETATM    1  O1  UNL     1      22.478   2.692  51.641  1.00  0.00    -0.135 OA
HETATM    2  C1  UNL     1      22.081   1.963  50.734  1.00  0.00     0.371 A 
HETATM    3  C2  UNL     1      21.376   1.035  49.761  1.00  0.00     0.094 C 
HETATM    4  C3  UNL     1      20.118   0.567  50.576  1.00  0.00     0.098 C 
HETATM    5  C4  UNL     1      20.569   0.202  51.884  1.00  0.00    -0.108 C 
HETATM    6  S1  UNL     1      20.975  -0.108  53.046  1.00  0.00    -0.064 SA
HETATM    7  C5  UNL     1      21.482  -0.464  54.450  1.00  0.00     0.054 C 
HETATM    8  C6  UNL     1      22.827  -0.418  54.610  1.00  0.00    -0.015 C 
HETATM    9  C7  UNL     1      23.592  -0.034  53.337  1.00  0.00     0.054 C 
HETATM   10  C8  UNL     1      24.719  -0.881  53.186  1.00  0.00    -0.023 C 
HETATM   11  C9  UNL     1      25.990  -0.941  53.088  1.00  0.00    -0.001 C 
HETATM   12  C10 UNL     1      27.376  -0.525  53.016  1.00  0.00     0.042 C 
HETATM   13  C11 UNL     1      27.774   0.799  53.040  1.00  0.00     0.114 C 
HETATM   14  F1  UNL     1      28.660   1.844  53.038  1.00  0.00    -0.206 F 
HETATM   15  C12 UNL     1      26.828   1.768  52.509  1.00  0.00     0.084 C 
HETATM   16  C13 UNL     1      25.797   2.488  51.965  1.00  0.00     0.150 C 
HETATM   17  S2  UNL     1      24.504   3.501  51.272  1.00  0.00     0.349 S 
HETATM   18  O2  UNL     1      25.150   4.518  50.363  1.00  0.00    -0.196 OA
HETATM   19  O3  UNL     1      23.920   4.327  52.398  1.00  0.00    -0.196 OA
HETATM   20  N1  UNL     1      23.370   2.495  50.489  1.00  0.00     0.191 N 
HETATM   21  H14 UNL     1      23.808   2.221  49.574  1.00  0.00     0.344 HD
ENDROOT
TORSDOF 0
ENDMDL
MODEL 3
REMARK VINA RESULT:      -7.3      3.503      5.084
REMARK  0 active torsions:
REMARK  status: ('A' for Active; 'I' for Inactive)
ROOT
HETATM    1  O1  UNL     1      23.081   3.490  50.127  1.00  0.00    -0.135 OA
HETATM    2  C1  UNL     1      22.805   2.679  49.246  1.00  0.00     0.371 A 
HETATM    3  C2  UNL     1      22.220   1.690  48.252  1.00  0.00     0.094 C 
HETATM    4  C3  UNL     1      20.766   1.463  48.802  1.00  0.00     0.098 C 
HETATM    5  C4  UNL     1      20.873   1.249  50.214  1.00  0.00    -0.108 C 
HETATM    6  S1  UNL     1      20.975   1.073  51.466  1.00  0.00    -0.064 SA
HETATM    7  C5  UNL     1      21.116   0.876  52.982  1.00  0.00     0.054 C 
HETATM    8  C6  UNL     1      22.389   0.819  53.443  1.00  0.00    -0.015 C 
HETATM    9  C7  UNL     1      23.454   0.944  52.346  1.00  0.00     0.054 C 
HETATM   10  C8  UNL     1      24.473  -0.017  52.563  1.00  0.00    -0.023 C 
HETATM   11  C9  UNL     1      25.719  -0.208  52.771  1.00  0.00    -0.001 C 
HETATM   12  C10 UNL     1      27.127   0.062  52.973  1.00  0.00     0.042 C 
HETATM   13  C11 UNL     1      27.670   1.333  52.932  1.00  0.00     0.114 C 
HETATM   14  F1  UNL     1      28.657   2.280  53.013  1.00  0.00    -0.206 F 
HETATM   15  C12 UNL     1      26.990   2.300  52.085  1.00  0.00     0.084 C 
HETATM   16  C13 UNL     1      26.198   3.027  51.235  1.00  0.00     0.150 C 
HETATM   17  S2  UNL     1      25.222   4.046  50.145  1.00  0.00     0.349 S 
HETATM   18  O2  UNL     1      26.171   4.857  49.297  1.00  0.00    -0.196 OA
HETATM   19  O3  UNL     1      24.513   5.075  50.998  1.00  0.00    -0.196 OA
HETATM   20  N1  UNL     1      24.171   3.048  49.245  1.00  0.00     0.191 N 
HETATM   21  H14 UNL     1      24.760   2.606  48.496  1.00  0.00     0.344 HD
ENDROOT
TORSDOF 0
ENDMDL
MODEL 4
REMARK VINA RESULT:      -7.1      4.252      6.921
REMARK  0 active torsions:
REMARK  status: ('A' for Active; 'I' for Inactive)
ROOT
HETATM    1  O1  UNL     1      21.710   3.629  51.013  1.00  0.00    -0.135 OA
HETATM    2  C1  UNL     1      21.502   2.601  50.371  1.00  0.00     0.371 A 
HETATM    3  C2  UNL     1      21.226   1.216  49.813  1.00  0.00     0.094 C 
HETATM    4  C3  UNL     1      21.286   0.306  51.092  1.00  0.00     0.098 C 
HETATM    5  C4  UNL     1      22.455   0.682  51.828  1.00  0.00    -0.108 C 
HETATM    6  S1  UNL     1      23.487   1.029  52.481  1.00  0.00    -0.064 SA
HETATM    7  C5  UNL     1      24.731   1.472  53.264  1.00  0.00     0.054 C 
HETATM    8  C6  UNL     1      25.507   2.394  52.646  1.00  0.00    -0.015 C 
HETATM    9  C7  UNL     1      24.997   2.807  51.259  1.00  0.00     0.054 C 
HETATM   10  C8  UNL     1      26.084   2.858  50.349  1.00  0.00    -0.023 C 
HETATM   11  C9  UNL     1      26.756   3.587  49.545  1.00  0.00    -0.001 C 
HETATM   12  C10 UNL     1      27.188   4.741  48.783  1.00  0.00     0.042 C 
HETATM   13  C11 UNL     1      26.540   5.961  48.821  1.00  0.00     0.114 C 
HETATM   14  F1  UNL     1      26.325   7.279  48.512  1.00  0.00    -0.206 F 
HETATM   15  C12 UNL     1      25.113   5.928  49.101  1.00  0.00     0.084 C 
HETATM   16  C13 UNL     1      23.798   5.655  49.372  1.00  0.00     0.150 C 
HETATM   17  S2  UNL     1      22.071   5.390  49.724  1.00  0.00     0.349 S 
HETATM   18  O2  UNL     1      21.270   6.289  48.813  1.00  0.00    -0.196 OA
HETATM   19  O3  UNL     1      21.800   5.932  51.112  1.00  0.00    -0.196 OA
HETATM   20  N1  UNL     1      21.715   3.731  49.546  1.00  0.00     0.191 N 
HETATM   21  H14 UNL     1      21.653   3.557  48.512  1.00  0.00     0.344 HD
ENDROOT
TORSDOF 0
ENDMDL
MODEL 5
REMARK VINA RESULT:      -6.7      3.479      4.659
REMARK  0 active torsions:
REMARK  status: ('A' for Active; 'I' for Inactive)
ROOT
HETATM    1  O1  UNL     1      22.388   4.211  49.749  1.00  0.00    -0.135 OA
HETATM    2  C1  UNL     1      22.518   5.219  50.441  1.00  0.00     0.371 A 
HETATM    3  C2  UNL     1      22.826   6.554  51.097  1.00  0.00     0.094 C 
HETATM    4  C3  UNL     1      23.902   7.174  50.136  1.00  0.00     0.098 C 
HETATM    5  C4  UNL     1      24.863   6.151  49.855  1.00  0.00    -0.108 C 
HETATM    6  S1  UNL     1      25.705   5.236  49.601  1.00  0.00    -0.064 SA
HETATM    7  C5  UNL     1      26.704   4.112  49.294  1.00  0.00     0.054 C 
HETATM    8  C6  UNL     1      26.510   2.960  49.980  1.00  0.00    -0.015 C 
HETATM    9  C7  UNL     1      25.328   3.009  50.957  1.00  0.00     0.054 C 
HETATM   10  C8  UNL     1      25.705   2.419  52.190  1.00  0.00    -0.023 C 
HETATM   11  C9  UNL     1      25.460   1.498  53.039  1.00  0.00    -0.001 C 
HETATM   12  C10 UNL     1      24.830   0.361  53.678  1.00  0.00     0.042 C 
HETATM   13  C11 UNL     1      23.717  -0.278  53.164  1.00  0.00     0.114 C 
HETATM   14  F1  UNL     1      22.720  -1.216  53.113  1.00  0.00    -0.206 F 
HETATM   15  C12 UNL     1      22.815   0.537  52.365  1.00  0.00     0.084 C 
HETATM   16  C13 UNL     1      22.120   1.485  51.661  1.00  0.00     0.150 C 
HETATM   17  S2  UNL     1      21.155   2.654  50.723  1.00  0.00     0.349 S 
HETATM   18  O2  UNL     1      19.702   2.434  51.066  1.00  0.00    -0.196 OA
HETATM   19  O3  UNL     1      21.256   2.261  49.264  1.00  0.00    -0.196 OA
HETATM   20  N1  UNL     1      21.714   4.230  51.056  1.00  0.00     0.191 N 
HETATM   21  H14 UNL     1      21.323   4.484  51.998  1.00  0.00     0.344 HD
ENDROOT
TORSDOF 0
ENDMDL
MODEL 6
REMARK VINA RESULT:      -6.7      3.232      4.116
REMARK  0 active torsions:
REMARK  status: ('A' for Active; 'I' for Inactive)
ROOT
HETATM    1  O1  UNL     1      24.589   5.502  50.829  1.00  0.00    -0.135 OA
HETATM    2  C1  UNL     1      25.541   5.407  50.056  1.00  0.00     0.371 A 
HETATM    3  C2  UNL     1      26.652   5.532  49.028  1.00  0.00     0.094 C 
HETATM    4  C3  UNL     1      26.301   6.879  48.300  1.00  0.00     0.098 C 
HETATM    5  C4  UNL     1      24.901   6.851  48.003  1.00  0.00    -0.108 C 
HETATM    6  S1  UNL     1      23.657   6.825  47.754  1.00  0.00    -0.064 SA
HETATM    7  C5  UNL     1      22.148   6.781  47.475  1.00  0.00     0.054 C 
HETATM    8  C6  UNL     1      21.534   5.613  47.785  1.00  0.00    -0.015 C 
HETATM    9  C7  UNL     1      22.481   4.543  48.343  1.00  0.00     0.054 C 
HETATM   10  C8  UNL     1      22.190   3.292  47.742  1.00  0.00    -0.023 C 
HETATM   11  C9  UNL     1      21.838   2.081  47.940  1.00  0.00    -0.001 C 
HETATM   12  C10 UNL     1      21.446   0.866  48.626  1.00  0.00     0.042 C 
HETATM   13  C11 UNL     1      21.351   0.769  50.002  1.00  0.00     0.114 C 
HETATM   14  F1  UNL     1      21.096   0.160  51.203  1.00  0.00    -0.206 F 
HETATM   15  C12 UNL     1      22.224   1.639  50.774  1.00  0.00     0.084 C 
HETATM   16  C13 UNL     1      23.126   2.534  51.285  1.00  0.00     0.150 C 
HETATM   17  S2  UNL     1      24.274   3.674  52.034  1.00  0.00     0.349 S 
HETATM   18  O2  UNL     1      24.951   2.963  53.180  1.00  0.00    -0.196 OA
HETATM   19  O3  UNL     1      23.462   4.764  52.701  1.00  0.00    -0.196 OA
HETATM   20  N1  UNL     1      25.350   4.244  50.840  1.00  0.00     0.191 N 
HETATM   21  H14 UNL     1      26.042   3.469  50.680  1.00  0.00     0.344 HD
ENDROOT
TORSDOF 0
ENDMDL
MODEL 7
REMARK VINA RESULT:      -6.4      7.583      9.740
REMARK  0 active torsions:
REMARK  status: ('A' for Active; 'I' for Inactive)
ROOT
HETATM    1  O1  UNL     1      32.437   7.416  47.807  1.00  0.00    -0.135 OA
HETATM    2  C1  UNL     1      32.520   7.831  46.653  1.00  0.00     0.371 A 
HETATM    3  C2  UNL     1      32.734   8.554  45.334  1.00  0.00     0.094 C 
HETATM    4  C3  UNL     1      33.224   9.974  45.792  1.00  0.00     0.098 C 
HETATM    5  C4  UNL     1      32.350  10.409  46.840  1.00  0.00    -0.108 C 
HETATM    6  S1  UNL     1      31.578  10.782  47.775  1.00  0.00    -0.064 SA
HETATM    7  C5  UNL     1      30.644  11.210  48.916  1.00  0.00     0.054 C 
HETATM    8  C6  UNL     1      29.605  10.376  49.158  1.00  0.00    -0.015 C 
HETATM    9  C7  UNL     1      29.551   9.161  48.223  1.00  0.00     0.054 C 
HETATM   10  C8  UNL     1      28.218   8.955  47.788  1.00  0.00    -0.023 C 
HETATM   11  C9  UNL     1      27.232   8.144  47.748  1.00  0.00    -0.001 C 
HETATM   12  C10 UNL     1      26.438   6.948  47.944  1.00  0.00     0.042 C 
HETATM   13  C11 UNL     1      26.921   5.809  48.560  1.00  0.00     0.114 C 
HETATM   14  F1  UNL     1      26.869   4.534  49.061  1.00  0.00    -0.206 F 
HETATM   15  C12 UNL     1      28.350   5.567  48.444  1.00  0.00     0.084 C 
HETATM   16  C13 UNL     1      29.699   5.544  48.204  1.00  0.00     0.150 C 
HETATM   17  S2  UNL     1      31.459   5.436  47.942  1.00  0.00     0.349 S 
HETATM   18  O2  UNL     1      31.789   4.003  47.600  1.00  0.00    -0.196 OA
HETATM   19  O3  UNL     1      32.134   5.664  49.277  1.00  0.00    -0.196 OA
HETATM   20  N1  UNL     1      31.910   6.556  46.736  1.00  0.00     0.191 N 
HETATM   21  H14 UNL     1      31.628   6.126  45.820  1.00  0.00     0.344 HD
ENDROOT
TORSDOF 0
ENDMDL
MODEL 8
REMARK VINA RESULT:      -6.3      7.725      9.809
REMARK  0 active torsions:
REMARK  status: ('A' for Active; 'I' for Inactive)
ROOT
HETATM    1  O1  UNL     1      26.289   9.859  47.937  1.00  0.00    -0.135 OA
HETATM    2  C1  UNL     1      26.025   9.583  46.768  1.00  0.00     0.371 A 
HETATM    3  C2  UNL     1      25.460   9.179  45.417  1.00  0.00     0.094 C 
HETATM    4  C3  UNL     1      24.071   8.551  45.794  1.00  0.00     0.098 C 
HETATM    5  C4  UNL     1      24.288   7.664  46.897  1.00  0.00    -0.108 C 
HETATM    6  S1  UNL     1      24.487   6.889  47.881  1.00  0.00    -0.064 SA
HETATM    7  C5  UNL     1      24.744   5.967  49.082  1.00  0.00     0.054 C 
HETATM    8  C6  UNL     1      26.045   5.820  49.431  1.00  0.00    -0.015 C 
HETATM    9  C7  UNL     1      27.021   6.596  48.538  1.00  0.00     0.054 C 
HETATM   10  C8  UNL     1      28.130   5.772  48.218  1.00  0.00    -0.023 C 
HETATM   11  C9  UNL     1      29.397   5.635  48.282  1.00  0.00    -0.001 C 
HETATM   12  C10 UNL     1      30.789   5.913  48.575  1.00  0.00     0.042 C 
HETATM   13  C11 UNL     1      31.219   7.079  49.181  1.00  0.00     0.114 C 
HETATM   14  F1  UNL     1      32.126   7.953  49.721  1.00  0.00    -0.206 F 
HETATM   15  C12 UNL     1      30.405   8.263  48.956  1.00  0.00     0.084 C 
HETATM   16  C13 UNL     1      29.501   9.232  48.608  1.00  0.00     0.150 C 
HETATM   17  S2  UNL     1      28.373  10.552  48.206  1.00  0.00     0.349 S 
HETATM   18  O2  UNL     1      29.192  11.777  47.879  1.00  0.00    -0.196 OA
HETATM   19  O3  UNL     1      27.637  10.925  49.475  1.00  0.00    -0.196 OA
HETATM   20  N1  UNL     1      27.352  10.044  46.937  1.00  0.00     0.191 N 
HETATM   21  H14 UNL     1      27.926  10.107  46.059  1.00  0.00     0.344 HD
ENDROOT
TORSDOF 0
ENDMDL
MODEL 9
REMARK VINA RESULT:      -6.2      4.562      5.861
REMARK  0 active torsions:
REMARK  status: ('A' for Active; 'I' for Inactive)
ROOT
HETATM    1  O1  UNL     1      23.252   5.570  47.562  1.00  0.00    -0.135 OA
HETATM    2  C1  UNL     1      23.251   6.564  48.286  1.00  0.00     0.371 A 
HETATM    3  C2  UNL     1      23.475   7.852  49.059  1.00  0.00     0.094 C 
HETATM    4  C3  UNL     1      24.920   8.277  48.616  1.00  0.00     0.098 C 
HETATM    5  C4  UNL     1      25.750   7.113  48.693  1.00  0.00    -0.108 C 
HETATM    6  S1  UNL     1      26.477   6.075  48.753  1.00  0.00    -0.064 SA
HETATM    7  C5  UNL     1      27.336   4.805  48.816  1.00  0.00     0.054 C 
HETATM    8  C6  UNL     1      26.720   3.713  49.331  1.00  0.00    -0.015 C 
HETATM    9  C7  UNL     1      25.273   3.965  49.772  1.00  0.00     0.054 C 
HETATM   10  C8  UNL     1      25.048   3.356  51.032  1.00  0.00    -0.023 C 
HETATM   11  C9  UNL     1      24.356   2.504  51.686  1.00  0.00    -0.001 C 
HETATM   12  C10 UNL     1      23.365   1.492  51.987  1.00  0.00     0.042 C 
HETATM   13  C11 UNL     1      22.458   1.017  51.058  1.00  0.00     0.114 C 
HETATM   14  F1  UNL     1      21.431   0.240  50.588  1.00  0.00    -0.206 F 
HETATM   15  C12 UNL     1      22.071   1.939  50.001  1.00  0.00     0.084 C 
HETATM   16  C13 UNL     1      21.856   2.964  49.118  1.00  0.00     0.150 C 
HETATM   17  S2  UNL     1      21.519   4.243  47.922  1.00  0.00     0.349 S 
HETATM   18  O2  UNL     1      20.032   4.255  47.665  1.00  0.00    -0.196 OA
HETATM   19  O3  UNL     1      22.120   3.803  46.604  1.00  0.00    -0.196 OA
HETATM   20  N1  UNL     1      22.133   5.724  48.504  1.00  0.00     0.191 N 
HETATM   21  H14 UNL     1      21.449   6.057  49.229  1.00  0.00     0.344 HD
ENDROOT
TORSDOF 0
ENDMDL
