MODEL 1
REMARK VINA RESULT:      -7.9      0.000      0.000
REMARK  5 active torsions:
REMARK  status: ('A' for Active; 'I' for Inactive)
REMARK    1  A    between atoms: C2_2  and  C3_3 
REMARK       I    between atoms: C3_3  and  N1_5 
REMARK    2  A    between atoms: N1_5  and  N2_6 
REMARK    3  A    between atoms: N2_6  and  C4_7 
REMARK    4  A    between atoms: C4_7  and  C5_8 
REMARK    5  A    between atoms: N3_10  and  C7_11 
ROOT
HETATM    1  C5  UNL     1      26.121   3.216  50.004  1.00  0.00    -0.027 C 
HETATM    2  C6  UNL     1      26.719   2.694  51.063  1.00  0.00     0.101 C 
HETATM    3  N3  UNL     1      25.965   1.994  52.047  1.00  0.00    -0.341 N 
HETATM    4  C14 UNL     1      24.554   1.940  51.750  1.00  0.00     0.105 C 
HETATM    5  C15 UNL     1      23.974   2.731  50.895  1.00  0.00    -0.008 C 
HETATM    6  C16 UNL     1      24.663   3.082  49.830  1.00  0.00     0.023 C 
ENDROOT
BRANCH   3   7
HETATM    7  C7  UNL     1      26.535   1.375  53.263  1.00  0.00     0.225 A 
HETATM    8  N4  UNL     1      27.341   2.395  53.869  1.00  0.00    -0.256 NA
HETATM    9  C8  UNL     1      28.578   2.218  54.121  1.00  0.00     0.229 A 
HETATM   10  N5  UNL     1      29.336   1.019  53.852  1.00  0.00    -0.246 NA
HETATM   11  C9  UNL     1      28.653   0.065  53.304  1.00  0.00     0.047 A 
HETATM   12  C10 UNL     1      29.352  -1.195  52.997  1.00  0.00     0.051 C 
HETATM   13  C13 UNL     1      27.235   0.097  52.944  1.00  0.00     0.107 A 
HETATM   14  C11 UNL     1      28.595  -2.309  53.021  1.00  0.00     0.136 C 
HETATM   15  O2  UNL     1      27.218  -2.296  53.319  1.00  0.00    -0.362 OA
HETATM   16  C12 UNL     1      26.483  -1.100  53.500  1.00  0.00     0.189 C 
ENDBRANCH   3   7
BRANCH   1  17
HETATM   17  C4  UNL     1      26.868   3.939  48.979  1.00  0.00     0.150 C 
BRANCH  17  18
HETATM   18  N2  UNL     1      27.976   4.720  49.455  1.00  0.00    -0.234 NA
HETATM   19  H7  UNL     1      28.006   4.679  50.484  1.00  0.00     0.146 HD
BRANCH  18  20
HETATM   20  N1  UNL     1      28.100   5.976  48.899  1.00  0.00    -0.291 N 
HETATM   21  C3  UNL     1      29.312   6.054  48.156  1.00  0.00     0.231 C 
HETATM   22  O1  UNL     1      30.016   5.017  48.140  1.00  0.00    -0.272 OA
HETATM   23  H6  UNL     1      27.508   6.855  48.909  1.00  0.00     0.183 HD
BRANCH  21  24
HETATM   24  C2  UNL     1      29.794   7.266  47.404  1.00  0.00     0.100 C 
HETATM   25  C1  UNL     1      28.604   7.781  46.631  1.00  0.00     0.014 C 
ENDBRANCH  21  24
ENDBRANCH  18  20
ENDBRANCH  17  18
ENDBRANCH   1  17
TORSDOF 5
ENDMDL
MODEL 2
REMARK VINA RESULT:      -7.9      3.781      7.251
REMARK  5 active torsions:
REMARK  status: ('A' for Active; 'I' for Inactive)
REMARK    1  A    between atoms: C2_2  and  C3_3 
REMARK       I    between atoms: C3_3  and  N1_5 
REMARK    2  A    between atoms: N1_5  and  N2_6 
REMARK    3  A    between atoms: N2_6  and  C4_7 
REMARK    4  A    between atoms: C4_7  and  C5_8 
REMARK    5  A    between atoms: N3_10  and  C7_11 
ROOT
HETATM    1  C5  UNL     1      23.816  -0.517  53.959  1.00  0.00    -0.027 C 
HETATM    2  C6  UNL     1      23.548   0.409  53.052  1.00  0.00     0.101 C 
HETATM    3  N3  UNL     1      22.232   0.932  52.920  1.00  0.00    -0.341 N 
HETATM    4  C14 UNL     1      21.292   0.351  53.850  1.00  0.00     0.105 C 
HETATM    5  C15 UNL     1      21.513  -0.765  54.482  1.00  0.00    -0.008 C 
HETATM    6  C16 UNL     1      22.751  -1.021  54.847  1.00  0.00     0.023 C 
ENDROOT
BRANCH   3   7
HETATM    7  C7  UNL     1      21.828   1.965  51.941  1.00  0.00     0.225 A 
HETATM    8  N4  UNL     1      21.186   1.250  50.876  1.00  0.00    -0.256 NA
HETATM    9  C8  UNL     1      21.579   1.343  49.667  1.00  0.00     0.229 A 
HETATM   10  N5  UNL     1      22.682   2.144  49.192  1.00  0.00    -0.246 NA
HETATM   11  C9  UNL     1      23.298   2.810  50.116  1.00  0.00     0.047 A 
HETATM   12  C10 UNL     1      24.437   3.655  49.715  1.00  0.00     0.051 C 
HETATM   13  C13 UNL     1      22.986   2.819  51.546  1.00  0.00     0.107 A 
HETATM   14  C11 UNL     1      24.660   4.743  50.478  1.00  0.00     0.136 C 
HETATM   15  O2  UNL     1      23.867   5.075  51.593  1.00  0.00    -0.362 OA
HETATM   16  C12 UNL     1      22.842   4.232  52.085  1.00  0.00     0.189 C 
ENDBRANCH   3   7
BRANCH   1  17
HETATM   17  C4  UNL     1      25.156  -1.072  54.118  1.00  0.00     0.150 C 
BRANCH  17  18
HETATM   18  N2  UNL     1      26.028  -0.346  54.999  1.00  0.00    -0.234 NA
HETATM   19  H7  UNL     1      25.708   0.631  55.067  1.00  0.00     0.146 HD
BRANCH  18  20
HETATM   20  N1  UNL     1      27.377  -0.522  54.777  1.00  0.00    -0.291 N 
HETATM   21  C3  UNL     1      27.960   0.711  54.367  1.00  0.00     0.231 C 
HETATM   22  O1  UNL     1      27.180   1.690  54.286  1.00  0.00    -0.272 OA
HETATM   23  H6  UNL     1      28.041  -1.345  54.843  1.00  0.00     0.183 HD
BRANCH  21  24
HETATM   24  C2  UNL     1      29.415   0.918  54.034  1.00  0.00     0.100 C 
HETATM   25  C1  UNL     1      29.934  -0.424  53.575  1.00  0.00     0.014 C 
ENDBRANCH  21  24
ENDBRANCH  18  20
ENDBRANCH  17  18
ENDBRANCH   1  17
TORSDOF 5
ENDMDL
MODEL 3
REMARK VINA RESULT:      -7.5      2.905      3.803
REMARK  5 active torsions:
REMARK  status: ('A' for Active; 'I' for Inactive)
REMARK    1  A    between atoms: C2_2  and  C3_3 
REMARK       I    between atoms: C3_3  and  N1_5 
REMARK    2  A    between atoms: N1_5  and  N2_6 
REMARK    3  A    between atoms: N2_6  and  C4_7 
REMARK    4  A    between atoms: C4_7  and  C5_8 
REMARK    5  A    between atoms: N3_10  and  C7_11 
ROOT
HETATM    1  C5  UNL     1      23.188   3.325  52.589  1.00  0.00    -0.027 C 
HETATM    2  C6  UNL     1      23.991   2.323  52.908  1.00  0.00     0.101 C 
HETATM    3  N3  UNL     1      23.538   0.978  52.820  1.00  0.00    -0.341 N 
HETATM    4  C14 UNL     1      22.172   0.865  52.367  1.00  0.00     0.105 C 
HETATM    5  C15 UNL     1      21.332   1.858  52.384  1.00  0.00    -0.008 C 
HETATM    6  C16 UNL     1      21.808   3.060  52.139  1.00  0.00     0.023 C 
ENDROOT
BRANCH   3   7
HETATM    7  C7  UNL     1      24.354  -0.211  53.152  1.00  0.00     0.225 A 
HETATM    8  N4  UNL     1      23.680  -0.841  54.251  1.00  0.00    -0.256 NA
HETATM    9  C8  UNL     1      24.265  -1.072  55.359  1.00  0.00     0.229 A 
HETATM   10  N5  UNL     1      25.638  -0.754  55.678  1.00  0.00    -0.246 NA
HETATM   11  C9  UNL     1      26.292  -0.182  54.718  1.00  0.00     0.047 A 
HETATM   12  C10 UNL     1      27.700   0.175  54.961  1.00  0.00     0.051 C 
HETATM   13  C13 UNL     1      25.780   0.160  53.390  1.00  0.00     0.107 A 
HETATM   14  C11 UNL     1      28.501   0.180  53.878  1.00  0.00     0.136 C 
HETATM   15  O2  UNL     1      28.045  -0.134  52.583  1.00  0.00    -0.362 OA
HETATM   16  C12 UNL     1      26.680  -0.364  52.285  1.00  0.00     0.189 C 
ENDBRANCH   3   7
BRANCH   1  17
HETATM   17  C4  UNL     1      23.624   4.716  52.669  1.00  0.00     0.150 C 
BRANCH  17  18
HETATM   18  N2  UNL     1      23.608   5.443  51.430  1.00  0.00    -0.234 NA
HETATM   19  H7  UNL     1      23.078   4.908  50.727  1.00  0.00     0.146 HD
BRANCH  18  20
HETATM   20  N1  UNL     1      24.826   5.938  51.016  1.00  0.00    -0.291 N 
HETATM   21  C3  UNL     1      25.160   5.388  49.746  1.00  0.00     0.231 C 
HETATM   22  O1  UNL     1      24.326   4.591  49.254  1.00  0.00    -0.272 OA
HETATM   23  H6  UNL     1      25.535   6.611  51.427  1.00  0.00     0.183 HD
BRANCH  21  24
HETATM   24  C2  UNL     1      26.414   5.691  48.969  1.00  0.00     0.100 C 
HETATM   25  C1  UNL     1      27.222   4.416  48.963  1.00  0.00     0.014 C 
ENDBRANCH  21  24
ENDBRANCH  18  20
ENDBRANCH  17  18
ENDBRANCH   1  17
TORSDOF 5
ENDMDL
MODEL 4
REMARK VINA RESULT:      -7.5      4.050      7.392
REMARK  5 active torsions:
REMARK  status: ('A' for Active; 'I' for Inactive)
REMARK    1  A    between atoms: C2_2  and  C3_3 
REMARK       I    between atoms: C3_3  and  N1_5 
REMARK    2  A    between atoms: N1_5  and  N2_6 
REMARK    3  A    between atoms: N2_6  and  C4_7 
REMARK    4  A    between atoms: C4_7  and  C5_8 
REMARK    5  A    between atoms: N3_10  and  C7_11 
ROOT
HETATM    1  C5  UNL     1      24.012  -0.235  53.747  1.00  0.00    -0.027 C 
HETATM    2  C6  UNL     1      24.377   0.889  53.153  1.00  0.00     0.101 C 
HETATM    3  N3  UNL     1      23.476   1.580  52.296  1.00  0.00    -0.341 N 
HETATM    4  C14 UNL     1      22.195   0.926  52.172  1.00  0.00     0.105 C 
HETATM    5  C15 UNL     1      21.995  -0.318  52.497  1.00  0.00    -0.008 C 
HETATM    6  C16 UNL     1      22.663  -0.790  53.528  1.00  0.00     0.023 C 
ENDROOT
BRANCH   3   7
HETATM    7  C7  UNL     1      23.785   2.840  51.585  1.00  0.00     0.225 A 
HETATM    8  N4  UNL     1      23.841   3.849  52.604  1.00  0.00    -0.256 NA
HETATM    9  C8  UNL     1      23.111   4.893  52.561  1.00  0.00     0.229 A 
HETATM   10  N5  UNL     1      22.154   5.218  51.530  1.00  0.00    -0.246 NA
HETATM   11  C9  UNL     1      22.065   4.338  50.585  1.00  0.00     0.047 A 
HETATM   12  C10 UNL     1      21.110   4.594  49.491  1.00  0.00     0.051 C 
HETATM   13  C13 UNL     1      22.818   3.088  50.476  1.00  0.00     0.107 A 
HETATM   14  C11 UNL     1      21.432   4.068  48.293  1.00  0.00     0.136 C 
HETATM   15  O2  UNL     1      22.603   3.316  48.074  1.00  0.00    -0.362 OA
HETATM   16  C12 UNL     1      23.483   2.944  49.118  1.00  0.00     0.189 C 
ENDBRANCH   3   7
BRANCH   1  17
HETATM   17  C4  UNL     1      24.915  -0.965  54.632  1.00  0.00     0.150 C 
BRANCH  17  18
HETATM   18  N2  UNL     1      26.148  -0.298  54.947  1.00  0.00    -0.234 NA
HETATM   19  H7  UNL     1      25.998   0.721  54.932  1.00  0.00     0.146 HD
BRANCH  18  20
HETATM   20  N1  UNL     1      27.259  -0.753  54.269  1.00  0.00    -0.291 N 
HETATM   21  C3  UNL     1      28.267   0.253  54.273  1.00  0.00     0.231 C 
HETATM   22  O1  UNL     1      27.979   1.320  54.865  1.00  0.00    -0.272 OA
HETATM   23  H6  UNL     1      27.508  -1.652  53.767  1.00  0.00     0.183 HD
BRANCH  21  24
HETATM   24  C2  UNL     1      29.625   0.125  53.633  1.00  0.00     0.100 C 
HETATM   25  C1  UNL     1      29.951  -1.349  53.632  1.00  0.00     0.014 C 
ENDBRANCH  21  24
ENDBRANCH  18  20
ENDBRANCH  17  18
ENDBRANCH   1  17
TORSDOF 5
ENDMDL
MODEL 5
REMARK VINA RESULT:      -7.4      2.430      8.089
REMARK  5 active torsions:
REMARK  status: ('A' for Active; 'I' for Inactive)
REMARK    1  A    between atoms: C2_2  and  C3_3 
REMARK       I    between atoms: C3_3  and  N1_5 
REMARK    2  A    between atoms: N1_5  and  N2_6 
REMARK    3  A    between atoms: N2_6  and  C4_7 
REMARK    4  A    between atoms: C4_7  and  C5_8 
REMARK    5  A    between atoms: N3_10  and  C7_11 
ROOT
HETATM    1  C5  UNL     1      26.574   4.395  49.365  1.00  0.00    -0.027 C 
HETATM    2  C6  UNL     1      27.761   4.785  48.930  1.00  0.00     0.101 C 
HETATM    3  N3  UNL     1      27.922   6.055  48.310  1.00  0.00    -0.341 N 
HETATM    4  C14 UNL     1      26.692   6.807  48.226  1.00  0.00     0.105 C 
HETATM    5  C15 UNL     1      25.516   6.267  48.358  1.00  0.00    -0.008 C 
HETATM    6  C16 UNL     1      25.398   5.272  49.211  1.00  0.00     0.023 C 
ENDROOT
BRANCH   3   7
HETATM    7  C7  UNL     1      29.201   6.585  47.791  1.00  0.00     0.225 A 
HETATM    8  N4  UNL     1      30.200   5.640  48.201  1.00  0.00    -0.256 NA
HETATM    9  C8  UNL     1      31.213   5.986  48.892  1.00  0.00     0.229 A 
HETATM   10  N5  UNL     1      31.511   7.322  49.355  1.00  0.00    -0.246 NA
HETATM   11  C9  UNL     1      30.638   8.214  49.011  1.00  0.00     0.047 A 
HETATM   12  C10 UNL     1      30.867   9.604  49.442  1.00  0.00     0.051 C 
HETATM   13  C13 UNL     1      29.421   7.995  48.227  1.00  0.00     0.107 A 
HETATM   14  C11 UNL     1      30.368  10.561  48.635  1.00  0.00     0.136 C 
HETATM   15  O2  UNL     1      29.668  10.275  47.447  1.00  0.00    -0.362 OA
HETATM   16  C12 UNL     1      29.321   8.959  47.058  1.00  0.00     0.189 C 
ENDBRANCH   3   7
BRANCH   1  17
HETATM   17  C4  UNL     1      26.379   3.097  50.005  1.00  0.00     0.150 C 
BRANCH  17  18
HETATM   18  N2  UNL     1      26.945   2.962  51.318  1.00  0.00    -0.234 NA
HETATM   19  H7  UNL     1      27.884   3.387  51.330  1.00  0.00     0.146 HD
BRANCH  18  20
HETATM   20  N1  UNL     1      26.845   1.708  51.882  1.00  0.00    -0.291 N 
HETATM   21  C3  UNL     1      27.881   1.530  52.842  1.00  0.00     0.231 C 
HETATM   22  O1  UNL     1      28.662   2.499  52.997  1.00  0.00    -0.272 OA
HETATM   23  H6  UNL     1      26.188   0.886  51.755  1.00  0.00     0.183 HD
BRANCH  21  24
HETATM   24  C2  UNL     1      28.099   0.289  53.667  1.00  0.00     0.100 C 
HETATM   25  C1  UNL     1      29.590   0.051  53.681  1.00  0.00     0.014 C 
ENDBRANCH  21  24
ENDBRANCH  18  20
ENDBRANCH  17  18
ENDBRANCH   1  17
TORSDOF 5
ENDMDL
MODEL 6
REMARK VINA RESULT:      -7.3      2.932      4.582
REMARK  5 active torsions:
REMARK  status: ('A' for Active; 'I' for Inactive)
REMARK    1  A    between atoms: C2_2  and  C3_3 
REMARK       I    between atoms: C3_3  and  N1_5 
REMARK    2  A    between atoms: N1_5  and  N2_6 
REMARK    3  A    between atoms: N2_6  and  C4_7 
REMARK    4  A    between atoms: C4_7  and  C5_8 
REMARK    5  A    between atoms: N3_10  and  C7_11 
ROOT
HETATM    1  C5  UNL     1      27.641   5.897  48.424  1.00  0.00    -0.027 C 
HETATM    2  C6  UNL     1      27.242   4.725  48.892  1.00  0.00     0.101 C 
HETATM    3  N3  UNL     1      25.863   4.477  49.138  1.00  0.00    -0.341 N 
HETATM    4  C14 UNL     1      25.018   5.605  48.830  1.00  0.00     0.105 C 
HETATM    5  C15 UNL     1      25.469   6.818  48.694  1.00  0.00    -0.008 C 
HETATM    6  C16 UNL     1      26.659   6.964  48.153  1.00  0.00     0.023 C 
ENDROOT
BRANCH   3   7
HETATM    7  C7  UNL     1      25.315   3.205  49.659  1.00  0.00     0.225 A 
HETATM    8  N4  UNL     1      23.922   3.223  49.318  1.00  0.00    -0.256 NA
HETATM    9  C8  UNL     1      23.009   3.095  50.198  1.00  0.00     0.229 A 
HETATM   10  N5  UNL     1      23.215   2.921  51.616  1.00  0.00    -0.246 NA
HETATM   11  C9  UNL     1      24.458   2.899  51.978  1.00  0.00     0.047 A 
HETATM   12  C10 UNL     1      24.757   2.723  53.410  1.00  0.00     0.051 C 
HETATM   13  C13 UNL     1      25.628   3.033  51.108  1.00  0.00     0.107 A 
HETATM   14  C11 UNL     1      25.923   2.112  53.698  1.00  0.00     0.136 C 
HETATM   15  O2  UNL     1      26.817   1.659  52.709  1.00  0.00    -0.362 OA
HETATM   16  C12 UNL     1      26.629   1.913  51.329  1.00  0.00     0.189 C 
ENDBRANCH   3   7
BRANCH   1  17
HETATM   17  C4  UNL     1      29.049   6.181  48.162  1.00  0.00     0.150 C 
BRANCH  17  18
HETATM   18  N2  UNL     1      29.978   5.644  49.117  1.00  0.00    -0.234 NA
HETATM   19  H7  UNL     1      29.474   5.398  49.982  1.00  0.00     0.146 HD
BRANCH  18  20
HETATM   20  N1  UNL     1      31.141   6.365  49.283  1.00  0.00    -0.291 N 
HETATM   21  C3  UNL     1      32.253   5.586  48.853  1.00  0.00     0.231 C 
HETATM   22  O1  UNL     1      31.988   4.439  48.421  1.00  0.00    -0.272 OA
HETATM   23  H6  UNL     1      31.371   7.333  49.647  1.00  0.00     0.183 HD
BRANCH  21  24
HETATM   24  C2  UNL     1      33.691   6.033  48.880  1.00  0.00     0.100 C 
HETATM   25  C1  UNL     1      34.412   5.188  47.858  1.00  0.00     0.014 C 
ENDBRANCH  21  24
ENDBRANCH  18  20
ENDBRANCH  17  18
ENDBRANCH   1  17
TORSDOF 5
ENDMDL
MODEL 7
REMARK VINA RESULT:      -7.3      4.215      7.308
REMARK  5 active torsions:
REMARK  status: ('A' for Active; 'I' for Inactive)
REMARK    1  A    between atoms: C2_2  and  C3_3 
REMARK       I    between atoms: C3_3  and  N1_5 
REMARK    2  A    between atoms: N1_5  and  N2_6 
REMARK    3  A    between atoms: N2_6  and  C4_7 
REMARK    4  A    between atoms: C4_7  and  C5_8 
REMARK    5  A    between atoms: N3_10  and  C7_11 
ROOT
HETATM    1  C5  UNL     1      22.541   1.059  52.855  1.00  0.00    -0.027 C 
HETATM    2  C6  UNL     1      23.766   1.060  52.354  1.00  0.00     0.101 C 
HETATM    3  N3  UNL     1      24.719   0.092  52.776  1.00  0.00    -0.341 N 
HETATM    4  C14 UNL     1      24.199  -0.828  53.759  1.00  0.00     0.105 C 
HETATM    5  C15 UNL     1      23.124  -0.597  54.454  1.00  0.00    -0.008 C 
HETATM    6  C16 UNL     1      22.146   0.053  53.859  1.00  0.00     0.023 C 
ENDROOT
BRANCH   3   7
HETATM    7  C7  UNL     1      26.111   0.006  52.281  1.00  0.00     0.225 A 
HETATM    8  N4  UNL     1      26.389  -1.397  52.166  1.00  0.00    -0.256 NA
HETATM    9  C8  UNL     1      27.373  -1.942  52.764  1.00  0.00     0.229 A 
HETATM   10  N5  UNL     1      28.327  -1.271  53.616  1.00  0.00    -0.246 NA
HETATM   11  C9  UNL     1      28.120  -0.001  53.754  1.00  0.00     0.047 A 
HETATM   12  C10 UNL     1      29.049   0.760  54.608  1.00  0.00     0.051 C 
HETATM   13  C13 UNL     1      27.043   0.784  53.148  1.00  0.00     0.107 A 
HETATM   14  C11 UNL     1      29.220   2.057  54.283  1.00  0.00     0.136 C 
HETATM   15  O2  UNL     1      28.563   2.669  53.198  1.00  0.00    -0.362 OA
HETATM   16  C12 UNL     1      27.574   2.011  52.428  1.00  0.00     0.189 C 
ENDBRANCH   3   7
BRANCH   1  17
HETATM   17  C4  UNL     1      21.542   2.041  52.441  1.00  0.00     0.150 C 
BRANCH  17  18
HETATM   18  N2  UNL     1      20.177   1.688  52.716  1.00  0.00    -0.234 NA
HETATM   19  H7  UNL     1      20.154   0.848  53.311  1.00  0.00     0.146 HD
BRANCH  18  20
HETATM   20  N1  UNL     1      19.336   1.673  51.623  1.00  0.00    -0.291 N 
HETATM   21  C3  UNL     1      18.672   0.416  51.547  1.00  0.00     0.231 C 
HETATM   22  O1  UNL     1      18.956  -0.413  52.443  1.00  0.00    -0.272 OA
HETATM   23  H6  UNL     1      19.093   2.370  50.862  1.00  0.00     0.183 HD
BRANCH  21  24
HETATM   24  C2  UNL     1      17.675   0.023  50.489  1.00  0.00     0.100 C 
HETATM   25  C1  UNL     1      16.527  -0.634  51.218  1.00  0.00     0.014 C 
ENDBRANCH  21  24
ENDBRANCH  18  20
ENDBRANCH  17  18
ENDBRANCH   1  17
TORSDOF 5
ENDMDL
MODEL 8
REMARK VINA RESULT:      -7.2      3.328      6.643
REMARK  5 active torsions:
REMARK  status: ('A' for Active; 'I' for Inactive)
REMARK    1  A    between atoms: C2_2  and  C3_3 
REMARK       I    between atoms: C3_3  and  N1_5 
REMARK    2  A    between atoms: N1_5  and  N2_6 
REMARK    3  A    between atoms: N2_6  and  C4_7 
REMARK    4  A    between atoms: C4_7  and  C5_8 
REMARK    5  A    between atoms: N3_10  and  C7_11 
ROOT
HETATM    1  C5  UNL     1      25.601   3.343  50.318  1.00  0.00    -0.027 C 
HETATM    2  C6  UNL     1      24.384   2.871  50.532  1.00  0.00     0.101 C 
HETATM    3  N3  UNL     1      23.256   3.465  49.899  1.00  0.00    -0.341 N 
HETATM    4  C14 UNL     1      23.602   4.580  49.050  1.00  0.00     0.105 C 
HETATM    5  C15 UNL     1      24.740   5.207  49.124  1.00  0.00    -0.008 C 
HETATM    6  C16 UNL     1      25.806   4.495  49.419  1.00  0.00     0.023 C 
ENDROOT
BRANCH   3   7
HETATM    7  C7  UNL     1      21.858   3.016  50.072  1.00  0.00     0.225 A 
HETATM    8  N4  UNL     1      21.094   4.214  50.272  1.00  0.00    -0.256 NA
HETATM    9  C8  UNL     1      20.365   4.386  51.303  1.00  0.00     0.229 A 
HETATM   10  N5  UNL     1      20.194   3.449  52.388  1.00  0.00    -0.246 NA
HETATM   11  C9  UNL     1      20.863   2.348  52.256  1.00  0.00     0.047 A 
HETATM   12  C10 UNL     1      20.744   1.336  53.321  1.00  0.00     0.051 C 
HETATM   13  C13 UNL     1      21.747   1.987  51.147  1.00  0.00     0.107 A 
HETATM   14  C11 UNL     1      20.902   0.055  52.935  1.00  0.00     0.136 C 
HETATM   15  O2  UNL     1      21.166  -0.319  51.603  1.00  0.00    -0.362 OA
HETATM   16  C12 UNL     1      21.408   0.622  50.575  1.00  0.00     0.189 C 
ENDBRANCH   3   7
BRANCH   1  17
HETATM   17  C4  UNL     1      26.776   2.755  50.953  1.00  0.00     0.150 C 
BRANCH  17  18
HETATM   18  N2  UNL     1      26.675   2.546  52.371  1.00  0.00    -0.234 NA
HETATM   19  H7  UNL     1      27.062   3.363  52.865  1.00  0.00     0.146 HD
BRANCH  18  20
HETATM   20  N1  UNL     1      27.100   1.314  52.821  1.00  0.00    -0.291 N 
HETATM   21  C3  UNL     1      28.069   1.488  53.849  1.00  0.00     0.231 C 
HETATM   22  O1  UNL     1      28.349   2.673  54.148  1.00  0.00    -0.272 OA
HETATM   23  H6  UNL     1      26.867   0.310  52.573  1.00  0.00     0.183 HD
BRANCH  21  24
HETATM   24  C2  UNL     1      28.764   0.373  54.587  1.00  0.00     0.100 C 
HETATM   25  C1  UNL     1      29.404  -0.494  53.530  1.00  0.00     0.014 C 
ENDBRANCH  21  24
ENDBRANCH  18  20
ENDBRANCH  17  18
ENDBRANCH   1  17
TORSDOF 5
ENDMDL
MODEL 9
REMARK VINA RESULT:      -7.2      5.162      8.495
REMARK  5 active torsions:
REMARK  status: ('A' for Active; 'I' for Inactive)
REMARK    1  A    between atoms: C2_2  and  C3_3 
REMARK       I    between atoms: C3_3  and  N1_5 
REMARK    2  A    between atoms: N1_5  and  N2_6 
REMARK    3  A    between atoms: N2_6  and  C4_7 
REMARK    4  A    between atoms: C4_7  and  C5_8 
REMARK    5  A    between atoms: N3_10  and  C7_11 
ROOT
HETATM    1  C5  UNL     1      23.110  -0.630  54.017  1.00  0.00    -0.027 C 
HETATM    2  C6  UNL     1      22.789   0.211  53.047  1.00  0.00     0.101 C 
HETATM    3  N3  UNL     1      21.425   0.447  52.719  1.00  0.00    -0.341 N 
HETATM    4  C14 UNL     1      20.504  -0.308  53.534  1.00  0.00     0.105 C 
HETATM    5  C15 UNL     1      20.857  -1.347  54.233  1.00  0.00    -0.008 C 
HETATM    6  C16 UNL     1      22.058  -1.336  54.772  1.00  0.00     0.023 C 
ENDROOT
BRANCH   3   7
HETATM    7  C7  UNL     1      20.959   1.364  51.655  1.00  0.00     0.225 A 
HETATM    8  N4  UNL     1      21.468   2.656  52.016  1.00  0.00    -0.256 NA
HETATM    9  C8  UNL     1      20.704   3.665  52.166  1.00  0.00     0.229 A 
HETATM   10  N5  UNL     1      19.269   3.675  52.006  1.00  0.00    -0.246 NA
HETATM   11  C9  UNL     1      18.758   2.530  51.680  1.00  0.00     0.047 A 
HETATM   12  C10 UNL     1      17.298   2.454  51.496  1.00  0.00     0.051 C 
HETATM   13  C13 UNL     1      19.481   1.275  51.471  1.00  0.00     0.107 A 
HETATM   14  C11 UNL     1      16.864   1.528  50.618  1.00  0.00     0.136 C 
HETATM   15  O2  UNL     1      17.731   0.676  49.908  1.00  0.00    -0.362 OA
HETATM   16  C12 UNL     1      19.126   0.632  50.142  1.00  0.00     0.189 C 
ENDBRANCH   3   7
BRANCH   1  17
HETATM   17  C4  UNL     1      24.501  -0.892  54.377  1.00  0.00     0.150 C 
BRANCH  17  18
HETATM   18  N2  UNL     1      25.470  -0.602  53.356  1.00  0.00    -0.234 NA
HETATM   19  H7  UNL     1      25.755  -1.479  52.897  1.00  0.00     0.146 HD
BRANCH  18  20
HETATM   20  N1  UNL     1      26.495   0.240  53.734  1.00  0.00    -0.291 N 
HETATM   21  C3  UNL     1      27.741  -0.437  53.608  1.00  0.00     0.231 C 
HETATM   22  O1  UNL     1      27.687  -1.620  53.197  1.00  0.00    -0.272 OA
HETATM   23  H6  UNL     1      26.546   1.240  54.081  1.00  0.00     0.183 HD
BRANCH  21  24
HETATM   24  C2  UNL     1      29.088   0.157  53.927  1.00  0.00     0.100 C 
HETATM   25  C1  UNL     1      30.094  -0.950  53.717  1.00  0.00     0.014 C 
ENDBRANCH  21  24
ENDBRANCH  18  20
ENDBRANCH  17  18
ENDBRANCH   1  17
TORSDOF 5
ENDMDL
