MODEL 1
REMARK VINA RESULT:      -8.8      0.000      0.000
REMARK  2 active torsions:
REMARK  status: ('A' for Active; 'I' for Inactive)
REMARK    1  A    between atoms: C6_7  and  N2_8 
REMARK    2  A    between atoms: N2_8  and  C7_9 
ROOT
HETATM    1  C1  UNL     1      21.225   1.741  48.231  1.00  0.00     0.036 C 
HETATM    2  C2  UNL     1      20.690   1.022  49.418  1.00  0.00    -0.020 C 
HETATM    3  C3  UNL     1      21.162   1.080  50.644  1.00  0.00    -0.011 C 
HETATM    4  C4  UNL     1      22.342   1.910  51.000  1.00  0.00     0.161 C 
HETATM    5  N1  UNL     1      23.314   1.185  51.774  1.00  0.00    -0.379 N 
HETATM    6  C5  UNL     1      23.209   0.325  52.876  1.00  0.00     0.129 A 
HETATM    7  C6  UNL     1      24.393   0.296  53.574  1.00  0.00     0.160 A 
HETATM    8  N3  UNL     1      24.390  -0.521  54.626  1.00  0.00    -0.222 NA
HETATM    9  C13 UNL     1      23.387  -1.279  55.047  1.00  0.00     0.238 A 
HETATM   10  N4  UNL     1      22.235  -1.238  54.356  1.00  0.00    -0.215 NA
HETATM   11  C14 UNL     1      22.114  -0.447  53.265  1.00  0.00     0.202 A 
HETATM   12  O1  UNL     1      20.867  -0.523  52.671  1.00  0.00    -0.290 OA
HETATM   13  C15 UNL     1      20.408   0.278  51.608  1.00  0.00     0.081 C 
HETATM   14  C16 UNL     1      19.071   0.277  51.500  1.00  0.00     0.007 C 
HETATM   15  C17 UNL     1      17.999   0.850  50.675  1.00  0.00     0.039 C 
HETATM   16  H7  UNL     1      24.307   1.300  51.467  1.00  0.00     0.160 HD
ENDROOT
BRANCH   7  17
HETATM   17  N2  UNL     1      25.549   1.065  53.303  1.00  0.00    -0.339 N 
HETATM   18  H8  UNL     1      25.674   2.050  52.991  1.00  0.00     0.167 HD
BRANCH  17  19
HETATM   19  C7  UNL     1      26.850   0.525  53.452  1.00  0.00     0.035 A 
HETATM   20  C8  UNL     1      27.928   1.296  53.853  1.00  0.00     0.032 A 
HETATM   21  C9  UNL     1      29.236   0.887  54.010  1.00  0.00     0.046 A 
HETATM   22  C10 UNL     1      29.494  -0.446  53.738  1.00  0.00     0.138 A 
HETATM   23  F1  UNL     1      30.768  -0.912  53.874  1.00  0.00    -0.204 F 
HETATM   24  C11 UNL     1      28.473  -1.305  53.327  1.00  0.00     0.074 A 
HETATM   25 CL1  UNL     1      28.903  -2.961  52.999  1.00  0.00    -0.081 Cl
HETATM   26  C12 UNL     1      27.207  -0.786  53.205  1.00  0.00     0.056 A 
ENDBRANCH  17  19
ENDBRANCH   7  17
TORSDOF 2
ENDMDL
MODEL 2
REMARK VINA RESULT:      -8.5      4.757      7.405
REMARK  2 active torsions:
REMARK  status: ('A' for Active; 'I' for Inactive)
REMARK    1  A    between atoms: C6_7  and  N2_8 
REMARK    2  A    between atoms: N2_8  and  C7_9 
ROOT
HETATM    1  C1  UNL     1      29.189   0.992  54.546  1.00  0.00     0.036 C 
HETATM    2  C2  UNL     1      28.002   0.230  54.074  1.00  0.00    -0.020 C 
HETATM    3  C3  UNL     1      27.055   0.674  53.276  1.00  0.00    -0.011 C 
HETATM    4  C4  UNL     1      27.065   2.056  52.729  1.00  0.00     0.161 C 
HETATM    5  N1  UNL     1      25.800   2.721  52.888  1.00  0.00    -0.379 N 
HETATM    6  C5  UNL     1      24.475   2.320  52.666  1.00  0.00     0.129 A 
HETATM    7  C6  UNL     1      23.672   3.417  52.458  1.00  0.00     0.160 A 
HETATM    8  N3  UNL     1      22.387   3.128  52.266  1.00  0.00    -0.222 NA
HETATM    9  C13 UNL     1      21.831   1.924  52.256  1.00  0.00     0.238 A 
HETATM   10  N4  UNL     1      22.628   0.862  52.459  1.00  0.00    -0.215 NA
HETATM   11  C14 UNL     1      23.955   1.026  52.668  1.00  0.00     0.202 A 
HETATM   12  O1  UNL     1      24.629  -0.167  52.860  1.00  0.00    -0.290 OA
HETATM   13  C15 UNL     1      26.025  -0.318  52.968  1.00  0.00     0.081 C 
HETATM   14  C16 UNL     1      26.426  -1.579  52.747  1.00  0.00     0.007 C 
HETATM   15  C17 UNL     1      27.652  -2.388  52.704  1.00  0.00     0.039 C 
HETATM   16  H7  UNL     1      25.852   3.702  53.248  1.00  0.00     0.160 HD
ENDROOT
BRANCH   7  17
HETATM   17  N2  UNL     1      24.092   4.767  52.389  1.00  0.00    -0.339 N 
HETATM   18  H8  UNL     1      24.361   5.452  53.123  1.00  0.00     0.167 HD
BRANCH  17  19
HETATM   19  C7  UNL     1      24.224   5.437  51.148  1.00  0.00     0.035 A 
HETATM   20  C8  UNL     1      25.040   4.962  50.135  1.00  0.00     0.032 A 
HETATM   21  C9  UNL     1      25.263   5.537  48.901  1.00  0.00     0.046 A 
HETATM   22  C10 UNL     1      24.592   6.721  48.651  1.00  0.00     0.138 A 
HETATM   23  F1  UNL     1      24.771   7.340  47.451  1.00  0.00    -0.204 F 
HETATM   24  C11 UNL     1      23.745   7.282  49.610  1.00  0.00     0.074 A 
HETATM   25 CL1  UNL     1      22.955   8.781  49.203  1.00  0.00    -0.081 Cl
HETATM   26  C12 UNL     1      23.600   6.620  50.805  1.00  0.00     0.056 A 
ENDBRANCH  17  19
ENDBRANCH   7  17
TORSDOF 2
ENDMDL
MODEL 3
REMARK VINA RESULT:      -8.4      9.003     10.599
REMARK  2 active torsions:
REMARK  status: ('A' for Active; 'I' for Inactive)
REMARK    1  A    between atoms: C6_7  and  N2_8 
REMARK    2  A    between atoms: N2_8  and  C7_9 
ROOT
HETATM    1  C1  UNL     1      25.837   4.284  49.625  1.00  0.00     0.036 C 
HETATM    2  C2  UNL     1      26.165   5.652  49.142  1.00  0.00    -0.020 C 
HETATM    3  C3  UNL     1      27.296   6.036  48.590  1.00  0.00    -0.011 C 
HETATM    4  C4  UNL     1      28.431   5.100  48.380  1.00  0.00     0.161 C 
HETATM    5  N1  UNL     1      29.682   5.637  48.843  1.00  0.00    -0.379 N 
HETATM    6  C5  UNL     1      30.296   6.890  48.702  1.00  0.00     0.129 A 
HETATM    7  C6  UNL     1      31.658   6.775  48.853  1.00  0.00     0.160 A 
HETATM    8  N3  UNL     1      32.319   7.927  48.761  1.00  0.00    -0.222 NA
HETATM    9  C13 UNL     1      31.804   9.129  48.543  1.00  0.00     0.238 A 
HETATM   10  N4  UNL     1      30.472   9.226  48.396  1.00  0.00    -0.215 NA
HETATM   11  C14 UNL     1      29.689   8.124  48.470  1.00  0.00     0.202 A 
HETATM   12  O1  UNL     1      28.344   8.398  48.297  1.00  0.00    -0.290 OA
HETATM   13  C15 UNL     1      27.314   7.444  48.194  1.00  0.00     0.081 C 
HETATM   14  C16 UNL     1      26.199   7.945  47.640  1.00  0.00     0.007 C 
HETATM   15  C17 UNL     1      24.840   7.538  47.260  1.00  0.00     0.039 C 
HETATM   16  H7  UNL     1      30.268   4.982  49.410  1.00  0.00     0.160 HD
ENDROOT
BRANCH   7  17
HETATM   17  N2  UNL     1      32.385   5.577  49.044  1.00  0.00    -0.339 N 
HETATM   18  H8  UNL     1      32.527   4.972  49.879  1.00  0.00     0.167 HD
BRANCH  17  19
HETATM   19  C7  UNL     1      33.098   4.966  47.983  1.00  0.00     0.035 A 
HETATM   20  C8  UNL     1      34.215   4.179  48.201  1.00  0.00     0.032 A 
HETATM   21  C9  UNL     1      34.997   3.555  47.251  1.00  0.00     0.046 A 
HETATM   22  C10 UNL     1      34.616   3.737  45.933  1.00  0.00     0.138 A 
HETATM   23  F1  UNL     1      35.349   3.148  44.947  1.00  0.00    -0.204 F 
HETATM   24  C11 UNL     1      33.501   4.515  45.610  1.00  0.00     0.074 A 
HETATM   25 CL1  UNL     1      33.111   4.693  43.921  1.00  0.00    -0.081 Cl
HETATM   26  C12 UNL     1      32.797   5.089  46.641  1.00  0.00     0.056 A 
ENDBRANCH  17  19
ENDBRANCH   7  17
TORSDOF 2
ENDMDL
MODEL 4
REMARK VINA RESULT:      -8.3      8.806     10.400
REMARK  2 active torsions:
REMARK  status: ('A' for Active; 'I' for Inactive)
REMARK    1  A    between atoms: C6_7  and  N2_8 
REMARK    2  A    between atoms: N2_8  and  C7_9 
ROOT
HETATM    1  C1  UNL     1      25.090   5.366  49.290  1.00  0.00     0.036 C 
HETATM    2  C2  UNL     1      25.539   6.578  48.555  1.00  0.00    -0.020 C 
HETATM    3  C3  UNL     1      26.764   6.838  48.151  1.00  0.00    -0.011 C 
HETATM    4  C4  UNL     1      27.894   5.904  48.400  1.00  0.00     0.161 C 
HETATM    5  N1  UNL     1      29.047   6.567  48.946  1.00  0.00    -0.379 N 
HETATM    6  C5  UNL     1      29.710   7.759  48.617  1.00  0.00     0.129 A 
HETATM    7  C6  UNL     1      31.014   7.715  49.049  1.00  0.00     0.160 A 
HETATM    8  N3  UNL     1      31.711   8.823  48.802  1.00  0.00    -0.222 NA
HETATM    9  C13 UNL     1      31.280   9.921  48.199  1.00  0.00     0.238 A 
HETATM   10  N4  UNL     1      30.003   9.949  47.781  1.00  0.00    -0.215 NA
HETATM   11  C14 UNL     1      29.191   8.883  47.976  1.00  0.00     0.202 A 
HETATM   12  O1  UNL     1      27.911   9.076  47.487  1.00  0.00    -0.290 OA
HETATM   13  C15 UNL     1      26.895   8.104  47.429  1.00  0.00     0.081 C 
HETATM   14  C16 UNL     1      25.919   8.427  46.566  1.00  0.00     0.007 C 
HETATM   15  C17 UNL     1      24.646   7.908  46.047  1.00  0.00     0.039 C 
HETATM   16  H7  UNL     1      29.497   6.086  49.758  1.00  0.00     0.160 HD
ENDROOT
BRANCH   7  17
HETATM   17  N2  UNL     1      31.661   6.618  49.667  1.00  0.00    -0.339 N 
HETATM   18  H8  UNL     1      31.658   6.268  50.646  1.00  0.00     0.167 HD
BRANCH  17  19
HETATM   19  C7  UNL     1      32.494   5.740  48.930  1.00  0.00     0.035 A 
HETATM   20  C8  UNL     1      33.868   5.897  48.879  1.00  0.00     0.032 A 
HETATM   21  C9  UNL     1      34.773   5.123  48.183  1.00  0.00     0.046 A 
HETATM   22  C10 UNL     1      34.242   4.070  47.457  1.00  0.00     0.138 A 
HETATM   23  F1  UNL     1      35.084   3.268  46.746  1.00  0.00    -0.204 F 
HETATM   24  C11 UNL     1      32.866   3.829  47.445  1.00  0.00     0.074 A 
HETATM   25 CL1  UNL     1      32.296   2.487  46.492  1.00  0.00    -0.081 Cl
HETATM   26  C12 UNL     1      32.060   4.667  48.177  1.00  0.00     0.056 A 
ENDBRANCH  17  19
ENDBRANCH   7  17
TORSDOF 2
ENDMDL
MODEL 5
REMARK VINA RESULT:      -8.2      3.811      7.100
REMARK  2 active torsions:
REMARK  status: ('A' for Active; 'I' for Inactive)
REMARK    1  A    between atoms: C6_7  and  N2_8 
REMARK    2  A    between atoms: N2_8  and  C7_9 
ROOT
HETATM    1  C1  UNL     1      29.448   2.463  53.978  1.00  0.00     0.036 C 
HETATM    2  C2  UNL     1      28.671   1.196  53.927  1.00  0.00    -0.020 C 
HETATM    3  C3  UNL     1      27.530   1.004  53.301  1.00  0.00    -0.011 C 
HETATM    4  C4  UNL     1      26.854   2.085  52.537  1.00  0.00     0.161 C 
HETATM    5  N1  UNL     1      25.459   2.202  52.863  1.00  0.00    -0.379 N 
HETATM    6  C5  UNL     1      24.432   1.259  53.022  1.00  0.00     0.129 A 
HETATM    7  C6  UNL     1      23.207   1.849  52.817  1.00  0.00     0.160 A 
HETATM    8  N3  UNL     1      22.170   1.028  52.975  1.00  0.00    -0.222 NA
HETATM    9  C13 UNL     1      22.210  -0.257  53.298  1.00  0.00     0.238 A 
HETATM   10  N4  UNL     1      23.414  -0.819  53.494  1.00  0.00    -0.215 NA
HETATM   11  C14 UNL     1      24.545  -0.088  53.364  1.00  0.00     0.202 A 
HETATM   12  O1  UNL     1      25.697  -0.817  53.599  1.00  0.00    -0.290 OA
HETATM   13  C15 UNL     1      27.016  -0.362  53.411  1.00  0.00     0.081 C 
HETATM   14  C16 UNL     1      27.902  -1.365  53.324  1.00  0.00     0.007 C 
HETATM   15  C17 UNL     1      29.342  -1.595  53.143  1.00  0.00     0.039 C 
HETATM   16  H7  UNL     1      25.117   3.176  53.028  1.00  0.00     0.160 HD
ENDROOT
BRANCH   7  17
HETATM   17  N2  UNL     1      22.972   3.187  52.422  1.00  0.00    -0.339 N 
HETATM   18  H8  UNL     1      22.800   4.055  52.969  1.00  0.00     0.167 HD
BRANCH  17  19
HETATM   19  C7  UNL     1      22.946   3.563  51.056  1.00  0.00     0.035 A 
HETATM   20  C8  UNL     1      23.043   4.884  50.653  1.00  0.00     0.032 A 
HETATM   21  C9  UNL     1      23.009   5.368  49.361  1.00  0.00     0.046 A 
HETATM   22  C10 UNL     1      22.864   4.423  48.360  1.00  0.00     0.138 A 
HETATM   23  F1  UNL     1      22.821   4.838  47.063  1.00  0.00    -0.204 F 
HETATM   24  C11 UNL     1      22.758   3.064  48.666  1.00  0.00     0.074 A 
HETATM   25 CL1  UNL     1      22.567   1.956  47.335  1.00  0.00    -0.081 Cl
HETATM   26  C12 UNL     1      22.805   2.698  49.990  1.00  0.00     0.056 A 
ENDBRANCH  17  19
ENDBRANCH   7  17
TORSDOF 2
ENDMDL
MODEL 6
REMARK VINA RESULT:      -8.1      3.435      4.596
REMARK  2 active torsions:
REMARK  status: ('A' for Active; 'I' for Inactive)
REMARK    1  A    between atoms: C6_7  and  N2_8 
REMARK    2  A    between atoms: N2_8  and  C7_9 
ROOT
HETATM    1  C1  UNL     1      26.595   7.072  48.194  1.00  0.00     0.036 C 
HETATM    2  C2  UNL     1      25.305   6.340  48.076  1.00  0.00    -0.020 C 
HETATM    3  C3  UNL     1      24.670   5.715  49.043  1.00  0.00    -0.011 C 
HETATM    4  C4  UNL     1      25.196   5.666  50.432  1.00  0.00     0.161 C 
HETATM    5  N1  UNL     1      25.188   4.336  50.979  1.00  0.00    -0.379 N 
HETATM    6  C5  UNL     1      24.231   3.310  50.983  1.00  0.00     0.129 A 
HETATM    7  C6  UNL     1      24.453   2.454  52.036  1.00  0.00     0.160 A 
HETATM    8  N3  UNL     1      23.603   1.432  52.100  1.00  0.00    -0.222 NA
HETATM    9  C13 UNL     1      22.599   1.174  51.275  1.00  0.00     0.238 A 
HETATM   10  N4  UNL     1      22.393   2.020  50.251  1.00  0.00    -0.215 NA
HETATM   11  C14 UNL     1      23.192   3.098  50.078  1.00  0.00     0.202 A 
HETATM   12  O1  UNL     1      22.844   3.863  48.979  1.00  0.00    -0.290 OA
HETATM   13  C15 UNL     1      23.407   5.105  48.626  1.00  0.00     0.081 C 
HETATM   14  C16 UNL     1      22.634   5.801  47.780  1.00  0.00     0.007 C 
HETATM   15  C17 UNL     1      22.610   7.079  47.055  1.00  0.00     0.039 C 
HETATM   16  H7  UNL     1      26.065   4.048  51.470  1.00  0.00     0.160 HD
ENDROOT
BRANCH   7  17
HETATM   17  N2  UNL     1      25.440   2.593  53.040  1.00  0.00    -0.339 N 
HETATM   18  H8  UNL     1      25.577   3.300  53.791  1.00  0.00     0.167 HD
BRANCH  17  19
HETATM   19  C7  UNL     1      26.499   1.661  53.171  1.00  0.00     0.035 A 
HETATM   20  C8  UNL     1      27.763   2.035  53.593  1.00  0.00     0.032 A 
HETATM   21  C9  UNL     1      28.871   1.225  53.737  1.00  0.00     0.046 A 
HETATM   22  C10 UNL     1      28.692  -0.112  53.425  1.00  0.00     0.138 A 
HETATM   23  F1  UNL     1      29.749  -0.964  53.545  1.00  0.00    -0.204 F 
HETATM   24  C11 UNL     1      27.453  -0.588  52.989  1.00  0.00     0.074 A 
HETATM   25 CL1  UNL     1      27.334  -2.284  52.611  1.00  0.00    -0.081 Cl
HETATM   26  C12 UNL     1      26.420   0.313  52.884  1.00  0.00     0.056 A 
ENDBRANCH  17  19
ENDBRANCH   7  17
TORSDOF 2
ENDMDL
MODEL 7
REMARK VINA RESULT:      -8.1      4.848      6.847
REMARK  2 active torsions:
REMARK  status: ('A' for Active; 'I' for Inactive)
REMARK    1  A    between atoms: C6_7  and  N2_8 
REMARK    2  A    between atoms: N2_8  and  C7_9 
ROOT
HETATM    1  C1  UNL     1      28.000   5.479  48.204  1.00  0.00     0.036 C 
HETATM    2  C2  UNL     1      26.882   6.261  48.796  1.00  0.00    -0.020 C 
HETATM    3  C3  UNL     1      25.965   5.809  49.624  1.00  0.00    -0.011 C 
HETATM    4  C4  UNL     1      25.940   4.396  50.082  1.00  0.00     0.161 C 
HETATM    5  N1  UNL     1      24.637   3.800  49.961  1.00  0.00    -0.379 N 
HETATM    6  C5  UNL     1      23.348   4.245  50.291  1.00  0.00     0.129 A 
HETATM    7  C6  UNL     1      22.506   3.174  50.480  1.00  0.00     0.160 A 
HETATM    8  N3  UNL     1      21.251   3.509  50.771  1.00  0.00    -0.222 NA
HETATM    9  C13 UNL     1      20.756   4.732  50.891  1.00  0.00     0.238 A 
HETATM   10  N4  UNL     1      21.591   5.769  50.704  1.00  0.00    -0.215 NA
HETATM   11  C14 UNL     1      22.893   5.559  50.402  1.00  0.00     0.202 A 
HETATM   12  O1  UNL     1      23.612   6.730  50.243  1.00  0.00    -0.290 OA
HETATM   13  C15 UNL     1      25.005   6.825  50.056  1.00  0.00     0.081 C 
HETATM   14  C16 UNL     1      25.480   8.049  50.330  1.00  0.00     0.007 C 
HETATM   15  C17 UNL     1      26.745   8.798  50.346  1.00  0.00     0.039 C 
HETATM   16  H7  UNL     1      24.619   2.843  49.538  1.00  0.00     0.160 HD
ENDROOT
BRANCH   7  17
HETATM   17  N2  UNL     1      22.863   1.806  50.440  1.00  0.00    -0.339 N 
HETATM   18  H8  UNL     1      23.051   1.157  49.648  1.00  0.00     0.167 HD
BRANCH  17  19
HETATM   19  C7  UNL     1      23.040   1.051  51.626  1.00  0.00     0.035 A 
HETATM   20  C8  UNL     1      24.251   1.003  52.295  1.00  0.00     0.032 A 
HETATM   21  C9  UNL     1      24.546   0.290  53.439  1.00  0.00     0.046 A 
HETATM   22  C10 UNL     1      23.511  -0.457  53.975  1.00  0.00     0.138 A 
HETATM   23  F1  UNL     1      23.739  -1.184  55.105  1.00  0.00    -0.204 F 
HETATM   24  C11 UNL     1      22.250  -0.473  53.372  1.00  0.00     0.074 A 
HETATM   25 CL1  UNL     1      21.018  -1.453  54.118  1.00  0.00    -0.081 Cl
HETATM   26  C12 UNL     1      22.073   0.276  52.235  1.00  0.00     0.056 A 
ENDBRANCH  17  19
ENDBRANCH   7  17
TORSDOF 2
ENDMDL
MODEL 8
REMARK VINA RESULT:      -8.0      4.330      6.433
REMARK  2 active torsions:
REMARK  status: ('A' for Active; 'I' for Inactive)
REMARK    1  A    between atoms: C6_7  and  N2_8 
REMARK    2  A    between atoms: N2_8  and  C7_9 
ROOT
HETATM    1  C1  UNL     1      25.204  -0.053  53.563  1.00  0.00     0.036 C 
HETATM    2  C2  UNL     1      23.739   0.104  53.766  1.00  0.00    -0.020 C 
HETATM    3  C3  UNL     1      22.872   0.559  52.886  1.00  0.00    -0.011 C 
HETATM    4  C4  UNL     1      23.281   0.990  51.524  1.00  0.00     0.161 C 
HETATM    5  N1  UNL     1      22.741   2.275  51.167  1.00  0.00    -0.379 N 
HETATM    6  C5  UNL     1      21.466   2.844  51.293  1.00  0.00     0.129 A 
HETATM    7  C6  UNL     1      21.299   3.851  50.371  1.00  0.00     0.160 A 
HETATM    8  N3  UNL     1      20.120   4.467  50.439  1.00  0.00    -0.222 NA
HETATM    9  C13 UNL     1      19.130   4.208  51.281  1.00  0.00     0.238 A 
HETATM   10  N4  UNL     1      19.307   3.220  52.175  1.00  0.00    -0.215 NA
HETATM   11  C14 UNL     1      20.464   2.519  52.207  1.00  0.00     0.202 A 
HETATM   12  O1  UNL     1      20.482   1.541  53.185  1.00  0.00    -0.290 OA
HETATM   13  C15 UNL     1      21.491   0.576  53.369  1.00  0.00     0.081 C 
HETATM   14  C16 UNL     1      21.079  -0.469  54.102  1.00  0.00     0.007 C 
HETATM   15  C17 UNL     1      21.576  -1.742  54.643  1.00  0.00     0.039 C 
HETATM   16  H7  UNL     1      23.420   2.940  50.730  1.00  0.00     0.160 HD
ENDROOT
BRANCH   7  17
HETATM   17  N2  UNL     1      22.221   4.237  49.370  1.00  0.00    -0.339 N 
HETATM   18  H8  UNL     1      22.285   4.010  48.356  1.00  0.00     0.167 HD
BRANCH  17  19
HETATM   19  C7  UNL     1      23.308   5.098  49.657  1.00  0.00     0.035 A 
HETATM   20  C8  UNL     1      23.212   6.125  50.580  1.00  0.00     0.032 A 
HETATM   21  C9  UNL     1      24.191   7.035  50.924  1.00  0.00     0.046 A 
HETATM   22  C10 UNL     1      25.405   6.899  50.272  1.00  0.00     0.138 A 
HETATM   23  F1  UNL     1      26.412   7.768  50.566  1.00  0.00    -0.204 F 
HETATM   24  C11 UNL     1      25.600   5.893  49.322  1.00  0.00     0.074 A 
HETATM   25 CL1  UNL     1      27.160   5.813  48.550  1.00  0.00    -0.081 Cl
HETATM   26  C12 UNL     1      24.553   5.044  49.060  1.00  0.00     0.056 A 
ENDBRANCH  17  19
ENDBRANCH   7  17
TORSDOF 2
ENDMDL
MODEL 9
REMARK VINA RESULT:      -7.9      4.959      6.234
REMARK  2 active torsions:
REMARK  status: ('A' for Active; 'I' for Inactive)
REMARK    1  A    between atoms: C6_7  and  N2_8 
REMARK    2  A    between atoms: N2_8  and  C7_9 
ROOT
HETATM    1  C1  UNL     1      19.394   0.265  51.913  1.00  0.00     0.036 C 
HETATM    2  C2  UNL     1      20.711  -0.178  52.443  1.00  0.00    -0.020 C 
HETATM    3  C3  UNL     1      21.767   0.581  52.646  1.00  0.00    -0.011 C 
HETATM    4  C4  UNL     1      21.761   2.039  52.353  1.00  0.00     0.161 C 
HETATM    5  N1  UNL     1      22.906   2.452  51.587  1.00  0.00    -0.379 N 
HETATM    6  C5  UNL     1      24.276   2.171  51.689  1.00  0.00     0.129 A 
HETATM    7  C6  UNL     1      25.014   3.167  51.093  1.00  0.00     0.160 A 
HETATM    8  N3  UNL     1      26.330   2.966  51.121  1.00  0.00    -0.222 NA
HETATM    9  C13 UNL     1      26.970   1.934  51.651  1.00  0.00     0.238 A 
HETATM   10  N4  UNL     1      26.236   0.969  52.231  1.00  0.00    -0.215 NA
HETATM   11  C14 UNL     1      24.886   1.058  52.266  1.00  0.00     0.202 A 
HETATM   12  O1  UNL     1      24.286  -0.017  52.898  1.00  0.00    -0.290 OA
HETATM   13  C15 UNL     1      22.915  -0.136  53.200  1.00  0.00     0.081 C 
HETATM   14  C16 UNL     1      22.672  -1.057  54.144  1.00  0.00     0.007 C 
HETATM   15  C17 UNL     1      21.553  -1.656  54.884  1.00  0.00     0.039 C 
HETATM   16  H7  UNL     1      22.700   3.084  50.780  1.00  0.00     0.160 HD
ENDROOT
BRANCH   7  17
HETATM   17  N2  UNL     1      24.511   4.359  50.520  1.00  0.00    -0.339 N 
HETATM   18  H8  UNL     1      23.543   4.722  50.402  1.00  0.00     0.167 HD
BRANCH  17  19
HETATM   19  C7  UNL     1      25.375   5.338  49.972  1.00  0.00     0.035 A 
HETATM   20  C8  UNL     1      26.361   5.021  49.053  1.00  0.00     0.032 A 
HETATM   21  C9  UNL     1      27.269   5.881  48.471  1.00  0.00     0.046 A 
HETATM   22  C10 UNL     1      27.179   7.210  48.849  1.00  0.00     0.138 A 
HETATM   23  F1  UNL     1      28.049   8.109  48.311  1.00  0.00    -0.204 F 
HETATM   24  C11 UNL     1      26.216   7.629  49.771  1.00  0.00     0.074 A 
HETATM   25 CL1  UNL     1      26.192   9.320  50.190  1.00  0.00    -0.081 Cl
HETATM   26  C12 UNL     1      25.364   6.683  50.286  1.00  0.00     0.056 A 
ENDBRANCH  17  19
ENDBRANCH   7  17
TORSDOF 2
ENDMDL
