MODEL 1
REMARK VINA RESULT:      -6.8      0.000      0.000
REMARK  3 active torsions:
REMARK  status: ('A' for Active; 'I' for Inactive)
REMARK    1  A    between atoms: C1_2  and  C2_3 
REMARK       I    between atoms: C1_2  and  N1_9 
REMARK    2  A    between atoms: C2_3  and  C3_4 
REMARK    3  A    between atoms: C3_4  and  C4_5 
ROOT
HETATM    1  O1  UNL     1      31.667   3.660  47.100  1.00  0.00    -0.268 OA
HETATM    2  C1  UNL     1      31.867   4.797  47.641  1.00  0.00     0.252 C 
HETATM    3  N1  UNL     1      33.105   5.326  48.033  1.00  0.00    -0.281 N 
HETATM    4  C5  UNL     1      33.515   6.491  48.545  1.00  0.00     0.044 A 
HETATM    5  C6  UNL     1      34.829   6.591  48.911  1.00  0.00     0.032 A 
HETATM    6  C7  UNL     1      35.376   5.332  48.597  1.00  0.00     0.029 A 
HETATM    7  C8  UNL     1      34.278   4.689  48.089  1.00  0.00     0.038 A 
HETATM    8  C9  UNL     1      34.464   3.351  47.426  1.00  0.00     0.177 C 
HETATM    9  N2  UNL     1      34.832   3.662  46.014  1.00  0.00    -0.383 N 
HETATM   10  C10 UNL     1      34.202   4.900  45.565  1.00  0.00     0.043 C 
HETATM   11  C11 UNL     1      34.200   6.245  45.772  1.00  0.00     0.119 C 
HETATM   12  N3  UNL     1      33.088   7.031  46.182  1.00  0.00    -0.361 N 
HETATM   13  C12 UNL     1      32.525   7.841  47.239  1.00  0.00     0.093 C 
HETATM   14  C13 UNL     1      32.668   7.675  48.579  1.00  0.00     0.047 C 
HETATM   15  C14 UNL     1      32.192   6.982  45.059  1.00  0.00     0.155 C 
HETATM   16  C15 UNL     1      32.610   5.936  44.115  1.00  0.00    -0.005 C 
HETATM   17  C16 UNL     1      33.185   4.784  44.514  1.00  0.00     0.028 C 
HETATM   18  H7  UNL     1      35.349   3.393  45.157  1.00  0.00     0.160 HD
ENDROOT
BRANCH   2  19
HETATM   19  C2  UNL     1      30.605   5.449  47.789  1.00  0.00     0.080 C 
BRANCH  19  20
HETATM   20  C3  UNL     1      29.394   5.906  47.982  1.00  0.00     0.094 C 
BRANCH  20  21
HETATM   21  C4  UNL     1      28.078   6.505  48.138  1.00  0.00     0.408 C 
HETATM   22  F1  UNL     1      27.113   5.535  48.242  1.00  0.00    -0.167 F 
HETATM   23  F2  UNL     1      27.991   7.454  49.149  1.00  0.00    -0.167 F 
HETATM   24  F3  UNL     1      27.810   7.241  46.968  1.00  0.00    -0.167 F 
ENDBRANCH  20  21
ENDBRANCH  19  20
ENDBRANCH   2  19
TORSDOF 3
ENDMDL
MODEL 2
REMARK VINA RESULT:      -6.7     10.419     12.308
REMARK  3 active torsions:
REMARK  status: ('A' for Active; 'I' for Inactive)
REMARK    1  A    between atoms: C1_2  and  C2_3 
REMARK       I    between atoms: C1_2  and  N1_9 
REMARK    2  A    between atoms: C2_3  and  C3_4 
REMARK    3  A    between atoms: C3_4  and  C4_5 
ROOT
HETATM    1  O1  UNL     1      20.043   3.222  52.736  1.00  0.00    -0.268 OA
HETATM    2  C1  UNL     1      21.267   3.147  52.386  1.00  0.00     0.252 C 
HETATM    3  N1  UNL     1      22.115   2.044  52.559  1.00  0.00    -0.281 N 
HETATM    4  C5  UNL     1      23.375   1.758  52.213  1.00  0.00     0.044 A 
HETATM    5  C6  UNL     1      23.904   0.584  52.675  1.00  0.00     0.032 A 
HETATM    6  C7  UNL     1      22.863   0.001  53.423  1.00  0.00     0.029 A 
HETATM    7  C8  UNL     1      21.877   0.942  53.275  1.00  0.00     0.038 A 
HETATM    8  C9  UNL     1      20.488   0.617  53.755  1.00  0.00     0.177 C 
HETATM    9  N2  UNL     1      19.845  -0.116  52.626  1.00  0.00    -0.383 N 
HETATM   10  C10 UNL     1      20.353   0.347  51.339  1.00  0.00     0.043 C 
HETATM   11  C11 UNL     1      21.477   0.374  50.570  1.00  0.00     0.119 C 
HETATM   12  N3  UNL     1      22.142   1.537  50.095  1.00  0.00    -0.361 N 
HETATM   13  C12 UNL     1      23.342   2.340  50.171  1.00  0.00     0.093 C 
HETATM   14  C13 UNL     1      24.128   2.558  51.257  1.00  0.00     0.047 C 
HETATM   15  C14 UNL     1      21.219   2.107  49.151  1.00  0.00     0.155 C 
HETATM   16  C15 UNL     1      19.897   1.479  49.284  1.00  0.00    -0.005 C 
HETATM   17  C16 UNL     1      19.409   1.054  50.467  1.00  0.00     0.028 C 
HETATM   18  H7  UNL     1      19.166  -0.834  52.312  1.00  0.00     0.160 HD
ENDROOT
BRANCH   2  19
HETATM   19  C2  UNL     1      21.637   4.389  51.785  1.00  0.00     0.080 C 
BRANCH  19  20
HETATM   20  C3  UNL     1      21.833   5.583  51.286  1.00  0.00     0.094 C 
BRANCH  20  21
HETATM   21  C4  UNL     1      22.107   6.934  50.825  1.00  0.00     0.408 C 
HETATM   22  F1  UNL     1      21.099   7.787  51.197  1.00  0.00    -0.167 F 
HETATM   23  F2  UNL     1      23.366   7.416  51.165  1.00  0.00    -0.167 F 
HETATM   24  F3  UNL     1      22.132   6.902  49.418  1.00  0.00    -0.167 F 
ENDBRANCH  20  21
ENDBRANCH  19  20
ENDBRANCH   2  19
TORSDOF 3
ENDMDL
MODEL 3
REMARK VINA RESULT:      -6.6      9.896     12.064
REMARK  3 active torsions:
REMARK  status: ('A' for Active; 'I' for Inactive)
REMARK    1  A    between atoms: C1_2  and  C2_3 
REMARK       I    between atoms: C1_2  and  N1_9 
REMARK    2  A    between atoms: C2_3  and  C3_4 
REMARK    3  A    between atoms: C3_4  and  C4_5 
ROOT
HETATM    1  O1  UNL     1      21.513   0.620  49.962  1.00  0.00    -0.268 OA
HETATM    2  C1  UNL     1      22.342   1.203  50.736  1.00  0.00     0.252 C 
HETATM    3  N1  UNL     1      23.196   2.261  50.394  1.00  0.00    -0.281 N 
HETATM    4  C5  UNL     1      24.067   3.025  51.061  1.00  0.00     0.044 A 
HETATM    5  C6  UNL     1      24.819   3.907  50.334  1.00  0.00     0.032 A 
HETATM    6  C7  UNL     1      24.393   3.716  49.005  1.00  0.00     0.029 A 
HETATM    7  C8  UNL     1      23.445   2.740  49.172  1.00  0.00     0.038 A 
HETATM    8  C9  UNL     1      22.570   2.374  48.004  1.00  0.00     0.177 C 
HETATM    9  N2  UNL     1      21.446   3.354  48.034  1.00  0.00    -0.383 N 
HETATM   10  C10 UNL     1      21.137   3.760  49.401  1.00  0.00     0.043 C 
HETATM   11  C11 UNL     1      21.646   4.439  50.465  1.00  0.00     0.119 C 
HETATM   12  N3  UNL     1      21.882   3.912  51.764  1.00  0.00    -0.361 N 
HETATM   13  C12 UNL     1      22.885   3.556  52.743  1.00  0.00     0.093 C 
HETATM   14  C13 UNL     1      24.128   3.059  52.516  1.00  0.00     0.047 C 
HETATM   15  C14 UNL     1      20.566   3.653  52.281  1.00  0.00     0.155 C 
HETATM   16  C15 UNL     1      19.568   3.727  51.204  1.00  0.00    -0.005 C 
HETATM   17  C16 UNL     1      19.836   3.348  49.938  1.00  0.00     0.028 C 
HETATM   18  H7  UNL     1      20.742   3.906  47.510  1.00  0.00     0.160 HD
ENDROOT
BRANCH   2  19
HETATM   19  C2  UNL     1      22.259   0.589  52.022  1.00  0.00     0.080 C 
BRANCH  19  20
HETATM   20  C3  UNL     1      22.034  -0.021  53.159  1.00  0.00     0.094 C 
BRANCH  20  21
HETATM   21  C4  UNL     1      21.698  -0.628  54.436  1.00  0.00     0.408 C 
HETATM   22  F1  UNL     1      21.019   0.261  55.231  1.00  0.00    -0.167 F 
HETATM   23  F2  UNL     1      21.055  -1.857  54.340  1.00  0.00    -0.167 F 
HETATM   24  F3  UNL     1      22.907  -0.936  55.087  1.00  0.00    -0.167 F 
ENDBRANCH  20  21
ENDBRANCH  19  20
ENDBRANCH   2  19
TORSDOF 3
ENDMDL
MODEL 4
REMARK VINA RESULT:      -6.6      8.731     10.359
REMARK  3 active torsions:
REMARK  status: ('A' for Active; 'I' for Inactive)
REMARK    1  A    between atoms: C1_2  and  C2_3 
REMARK       I    between atoms: C1_2  and  N1_9 
REMARK    2  A    between atoms: C2_3  and  C3_4 
REMARK    3  A    between atoms: C3_4  and  C4_5 
ROOT
HETATM    1  O1  UNL     1      25.872   3.094  49.304  1.00  0.00    -0.268 OA
HETATM    2  C1  UNL     1      25.395   3.166  50.485  1.00  0.00     0.252 C 
HETATM    3  N1  UNL     1      24.607   4.204  51.002  1.00  0.00    -0.281 N 
HETATM    4  C5  UNL     1      23.978   4.425  52.161  1.00  0.00     0.044 A 
HETATM    5  C6  UNL     1      23.386   5.646  52.334  1.00  0.00     0.032 A 
HETATM    6  C7  UNL     1      23.645   6.334  51.133  1.00  0.00     0.029 A 
HETATM    7  C8  UNL     1      24.356   5.389  50.439  1.00  0.00     0.038 A 
HETATM    8  C9  UNL     1      24.663   5.637  48.987  1.00  0.00     0.177 C 
HETATM    9  N2  UNL     1      23.462   5.158  48.244  1.00  0.00    -0.383 N 
HETATM   10  C10 UNL     1      22.825   4.041  48.934  1.00  0.00     0.043 C 
HETATM   11  C11 UNL     1      22.147   3.721  50.071  1.00  0.00     0.119 C 
HETATM   12  N3  UNL     1      22.543   2.765  51.046  1.00  0.00    -0.361 N 
HETATM   13  C12 UNL     1      22.987   2.564  52.407  1.00  0.00     0.093 C 
HETATM   14  C13 UNL     1      23.773   3.380  53.155  1.00  0.00     0.047 C 
HETATM   15  C14 UNL     1      22.434   1.504  50.365  1.00  0.00     0.155 C 
HETATM   16  C15 UNL     1      22.278   1.715  48.918  1.00  0.00    -0.005 C 
HETATM   17  C16 UNL     1      22.865   2.737  48.264  1.00  0.00     0.028 C 
HETATM   18  H7  UNL     1      22.837   5.251  47.421  1.00  0.00     0.160 HD
ENDROOT
BRANCH   2  19
HETATM   19  C2  UNL     1      25.806   2.002  51.204  1.00  0.00     0.080 C 
BRANCH  19  20
HETATM   20  C3  UNL     1      26.324   1.011  51.883  1.00  0.00     0.094 C 
BRANCH  20  21
HETATM   21  C4  UNL     1      26.830  -0.160  52.580  1.00  0.00     0.408 C 
HETATM   22  F1  UNL     1      28.168  -0.021  52.852  1.00  0.00    -0.167 F 
HETATM   23  F2  UNL     1      26.094  -0.529  53.700  1.00  0.00    -0.167 F 
HETATM   24  F3  UNL     1      26.689  -1.260  51.713  1.00  0.00    -0.167 F 
ENDBRANCH  20  21
ENDBRANCH  19  20
ENDBRANCH   2  19
TORSDOF 3
ENDMDL
MODEL 5
REMARK VINA RESULT:      -6.4     11.254     13.120
REMARK  3 active torsions:
REMARK  status: ('A' for Active; 'I' for Inactive)
REMARK    1  A    between atoms: C1_2  and  C2_3 
REMARK       I    between atoms: C1_2  and  N1_9 
REMARK    2  A    between atoms: C2_3  and  C3_4 
REMARK    3  A    between atoms: C3_4  and  C4_5 
ROOT
HETATM    1  O1  UNL     1      19.591   3.494  52.581  1.00  0.00    -0.268 OA
HETATM    2  C1  UNL     1      20.078   2.575  51.844  1.00  0.00     0.252 C 
HETATM    3  N1  UNL     1      20.266   2.634  50.456  1.00  0.00    -0.281 N 
HETATM    4  C5  UNL     1      20.804   1.822  49.540  1.00  0.00     0.044 A 
HETATM    5  C6  UNL     1      20.697   2.193  48.228  1.00  0.00     0.032 A 
HETATM    6  C7  UNL     1      20.003   3.418  48.266  1.00  0.00     0.029 A 
HETATM    7  C8  UNL     1      19.815   3.570  49.615  1.00  0.00     0.038 A 
HETATM    8  C9  UNL     1      19.281   4.879  50.129  1.00  0.00     0.177 C 
HETATM    9  N2  UNL     1      20.477   5.757  50.282  1.00  0.00    -0.383 N 
HETATM   10  C10 UNL     1      21.663   4.979  50.627  1.00  0.00     0.043 C 
HETATM   11  C11 UNL     1      22.518   4.041  50.134  1.00  0.00     0.119 C 
HETATM   12  N3  UNL     1      22.769   2.757  50.689  1.00  0.00    -0.361 N 
HETATM   13  C12 UNL     1      22.630   1.330  50.504  1.00  0.00     0.093 C 
HETATM   14  C13 UNL     1      21.615   0.665  49.895  1.00  0.00     0.047 C 
HETATM   15  C14 UNL     1      23.443   3.037  51.927  1.00  0.00     0.155 C 
HETATM   16  C15 UNL     1      23.324   4.463  52.265  1.00  0.00    -0.005 C 
HETATM   17  C16 UNL     1      22.233   5.193  51.961  1.00  0.00     0.028 C 
HETATM   18  H7  UNL     1      20.880   6.713  50.260  1.00  0.00     0.160 HD
ENDROOT
BRANCH   2  19
HETATM   19  C2  UNL     1      20.398   1.459  52.675  1.00  0.00     0.080 C 
BRANCH  19  20
HETATM   20  C3  UNL     1      20.836   0.434  53.363  1.00  0.00     0.094 C 
BRANCH  20  21
HETATM   21  C4  UNL     1      21.297  -0.768  54.037  1.00  0.00     0.408 C 
HETATM   22  F1  UNL     1      20.263  -1.654  54.207  1.00  0.00    -0.167 F 
HETATM   23  F2  UNL     1      22.417  -1.359  53.464  1.00  0.00    -0.167 F 
HETATM   24  F3  UNL     1      21.740  -0.388  55.318  1.00  0.00    -0.167 F 
ENDBRANCH  20  21
ENDBRANCH  19  20
ENDBRANCH   2  19
TORSDOF 3
ENDMDL
MODEL 6
REMARK VINA RESULT:      -6.3      9.885     11.405
REMARK  3 active torsions:
REMARK  status: ('A' for Active; 'I' for Inactive)
REMARK    1  A    between atoms: C1_2  and  C2_3 
REMARK       I    between atoms: C1_2  and  N1_9 
REMARK    2  A    between atoms: C2_3  and  C3_4 
REMARK    3  A    between atoms: C3_4  and  C4_5 
ROOT
HETATM    1  O1  UNL     1      24.549   3.351  49.594  1.00  0.00    -0.268 OA
HETATM    2  C1  UNL     1      23.472   2.668  49.605  1.00  0.00     0.252 C 
HETATM    3  N1  UNL     1      23.020   1.843  50.644  1.00  0.00    -0.281 N 
HETATM    4  C5  UNL     1      21.920   1.116  50.864  1.00  0.00     0.044 A 
HETATM    5  C6  UNL     1      21.895   0.331  51.984  1.00  0.00     0.032 A 
HETATM    6  C7  UNL     1      23.138   0.567  52.603  1.00  0.00     0.029 A 
HETATM    7  C8  UNL     1      23.697   1.466  51.733  1.00  0.00     0.038 A 
HETATM    8  C9  UNL     1      24.975   2.156  52.127  1.00  0.00     0.177 C 
HETATM    9  N2  UNL     1      24.550   3.333  52.940  1.00  0.00    -0.383 N 
HETATM   10  C10 UNL     1      23.257   3.843  52.494  1.00  0.00     0.043 C 
HETATM   11  C11 UNL     1      21.937   3.520  52.424  1.00  0.00     0.119 C 
HETATM   12  N3  UNL     1      21.156   3.425  51.240  1.00  0.00    -0.361 N 
HETATM   13  C12 UNL     1      20.427   2.539  50.360  1.00  0.00     0.093 C 
HETATM   14  C13 UNL     1      20.717   1.248  50.053  1.00  0.00     0.047 C 
HETATM   15  C14 UNL     1      21.075   4.779  50.764  1.00  0.00     0.155 C 
HETATM   16  C15 UNL     1      22.045   5.629  51.469  1.00  0.00    -0.005 C 
HETATM   17  C16 UNL     1      23.245   5.176  51.880  1.00  0.00     0.028 C 
HETATM   18  H7  UNL     1      24.757   3.995  53.711  1.00  0.00     0.160 HD
ENDROOT
BRANCH   2  19
HETATM   19  C2  UNL     1      22.796   2.881  48.365  1.00  0.00     0.080 C 
BRANCH  19  20
HETATM   20  C3  UNL     1      22.158   3.229  47.277  1.00  0.00     0.094 C 
BRANCH  20  21
HETATM   21  C4  UNL     1      21.474   3.724  46.093  1.00  0.00     0.408 C 
HETATM   22  F1  UNL     1      22.159   3.375  44.957  1.00  0.00    -0.167 F 
HETATM   23  F2  UNL     1      20.125   3.396  46.025  1.00  0.00    -0.167 F 
HETATM   24  F3  UNL     1      21.470   5.130  46.166  1.00  0.00    -0.167 F 
ENDBRANCH  20  21
ENDBRANCH  19  20
ENDBRANCH   2  19
TORSDOF 3
ENDMDL
MODEL 7
REMARK VINA RESULT:      -6.1     11.163     13.000
REMARK  3 active torsions:
REMARK  status: ('A' for Active; 'I' for Inactive)
REMARK    1  A    between atoms: C1_2  and  C2_3 
REMARK       I    between atoms: C1_2  and  N1_9 
REMARK    2  A    between atoms: C2_3  and  C3_4 
REMARK    3  A    between atoms: C3_4  and  C4_5 
ROOT
HETATM    1  O1  UNL     1      21.829   1.157  48.953  1.00  0.00    -0.268 OA
HETATM    2  C1  UNL     1      21.968   2.135  49.760  1.00  0.00     0.252 C 
HETATM    3  N1  UNL     1      21.298   3.364  49.700  1.00  0.00    -0.281 N 
HETATM    4  C5  UNL     1      21.262   4.459  50.467  1.00  0.00     0.044 A 
HETATM    5  C6  UNL     1      20.551   5.531  50.002  1.00  0.00     0.032 A 
HETATM    6  C7  UNL     1      20.036   5.099  48.764  1.00  0.00     0.029 A 
HETATM    7  C8  UNL     1      20.534   3.824  48.704  1.00  0.00     0.038 A 
HETATM    8  C9  UNL     1      20.047   2.907  47.616  1.00  0.00     0.177 C 
HETATM    9  N2  UNL     1      18.790   2.302  48.146  1.00  0.00    -0.383 N 
HETATM   10  C10 UNL     1      18.846   2.158  49.598  1.00  0.00     0.043 C 
HETATM   11  C11 UNL     1      18.887   2.879  50.751  1.00  0.00     0.119 C 
HETATM   12  N3  UNL     1      19.914   2.836  51.734  1.00  0.00    -0.361 N 
HETATM   13  C12 UNL     1      20.984   3.569  52.374  1.00  0.00     0.093 C 
HETATM   14  C13 UNL     1      21.809   4.491  51.816  1.00  0.00     0.047 C 
HETATM   15  C14 UNL     1      19.799   1.521  52.303  1.00  0.00     0.155 C 
HETATM   16  C15 UNL     1      18.930   0.677  51.470  1.00  0.00    -0.005 C 
HETATM   17  C16 UNL     1      18.873   0.791  50.129  1.00  0.00     0.028 C 
HETATM   18  H7  UNL     1      17.849   1.912  47.955  1.00  0.00     0.160 HD
ENDROOT
BRANCH   2  19
HETATM   19  C2  UNL     1      22.935   1.766  50.744  1.00  0.00     0.080 C 
BRANCH  19  20
HETATM   20  C3  UNL     1      23.709   1.325  51.702  1.00  0.00     0.094 C 
BRANCH  20  21
HETATM   21  C4  UNL     1      24.485   0.767  52.797  1.00  0.00     0.408 C 
HETATM   22  F1  UNL     1      23.688   0.014  53.622  1.00  0.00    -0.167 F 
HETATM   23  F2  UNL     1      25.636   0.092  52.406  1.00  0.00    -0.167 F 
HETATM   24  F3  UNL     1      24.977   1.846  53.558  1.00  0.00    -0.167 F 
ENDBRANCH  20  21
ENDBRANCH  19  20
ENDBRANCH   2  19
TORSDOF 3
ENDMDL
MODEL 8
REMARK VINA RESULT:      -6.1      9.595     11.557
REMARK  3 active torsions:
REMARK  status: ('A' for Active; 'I' for Inactive)
REMARK    1  A    between atoms: C1_2  and  C2_3 
REMARK       I    between atoms: C1_2  and  N1_9 
REMARK    2  A    between atoms: C2_3  and  C3_4 
REMARK    3  A    between atoms: C3_4  and  C4_5 
ROOT
HETATM    1  O1  UNL     1      21.951   1.332  49.450  1.00  0.00    -0.268 OA
HETATM    2  C1  UNL     1      22.776   2.243  49.792  1.00  0.00     0.252 C 
HETATM    3  N1  UNL     1      22.922   3.500  49.190  1.00  0.00    -0.281 N 
HETATM    4  C5  UNL     1      23.665   4.585  49.436  1.00  0.00     0.044 A 
HETATM    5  C6  UNL     1      23.610   5.607  48.528  1.00  0.00     0.032 A 
HETATM    6  C7  UNL     1      22.706   5.154  47.547  1.00  0.00     0.029 A 
HETATM    7  C8  UNL     1      22.372   3.922  48.047  1.00  0.00     0.038 A 
HETATM    8  C9  UNL     1      21.247   3.160  47.403  1.00  0.00     0.177 C 
HETATM    9  N2  UNL     1      20.005   3.669  48.054  1.00  0.00    -0.383 N 
HETATM   10  C10 UNL     1      20.258   4.062  49.437  1.00  0.00     0.043 C 
HETATM   11  C11 UNL     1      20.928   4.973  50.193  1.00  0.00     0.119 C 
HETATM   12  N3  UNL     1      21.922   4.689  51.169  1.00  0.00    -0.361 N 
HETATM   13  C12 UNL     1      23.320   4.808  51.519  1.00  0.00     0.093 C 
HETATM   14  C13 UNL     1      24.391   4.773  50.685  1.00  0.00     0.047 C 
HETATM   15  C14 UNL     1      21.200   4.023  52.220  1.00  0.00     0.155 C 
HETATM   16  C15 UNL     1      19.861   3.634  51.754  1.00  0.00    -0.005 C 
HETATM   17  C16 UNL     1      19.613   3.261  50.483  1.00  0.00     0.028 C 
HETATM   18  H7  UNL     1      18.993   3.881  47.981  1.00  0.00     0.160 HD
ENDROOT
BRANCH   2  19
HETATM   19  C2  UNL     1      23.538   1.762  50.899  1.00  0.00     0.080 C 
BRANCH  19  20
HETATM   20  C3  UNL     1      24.099   1.253  51.967  1.00  0.00     0.094 C 
BRANCH  20  21
HETATM   21  C4  UNL     1      24.764   0.606  53.086  1.00  0.00     0.408 C 
HETATM   22  F1  UNL     1      25.539  -0.439  52.651  1.00  0.00    -0.167 F 
HETATM   23  F2  UNL     1      25.456   1.471  53.926  1.00  0.00    -0.167 F 
HETATM   24  F3  UNL     1      23.762   0.068  53.917  1.00  0.00    -0.167 F 
ENDBRANCH  20  21
ENDBRANCH  19  20
ENDBRANCH   2  19
TORSDOF 3
ENDMDL
MODEL 9
REMARK VINA RESULT:      -6.0      3.536      5.342
REMARK  3 active torsions:
REMARK  status: ('A' for Active; 'I' for Inactive)
REMARK    1  A    between atoms: C1_2  and  C2_3 
REMARK       I    between atoms: C1_2  and  N1_9 
REMARK    2  A    between atoms: C2_3  and  C3_4 
REMARK    3  A    between atoms: C3_4  and  C4_5 
ROOT
HETATM    1  O1  UNL     1      31.881   6.831  44.689  1.00  0.00    -0.268 OA
HETATM    2  C1  UNL     1      32.832   6.956  45.528  1.00  0.00     0.252 C 
HETATM    3  N1  UNL     1      33.232   8.141  46.162  1.00  0.00    -0.281 N 
HETATM    4  C5  UNL     1      34.139   8.455  47.093  1.00  0.00     0.044 A 
HETATM    5  C6  UNL     1      34.316   9.781  47.379  1.00  0.00     0.032 A 
HETATM    6  C7  UNL     1      33.404  10.445  46.536  1.00  0.00     0.029 A 
HETATM    7  C8  UNL     1      32.830   9.385  45.884  1.00  0.00     0.038 A 
HETATM    8  C9  UNL     1      31.626   9.633  45.017  1.00  0.00     0.177 C 
HETATM    9  N2  UNL     1      30.459   9.587  45.944  1.00  0.00    -0.383 N 
HETATM   10  C10 UNL     1      30.698   8.662  47.048  1.00  0.00     0.043 C 
HETATM   11  C11 UNL     1      31.475   8.477  48.150  1.00  0.00     0.119 C 
HETATM   12  N3  UNL     1      32.346   7.380  48.391  1.00  0.00    -0.361 N 
HETATM   13  C12 UNL     1      33.722   6.959  48.540  1.00  0.00     0.093 C 
HETATM   14  C13 UNL     1      34.815   7.450  47.901  1.00  0.00     0.047 C 
HETATM   15  C14 UNL     1      31.461   6.260  48.558  1.00  0.00     0.155 C 
HETATM   16  C15 UNL     1      30.102   6.611  48.118  1.00  0.00    -0.005 C 
HETATM   17  C16 UNL     1      29.864   7.456  47.097  1.00  0.00     0.028 C 
HETATM   18  H7  UNL     1      29.505   9.919  46.182  1.00  0.00     0.160 HD
ENDROOT
BRANCH   2  19
HETATM   19  C2  UNL     1      33.434   5.675  45.715  1.00  0.00     0.080 C 
BRANCH  19  20
HETATM   20  C3  UNL     1      33.947   4.516  46.043  1.00  0.00     0.094 C 
BRANCH  20  21
HETATM   21  C4  UNL     1      34.588   3.284  46.474  1.00  0.00     0.408 C 
HETATM   22  F1  UNL     1      35.408   2.794  45.490  1.00  0.00    -0.167 F 
HETATM   23  F2  UNL     1      35.224   3.365  47.707  1.00  0.00    -0.167 F 
HETATM   24  F3  UNL     1      33.571   2.333  46.686  1.00  0.00    -0.167 F 
ENDBRANCH  20  21
ENDBRANCH  19  20
ENDBRANCH   2  19
TORSDOF 3
ENDMDL
