MODEL 1
REMARK VINA RESULT:      -7.4      0.000      0.000
REMARK  6 active torsions:
REMARK  status: ('A' for Active; 'I' for Inactive)
REMARK    1  A    between atoms: O1_2  and  C2_3 
REMARK    2  A    between atoms: C4_5  and  C5_6 
REMARK    3  A    between atoms: C5_6  and  N1_7 
REMARK    4  A    between atoms: C9_13  and  N4_14 
REMARK    5  A    between atoms: C12_18  and  O2_19 
REMARK    6  A    between atoms: C14_21  and  O3_22 
ROOT
HETATM    1  C5  UNL     1      25.340   0.849  53.381  1.00  0.00     0.168 C 
ENDROOT
BRANCH   1   2
HETATM    2  C4  UNL     1      24.677   1.857  52.515  1.00  0.00    -0.034 A 
HETATM    3  C3  UNL     1      23.455   2.428  52.834  1.00  0.00     0.048 A 
HETATM    4  C2  UNL     1      22.842   3.378  52.010  1.00  0.00     0.104 A 
HETATM    5  C14 UNL     1      23.464   3.762  50.846  1.00  0.00     0.135 A 
HETATM    6  C12 UNL     1      24.677   3.207  50.509  1.00  0.00     0.104 A 
HETATM    7  C11 UNL     1      25.261   2.274  51.339  1.00  0.00     0.048 A 
BRANCH   4   8
HETATM    8  O1  UNL     1      21.626   3.947  52.327  1.00  0.00    -0.353 OA
HETATM    9  C1  UNL     1      20.434   3.198  52.224  1.00  0.00     0.210 C 
ENDBRANCH   4   8
BRANCH   5  10
HETATM   10  O3  UNL     1      22.917   4.709  49.960  1.00  0.00    -0.351 OA
HETATM   11  C15 UNL     1      22.012   4.329  48.944  1.00  0.00     0.210 C 
ENDBRANCH   5  10
BRANCH   6  12
HETATM   12  O2  UNL     1      25.303   3.589  49.344  1.00  0.00    -0.353 OA
HETATM   13  C13 UNL     1      26.452   4.380  49.286  1.00  0.00     0.210 C 
ENDBRANCH   6  12
ENDBRANCH   1   2
BRANCH   1  14
HETATM   14  N1  UNL     1      26.756   1.173  53.520  1.00  0.00    -0.335 N 
HETATM   15  C6  UNL     1      27.394   2.349  53.703  1.00  0.00     0.095 A 
HETATM   16  C7  UNL     1      28.759   2.133  53.774  1.00  0.00     0.054 A 
HETATM   17  C8  UNL     1      28.994   0.771  53.629  1.00  0.00     0.127 A 
HETATM   18  N2  UNL     1      30.076  -0.029  53.611  1.00  0.00    -0.130 NA
HETATM   19  C10 UNL     1      27.738   0.226  53.476  1.00  0.00     0.180 A 
HETATM   20  N3  UNL     1      29.982  -1.347  53.448  1.00  0.00     0.044 NA
HETATM   21  C9  UNL     1      28.767  -1.912  53.296  1.00  0.00     0.740 A 
HETATM   22  N5  UNL     1      27.675  -1.123  53.312  1.00  0.00    -0.041 NA
BRANCH  21  23
HETATM   23  N4  UNL     1      28.566  -3.311  53.117  1.00  0.00    -0.230 N 
HETATM   24  H9  UNL     1      28.639  -4.164  53.697  1.00  0.00     0.174 HD
HETATM   25  H10 UNL     1      28.262  -3.618  52.160  1.00  0.00     0.174 HD
ENDBRANCH  21  23
ENDBRANCH   1  14
TORSDOF 6
ENDMDL
MODEL 2
REMARK VINA RESULT:      -7.3      0.682      2.714
REMARK  6 active torsions:
REMARK  status: ('A' for Active; 'I' for Inactive)
REMARK    1  A    between atoms: O1_2  and  C2_3 
REMARK    2  A    between atoms: C4_5  and  C5_6 
REMARK    3  A    between atoms: C5_6  and  N1_7 
REMARK    4  A    between atoms: C9_13  and  N4_14 
REMARK    5  A    between atoms: C12_18  and  O2_19 
REMARK    6  A    between atoms: C14_21  and  O3_22 
ROOT
HETATM    1  C5  UNL     1      25.148   0.606  52.887  1.00  0.00     0.168 C 
ENDROOT
BRANCH   1   2
HETATM    2  C4  UNL     1      24.419   1.687  52.175  1.00  0.00    -0.034 A 
HETATM    3  C3  UNL     1      24.934   2.324  51.057  1.00  0.00     0.048 A 
HETATM    4  C2  UNL     1      24.237   3.339  50.394  1.00  0.00     0.104 A 
HETATM    5  C14 UNL     1      23.002   3.724  50.861  1.00  0.00     0.135 A 
HETATM    6  C12 UNL     1      22.472   3.106  51.969  1.00  0.00     0.104 A 
HETATM    7  C11 UNL     1      23.179   2.106  52.604  1.00  0.00     0.048 A 
BRANCH   4   8
HETATM    8  O1  UNL     1      24.748   3.974  49.282  1.00  0.00    -0.353 OA
HETATM    9  C1  UNL     1      25.925   4.749  49.374  1.00  0.00     0.210 C 
ENDBRANCH   4   8
BRANCH   5  10
HETATM   10  O3  UNL     1      22.234   4.736  50.255  1.00  0.00    -0.351 OA
HETATM   11  C15 UNL     1      22.406   6.095  50.602  1.00  0.00     0.210 C 
ENDBRANCH   5  10
BRANCH   6  12
HETATM   12  O2  UNL     1      21.236   3.487  52.439  1.00  0.00    -0.353 OA
HETATM   13  C13 UNL     1      20.070   2.731  52.305  1.00  0.00     0.210 C 
ENDBRANCH   6  12
ENDBRANCH   1   2
BRANCH   1  14
HETATM   14  N1  UNL     1      26.509   1.043  53.184  1.00  0.00    -0.335 N 
HETATM   15  C6  UNL     1      27.030   2.269  53.402  1.00  0.00     0.095 A 
HETATM   16  C7  UNL     1      28.389   2.162  53.644  1.00  0.00     0.054 A 
HETATM   17  C8  UNL     1      28.741   0.819  53.575  1.00  0.00     0.127 A 
HETATM   18  N2  UNL     1      29.873   0.105  53.715  1.00  0.00    -0.130 NA
HETATM   19  C10 UNL     1      27.556   0.175  53.291  1.00  0.00     0.180 A 
HETATM   20  N3  UNL     1      29.897  -1.220  53.588  1.00  0.00     0.044 NA
HETATM   21  C9  UNL     1      28.756  -1.881  53.310  1.00  0.00     0.740 A 
HETATM   22  N5  UNL     1      27.614  -1.179  53.168  1.00  0.00    -0.041 NA
BRANCH  21  23
HETATM   23  N4  UNL     1      28.682  -3.295  53.156  1.00  0.00    -0.230 N 
HETATM   24  H9  UNL     1      28.952  -3.991  52.440  1.00  0.00     0.174 HD
HETATM   25  H10 UNL     1      28.245  -3.827  53.949  1.00  0.00     0.174 HD
ENDBRANCH  21  23
ENDBRANCH   1  14
TORSDOF 6
ENDMDL
MODEL 3
REMARK VINA RESULT:      -7.3      2.044      3.396
REMARK  6 active torsions:
REMARK  status: ('A' for Active; 'I' for Inactive)
REMARK    1  A    between atoms: O1_2  and  C2_3 
REMARK    2  A    between atoms: C4_5  and  C5_6 
REMARK    3  A    between atoms: C5_6  and  N1_7 
REMARK    4  A    between atoms: C9_13  and  N4_14 
REMARK    5  A    between atoms: C12_18  and  O2_19 
REMARK    6  A    between atoms: C14_21  and  O3_22 
ROOT
HETATM    1  C5  UNL     1      26.051   1.052  51.359  1.00  0.00     0.168 C 
ENDROOT
BRANCH   1   2
HETATM    2  C4  UNL     1      24.732   0.948  52.034  1.00  0.00    -0.034 A 
HETATM    3  C3  UNL     1      24.410  -0.097  52.885  1.00  0.00     0.048 A 
HETATM    4  C2  UNL     1      23.164  -0.182  53.516  1.00  0.00     0.104 A 
HETATM    5  C14 UNL     1      22.226   0.797  53.290  1.00  0.00     0.135 A 
HETATM    6  C12 UNL     1      22.524   1.842  52.448  1.00  0.00     0.104 A 
HETATM    7  C11 UNL     1      23.760   1.904  51.839  1.00  0.00     0.048 A 
BRANCH   4   8
HETATM    8  O1  UNL     1      22.841  -1.221  54.363  1.00  0.00    -0.353 OA
HETATM    9  C1  UNL     1      23.433  -1.316  55.641  1.00  0.00     0.210 C 
ENDBRANCH   4   8
BRANCH   5  10
HETATM   10  O3  UNL     1      20.949   0.787  53.882  1.00  0.00    -0.351 OA
HETATM   11  C15 UNL     1      19.890   0.028  53.336  1.00  0.00     0.210 C 
ENDBRANCH   5  10
BRANCH   6  12
HETATM   12  O2  UNL     1      21.588   2.825  52.219  1.00  0.00    -0.353 OA
HETATM   13  C13 UNL     1      21.843   4.195  52.295  1.00  0.00     0.210 C 
ENDBRANCH   6  12
ENDBRANCH   1   2
BRANCH   1  14
HETATM   14  N1  UNL     1      27.093   1.303  52.349  1.00  0.00    -0.335 N 
HETATM   15  C6  UNL     1      27.537   2.445  52.915  1.00  0.00     0.095 A 
HETATM   16  C7  UNL     1      28.555   2.159  53.808  1.00  0.00     0.054 A 
HETATM   17  C8  UNL     1      28.765   0.785  53.806  1.00  0.00     0.127 A 
HETATM   18  N2  UNL     1      29.587  -0.070  54.441  1.00  0.00    -0.130 NA
HETATM   19  C10 UNL     1      27.847   0.306  52.898  1.00  0.00     0.180 A 
HETATM   20  N3  UNL     1      29.551  -1.383  54.223  1.00  0.00     0.044 NA
HETATM   21  C9  UNL     1      28.665  -1.885  53.339  1.00  0.00     0.740 A 
HETATM   22  N5  UNL     1      27.835  -1.040  52.698  1.00  0.00    -0.041 NA
BRANCH  21  23
HETATM   23  N4  UNL     1      28.551  -3.273  53.040  1.00  0.00    -0.230 N 
HETATM   24  H9  UNL     1      28.377  -3.852  52.201  1.00  0.00     0.174 HD
HETATM   25  H10 UNL     1      28.664  -3.934  53.848  1.00  0.00     0.174 HD
ENDBRANCH  21  23
ENDBRANCH   1  14
TORSDOF 6
ENDMDL
MODEL 4
REMARK VINA RESULT:      -7.2      2.707      4.604
REMARK  6 active torsions:
REMARK  status: ('A' for Active; 'I' for Inactive)
REMARK    1  A    between atoms: O1_2  and  C2_3 
REMARK    2  A    between atoms: C4_5  and  C5_6 
REMARK    3  A    between atoms: C5_6  and  N1_7 
REMARK    4  A    between atoms: C9_13  and  N4_14 
REMARK    5  A    between atoms: C12_18  and  O2_19 
REMARK    6  A    between atoms: C14_21  and  O3_22 
ROOT
HETATM    1  C5  UNL     1      26.301   2.857  49.758  1.00  0.00     0.168 C 
ENDROOT
BRANCH   1   2
HETATM    2  C4  UNL     1      26.505   4.303  49.484  1.00  0.00    -0.034 A 
HETATM    3  C3  UNL     1      25.657   5.282  49.976  1.00  0.00     0.048 A 
HETATM    4  C2  UNL     1      25.860   6.641  49.712  1.00  0.00     0.104 A 
HETATM    5  C14 UNL     1      26.932   7.024  48.941  1.00  0.00     0.135 A 
HETATM    6  C12 UNL     1      27.786   6.069  48.442  1.00  0.00     0.104 A 
HETATM    7  C11 UNL     1      27.564   4.736  48.718  1.00  0.00     0.048 A 
BRANCH   4   8
HETATM    8  O1  UNL     1      25.018   7.617  50.200  1.00  0.00    -0.353 OA
HETATM    9  C1  UNL     1      23.797   7.269  50.820  1.00  0.00     0.210 C 
ENDBRANCH   4   8
BRANCH   5  10
HETATM   10  O3  UNL     1      27.209   8.368  48.626  1.00  0.00    -0.351 OA
HETATM   11  C15 UNL     1      27.973   9.184  49.491  1.00  0.00     0.210 C 
ENDBRANCH   5  10
BRANCH   6  12
HETATM   12  O2  UNL     1      28.861   6.448  47.670  1.00  0.00    -0.353 OA
HETATM   13  C13 UNL     1      30.185   6.090  47.926  1.00  0.00     0.210 C 
ENDBRANCH   6  12
ENDBRANCH   1   2
BRANCH   1  14
HETATM   14  N1  UNL     1      25.716   2.685  51.084  1.00  0.00    -0.335 N 
HETATM   15  C6  UNL     1      24.457   2.855  51.539  1.00  0.00     0.095 A 
HETATM   16  C7  UNL     1      24.406   2.563  52.891  1.00  0.00     0.054 A 
HETATM   17  C8  UNL     1      25.680   2.195  53.307  1.00  0.00     0.127 A 
HETATM   18  N2  UNL     1      26.248   1.812  54.466  1.00  0.00    -0.130 NA
HETATM   19  C10 UNL     1      26.446   2.286  52.166  1.00  0.00     0.180 A 
HETATM   20  N3  UNL     1      27.542   1.513  54.557  1.00  0.00     0.044 NA
HETATM   21  C9  UNL     1      28.321   1.592  53.459  1.00  0.00     0.740 A 
HETATM   22  N5  UNL     1      27.765   1.974  52.292  1.00  0.00    -0.041 NA
BRANCH  21  23
HETATM   23  N4  UNL     1      29.713   1.292  53.457  1.00  0.00    -0.230 N 
HETATM   24  H9  UNL     1      30.359   0.708  52.898  1.00  0.00     0.174 HD
HETATM   25  H10 UNL     1      30.291   1.760  54.199  1.00  0.00     0.174 HD
ENDBRANCH  21  23
ENDBRANCH   1  14
TORSDOF 6
ENDMDL
MODEL 5
REMARK VINA RESULT:      -7.2      2.740      5.371
REMARK  6 active torsions:
REMARK  status: ('A' for Active; 'I' for Inactive)
REMARK    1  A    between atoms: O1_2  and  C2_3 
REMARK    2  A    between atoms: C4_5  and  C5_6 
REMARK    3  A    between atoms: C5_6  and  N1_7 
REMARK    4  A    between atoms: C9_13  and  N4_14 
REMARK    5  A    between atoms: C12_18  and  O2_19 
REMARK    6  A    between atoms: C14_21  and  O3_22 
ROOT
HETATM    1  C5  UNL     1      26.220   2.903  49.627  1.00  0.00     0.168 C 
ENDROOT
BRANCH   1   2
HETATM    2  C4  UNL     1      26.485   4.346  49.389  1.00  0.00    -0.034 A 
HETATM    3  C3  UNL     1      27.563   4.794  48.642  1.00  0.00     0.048 A 
HETATM    4  C2  UNL     1      27.800   6.155  48.425  1.00  0.00     0.104 A 
HETATM    5  C14 UNL     1      26.942   7.083  48.965  1.00  0.00     0.135 A 
HETATM    6  C12 UNL     1      25.866   6.661  49.710  1.00  0.00     0.104 A 
HETATM    7  C11 UNL     1      25.654   5.313  49.909  1.00  0.00     0.048 A 
BRANCH   4   8
HETATM    8  O1  UNL     1      28.872   6.603  47.682  1.00  0.00    -0.353 OA
HETATM    9  C1  UNL     1      30.180   6.565  48.213  1.00  0.00     0.210 C 
ENDBRANCH   4   8
BRANCH   5  10
HETATM   10  O3  UNL     1      27.108   8.471  48.796  1.00  0.00    -0.351 OA
HETATM   11  C15 UNL     1      27.899   9.231  49.687  1.00  0.00     0.210 C 
ENDBRANCH   5  10
BRANCH   6  12
HETATM   12  O2  UNL     1      25.004   7.587  50.253  1.00  0.00    -0.353 OA
HETATM   13  C13 UNL     1      23.810   7.271  50.902  1.00  0.00     0.210 C 
ENDBRANCH   6  12
ENDBRANCH   1   2
BRANCH   1  14
HETATM   14  N1  UNL     1      25.605   2.725  50.938  1.00  0.00    -0.335 N 
HETATM   15  C6  UNL     1      24.328   2.854  51.356  1.00  0.00     0.095 A 
HETATM   16  C7  UNL     1      24.250   2.576  52.709  1.00  0.00     0.054 A 
HETATM   17  C8  UNL     1      25.524   2.260  53.166  1.00  0.00     0.127 A 
HETATM   18  N2  UNL     1      26.072   1.911  54.344  1.00  0.00    -0.130 NA
HETATM   19  C10 UNL     1      26.318   2.365  52.045  1.00  0.00     0.180 A 
HETATM   20  N3  UNL     1      27.373   1.660  54.475  1.00  0.00     0.044 NA
HETATM   21  C9  UNL     1      28.179   1.755  53.398  1.00  0.00     0.740 A 
HETATM   22  N5  UNL     1      27.643   2.102  52.212  1.00  0.00    -0.041 NA
BRANCH  21  23
HETATM   23  N4  UNL     1      29.581   1.506  53.439  1.00  0.00    -0.230 N 
HETATM   24  H9  UNL     1      30.440   1.968  53.093  1.00  0.00     0.174 HD
HETATM   25  H10 UNL     1      29.884   0.634  53.940  1.00  0.00     0.174 HD
ENDBRANCH  21  23
ENDBRANCH   1  14
TORSDOF 6
ENDMDL
MODEL 6
REMARK VINA RESULT:      -7.0      4.542      7.090
REMARK  6 active torsions:
REMARK  status: ('A' for Active; 'I' for Inactive)
REMARK    1  A    between atoms: O1_2  and  C2_3 
REMARK    2  A    between atoms: C4_5  and  C5_6 
REMARK    3  A    between atoms: C5_6  and  N1_7 
REMARK    4  A    between atoms: C9_13  and  N4_14 
REMARK    5  A    between atoms: C12_18  and  O2_19 
REMARK    6  A    between atoms: C14_21  and  O3_22 
ROOT
HETATM    1  C5  UNL     1      22.761   3.930  52.296  1.00  0.00     0.168 C 
ENDROOT
BRANCH   1   2
HETATM    2  C4  UNL     1      23.598   2.786  52.742  1.00  0.00    -0.034 A 
HETATM    3  C3  UNL     1      24.892   2.947  53.210  1.00  0.00     0.048 A 
HETATM    4  C2  UNL     1      25.670   1.862  53.628  1.00  0.00     0.104 A 
HETATM    5  C14 UNL     1      25.141   0.594  53.574  1.00  0.00     0.135 A 
HETATM    6  C12 UNL     1      23.860   0.411  53.111  1.00  0.00     0.104 A 
HETATM    7  C11 UNL     1      23.113   1.498  52.706  1.00  0.00     0.048 A 
BRANCH   4   8
HETATM    8  O1  UNL     1      26.958   2.020  54.095  1.00  0.00    -0.353 OA
HETATM    9  C1  UNL     1      28.029   2.213  53.196  1.00  0.00     0.210 C 
ENDBRANCH   4   8
BRANCH   5  10
HETATM   10  O3  UNL     1      25.855  -0.552  53.973  1.00  0.00    -0.351 OA
HETATM   11  C15 UNL     1      26.664  -1.268  53.063  1.00  0.00     0.210 C 
ENDBRANCH   5  10
BRANCH   6  12
HETATM   12  O2  UNL     1      23.327  -0.857  53.056  1.00  0.00    -0.353 OA
HETATM   13  C13 UNL     1      22.167  -1.257  53.721  1.00  0.00     0.210 C 
ENDBRANCH   6  12
ENDBRANCH   1   2
BRANCH   1  14
HETATM   14  N1  UNL     1      22.906   4.115  50.856  1.00  0.00    -0.335 N 
HETATM   15  C6  UNL     1      22.324   3.495  49.808  1.00  0.00     0.095 A 
HETATM   16  C7  UNL     1      22.797   4.034  48.624  1.00  0.00     0.054 A 
HETATM   17  C8  UNL     1      23.714   5.032  48.935  1.00  0.00     0.127 A 
HETATM   18  N2  UNL     1      24.485   5.889  48.241  1.00  0.00    -0.130 NA
HETATM   19  C10 UNL     1      23.746   5.043  50.312  1.00  0.00     0.180 A 
HETATM   20  N3  UNL     1      25.292   6.762  48.840  1.00  0.00     0.044 NA
HETATM   21  C9  UNL     1      25.348   6.799  50.186  1.00  0.00     0.740 A 
HETATM   22  N5  UNL     1      24.581   5.947  50.894  1.00  0.00    -0.041 NA
BRANCH  21  23
HETATM   23  N4  UNL     1      26.179   7.697  50.916  1.00  0.00    -0.230 N 
HETATM   24  H9  UNL     1      27.194   7.850  51.045  1.00  0.00     0.174 HD
HETATM   25  H10 UNL     1      25.686   8.419  51.498  1.00  0.00     0.174 HD
ENDBRANCH  21  23
ENDBRANCH   1  14
TORSDOF 6
ENDMDL
MODEL 7
REMARK VINA RESULT:      -7.0      4.562      6.768
REMARK  6 active torsions:
REMARK  status: ('A' for Active; 'I' for Inactive)
REMARK    1  A    between atoms: O1_2  and  C2_3 
REMARK    2  A    between atoms: C4_5  and  C5_6 
REMARK    3  A    between atoms: C5_6  and  N1_7 
REMARK    4  A    between atoms: C9_13  and  N4_14 
REMARK    5  A    between atoms: C12_18  and  O2_19 
REMARK    6  A    between atoms: C14_21  and  O3_22 
ROOT
HETATM    1  C5  UNL     1      22.873   4.098  52.363  1.00  0.00     0.168 C 
ENDROOT
BRANCH   1   2
HETATM    2  C4  UNL     1      23.606   2.871  52.768  1.00  0.00    -0.034 A 
HETATM    3  C3  UNL     1      23.034   1.610  52.719  1.00  0.00     0.048 A 
HETATM    4  C2  UNL     1      23.735   0.461  53.102  1.00  0.00     0.104 A 
HETATM    5  C14 UNL     1      25.033   0.580  53.542  1.00  0.00     0.135 A 
HETATM    6  C12 UNL     1      25.619   1.822  53.600  1.00  0.00     0.104 A 
HETATM    7  C11 UNL     1      24.906   2.939  53.215  1.00  0.00     0.048 A 
BRANCH   4   8
HETATM    8  O1  UNL     1      23.168  -0.795  53.054  1.00  0.00    -0.353 OA
HETATM    9  C1  UNL     1      22.262  -1.212  54.053  1.00  0.00     0.210 C 
ENDBRANCH   4   8
BRANCH   5  10
HETATM   10  O3  UNL     1      25.809  -0.522  53.948  1.00  0.00    -0.351 OA
HETATM   11  C15 UNL     1      26.526  -1.300  53.012  1.00  0.00     0.210 C 
ENDBRANCH   5  10
BRANCH   6  12
HETATM   12  O2  UNL     1      26.918   1.945  54.040  1.00  0.00    -0.353 OA
HETATM   13  C13 UNL     1      28.009   2.228  53.216  1.00  0.00     0.210 C 
ENDBRANCH   6  12
ENDBRANCH   1   2
BRANCH   1  14
HETATM   14  N1  UNL     1      22.979   4.280  50.919  1.00  0.00    -0.335 N 
HETATM   15  C6  UNL     1      22.360   3.666  49.888  1.00  0.00     0.095 A 
HETATM   16  C7  UNL     1      22.806   4.200  48.692  1.00  0.00     0.054 A 
HETATM   17  C8  UNL     1      23.741   5.188  48.974  1.00  0.00     0.127 A 
HETATM   18  N2  UNL     1      24.501   6.036  48.258  1.00  0.00    -0.130 NA
HETATM   19  C10 UNL     1      23.813   5.200  50.350  1.00  0.00     0.180 A 
HETATM   20  N3  UNL     1      25.335   6.901  48.833  1.00  0.00     0.044 NA
HETATM   21  C9  UNL     1      25.429   6.938  50.177  1.00  0.00     0.740 A 
HETATM   22  N5  UNL     1      24.673   6.095  50.907  1.00  0.00    -0.041 NA
BRANCH  21  23
HETATM   23  N4  UNL     1      26.290   7.827  50.882  1.00  0.00    -0.230 N 
HETATM   24  H9  UNL     1      27.081   7.745  51.544  1.00  0.00     0.174 HD
HETATM   25  H10 UNL     1      26.125   8.853  50.730  1.00  0.00     0.174 HD
ENDBRANCH  21  23
ENDBRANCH   1  14
TORSDOF 6
ENDMDL
MODEL 8
REMARK VINA RESULT:      -6.9      2.279      3.944
REMARK  6 active torsions:
REMARK  status: ('A' for Active; 'I' for Inactive)
REMARK    1  A    between atoms: O1_2  and  C2_3 
REMARK    2  A    between atoms: C4_5  and  C5_6 
REMARK    3  A    between atoms: C5_6  and  N1_7 
REMARK    4  A    between atoms: C9_13  and  N4_14 
REMARK    5  A    between atoms: C12_18  and  O2_19 
REMARK    6  A    between atoms: C14_21  and  O3_22 
ROOT
HETATM    1  C5  UNL     1      24.638   1.351  51.590  1.00  0.00     0.168 C 
ENDROOT
BRANCH   1   2
HETATM    2  C4  UNL     1      23.290   1.937  51.805  1.00  0.00    -0.034 A 
HETATM    3  C3  UNL     1      23.068   3.305  51.838  1.00  0.00     0.048 A 
HETATM    4  C2  UNL     1      21.794   3.845  52.041  1.00  0.00     0.104 A 
HETATM    5  C14 UNL     1      20.723   2.999  52.214  1.00  0.00     0.135 A 
HETATM    6  C12 UNL     1      20.921   1.639  52.186  1.00  0.00     0.104 A 
HETATM    7  C11 UNL     1      22.187   1.132  51.983  1.00  0.00     0.048 A 
BRANCH   4   8
HETATM    8  O1  UNL     1      21.571   5.206  52.073  1.00  0.00    -0.353 OA
HETATM    9  C1  UNL     1      21.514   5.953  50.877  1.00  0.00     0.210 C 
ENDBRANCH   4   8
BRANCH   5  10
HETATM   10  O3  UNL     1      19.409   3.459  52.424  1.00  0.00    -0.351 OA
HETATM   11  C15 UNL     1      18.528   3.686  51.343  1.00  0.00     0.210 C 
ENDBRANCH   5  10
BRANCH   6  12
HETATM   12  O2  UNL     1      19.852   0.789  52.358  1.00  0.00    -0.353 OA
HETATM   13  C13 UNL     1      19.822  -0.270  53.266  1.00  0.00     0.210 C 
ENDBRANCH   6  12
ENDBRANCH   1   2
BRANCH   1  14
HETATM   14  N1  UNL     1      25.028   0.571  52.761  1.00  0.00    -0.335 N 
HETATM   15  C6  UNL     1      24.398  -0.416  53.433  1.00  0.00     0.095 A 
HETATM   16  C7  UNL     1      25.188  -0.840  54.487  1.00  0.00     0.054 A 
HETATM   17  C8  UNL     1      26.360  -0.094  54.483  1.00  0.00     0.127 A 
HETATM   18  N2  UNL     1      27.478  -0.043  55.230  1.00  0.00    -0.130 NA
HETATM   19  C10 UNL     1      26.215   0.755  53.409  1.00  0.00     0.180 A 
HETATM   20  N3  UNL     1      28.467   0.811  54.971  1.00  0.00     0.044 NA
HETATM   21  C9  UNL     1      28.356   1.657  53.926  1.00  0.00     0.740 A 
HETATM   22  N5  UNL     1      27.243   1.615  53.169  1.00  0.00    -0.041 NA
BRANCH  21  23
HETATM   23  N4  UNL     1      29.359   2.603  53.570  1.00  0.00    -0.230 N 
HETATM   24  H9  UNL     1      29.508   3.621  53.676  1.00  0.00     0.174 HD
HETATM   25  H10 UNL     1      30.196   2.225  53.060  1.00  0.00     0.174 HD
ENDBRANCH  21  23
ENDBRANCH   1  14
TORSDOF 6
ENDMDL
MODEL 9
REMARK VINA RESULT:      -6.9      1.491      3.543
REMARK  6 active torsions:
REMARK  status: ('A' for Active; 'I' for Inactive)
REMARK    1  A    between atoms: O1_2  and  C2_3 
REMARK    2  A    between atoms: C4_5  and  C5_6 
REMARK    3  A    between atoms: C5_6  and  N1_7 
REMARK    4  A    between atoms: C9_13  and  N4_14 
REMARK    5  A    between atoms: C12_18  and  O2_19 
REMARK    6  A    between atoms: C14_21  and  O3_22 
ROOT
HETATM    1  C5  UNL     1      24.695   2.696  53.442  1.00  0.00     0.168 C 
ENDROOT
BRANCH   1   2
HETATM    2  C4  UNL     1      24.288   3.114  52.076  1.00  0.00    -0.034 A 
HETATM    3  C3  UNL     1      25.193   3.589  51.140  1.00  0.00     0.048 A 
HETATM    4  C2  UNL     1      24.797   3.979  49.856  1.00  0.00     0.104 A 
HETATM    5  C14 UNL     1      23.471   3.890  49.504  1.00  0.00     0.135 A 
HETATM    6  C12 UNL     1      22.556   3.422  50.417  1.00  0.00     0.104 A 
HETATM    7  C11 UNL     1      22.972   3.043  51.676  1.00  0.00     0.048 A 
BRANCH   4   8
HETATM    8  O1  UNL     1      25.697   4.452  48.924  1.00  0.00    -0.353 OA
HETATM    9  C1  UNL     1      27.086   4.300  49.125  1.00  0.00     0.210 C 
ENDBRANCH   4   8
BRANCH   5  10
HETATM   10  O3  UNL     1      22.988   4.261  48.235  1.00  0.00    -0.351 OA
HETATM   11  C15 UNL     1      22.661   5.603  47.936  1.00  0.00     0.210 C 
ENDBRANCH   5  10
BRANCH   6  12
HETATM   12  O2  UNL     1      21.227   3.331  50.068  1.00  0.00    -0.353 OA
HETATM   13  C13 UNL     1      20.226   4.183  50.537  1.00  0.00     0.210 C 
ENDBRANCH   6  12
ENDBRANCH   1   2
BRANCH   1  14
HETATM   14  N1  UNL     1      25.209   1.331  53.406  1.00  0.00    -0.335 N 
HETATM   15  C6  UNL     1      24.614   0.154  53.119  1.00  0.00     0.095 A 
HETATM   16  C7  UNL     1      25.535  -0.873  53.225  1.00  0.00     0.054 A 
HETATM   17  C8  UNL     1      26.758  -0.328  53.595  1.00  0.00     0.127 A 
HETATM   18  N2  UNL     1      27.994  -0.799  53.844  1.00  0.00    -0.130 NA
HETATM   19  C10 UNL     1      26.508   1.023  53.693  1.00  0.00     0.180 A 
HETATM   20  N3  UNL     1      29.002  -0.000  54.191  1.00  0.00     0.044 NA
HETATM   21  C9  UNL     1      28.790   1.327  54.297  1.00  0.00     0.740 A 
HETATM   22  N5  UNL     1      27.558   1.813  54.048  1.00  0.00    -0.041 NA
BRANCH  21  23
HETATM   23  N4  UNL     1      29.804   2.259  54.659  1.00  0.00    -0.230 N 
HETATM   24  H9  UNL     1      30.337   3.014  54.193  1.00  0.00     0.174 HD
HETATM   25  H10 UNL     1      30.141   2.217  55.653  1.00  0.00     0.174 HD
ENDBRANCH  21  23
ENDBRANCH   1  14
TORSDOF 6
ENDMDL
