MODEL 1
REMARK VINA RESULT:      -6.1      0.000      0.000
REMARK  9 active torsions:
REMARK  status: ('A' for Active; 'I' for Inactive)
REMARK    1  A    between atoms: C2_2  and  C3_3 
REMARK    2  A    between atoms: C3_3  and  C4_4 
REMARK    3  A    between atoms: C4_4  and  N1_5 
REMARK       I    between atoms: N1_5  and  C5_6 
REMARK    4  A    between atoms: C5_6  and  C6_8 
REMARK    5  A    between atoms: C9_11  and  N2_12 
REMARK    6  A    between atoms: N2_12  and  C10_13 
REMARK    7  A    between atoms: N2_12  and  C12_16 
REMARK    8  A    between atoms: C10_13  and  C11_14 
REMARK    9  A    between atoms: C12_16  and  C13_17 
ROOT
HETATM    1  C6  UNL     1      25.140   1.075  53.560  1.00  0.00     0.032 A 
HETATM    2  C7  UNL     1      24.093   0.265  53.184  1.00  0.00     0.019 A 
HETATM    3  C8  UNL     1      22.952   0.783  52.612  1.00  0.00     0.030 A 
HETATM    4  C9  UNL     1      22.770   2.123  52.374  1.00  0.00     0.030 A 
HETATM    5  C14 UNL     1      23.818   2.932  52.750  1.00  0.00     0.030 A 
HETATM    6  C15 UNL     1      24.966   2.425  53.324  1.00  0.00     0.019 A 
ENDROOT
BRANCH   1   7
HETATM    7  C5  UNL     1      26.395   0.647  54.163  1.00  0.00     0.251 C 
HETATM    8  N1  UNL     1      27.652   1.279  54.003  1.00  0.00    -0.357 N 
HETATM    9  H10 UNL     1      27.685   2.144  53.387  1.00  0.00     0.162 HD
HETATM   10  O1  UNL     1      26.454  -0.375  54.914  1.00  0.00    -0.268 OA
BRANCH   8  11
HETATM   11  C4  UNL     1      28.836   0.765  54.651  1.00  0.00     0.123 C 
BRANCH  11  12
HETATM   12  C3  UNL     1      29.850   0.205  53.715  1.00  0.00     0.019 C 
BRANCH  12  13
HETATM   13  C2  UNL     1      30.095  -1.266  53.835  1.00  0.00    -0.003 C 
HETATM   14  C1  UNL     1      28.951  -1.975  53.103  1.00  0.00     0.005 C 
ENDBRANCH  12  13
ENDBRANCH  11  12
ENDBRANCH   8  11
ENDBRANCH   1   7
BRANCH   4  15
HETATM   15  N2  UNL     1      21.581   2.623  51.787  1.00  0.00    -0.379 N 
BRANCH  15  16
HETATM   16  C10 UNL     1      20.291   2.604  52.436  1.00  0.00     0.138 C 
BRANCH  16  17
HETATM   17  C11 UNL     1      19.320   1.632  51.777  1.00  0.00     0.134 C 
HETATM   18 CL1  UNL     1      19.493  -0.014  52.415  1.00  0.00    -0.129 Cl
ENDBRANCH  16  17
ENDBRANCH  15  16
BRANCH  15  19
HETATM   19  C12 UNL     1      21.530   3.191  50.465  1.00  0.00     0.138 C 
BRANCH  19  20
HETATM   20  C13 UNL     1      22.292   2.446  49.422  1.00  0.00     0.134 C 
HETATM   21 CL2  UNL     1      21.420   0.938  48.965  1.00  0.00    -0.129 Cl
ENDBRANCH  19  20
ENDBRANCH  15  19
ENDBRANCH   4  15
TORSDOF 9
ENDMDL
MODEL 2
REMARK VINA RESULT:      -6.0      1.669      2.385
REMARK  9 active torsions:
REMARK  status: ('A' for Active; 'I' for Inactive)
REMARK    1  A    between atoms: C2_2  and  C3_3 
REMARK    2  A    between atoms: C3_3  and  C4_4 
REMARK    3  A    between atoms: C4_4  and  N1_5 
REMARK       I    between atoms: N1_5  and  C5_6 
REMARK    4  A    between atoms: C5_6  and  C6_8 
REMARK    5  A    between atoms: C9_11  and  N2_12 
REMARK    6  A    between atoms: N2_12  and  C10_13 
REMARK    7  A    between atoms: N2_12  and  C12_16 
REMARK    8  A    between atoms: C10_13  and  C11_14 
REMARK    9  A    between atoms: C12_16  and  C13_17 
ROOT
HETATM    1  C6  UNL     1      24.582   0.240  53.118  1.00  0.00     0.032 A 
HETATM    2  C7  UNL     1      23.348  -0.324  53.352  1.00  0.00     0.019 A 
HETATM    3  C8  UNL     1      22.239   0.044  52.623  1.00  0.00     0.030 A 
HETATM    4  C9  UNL     1      22.273   0.984  51.622  1.00  0.00     0.030 A 
HETATM    5  C14 UNL     1      23.507   1.546  51.389  1.00  0.00     0.030 A 
HETATM    6  C15 UNL     1      24.626   1.186  52.113  1.00  0.00     0.019 A 
ENDROOT
BRANCH   1   7
HETATM    7  C5  UNL     1      25.824  -0.072  53.813  1.00  0.00     0.251 C 
HETATM    8  N1  UNL     1      26.965   0.763  53.889  1.00  0.00    -0.357 N 
HETATM    9  H10 UNL     1      26.913   1.702  53.395  1.00  0.00     0.162 HD
HETATM   10  O1  UNL     1      25.980  -1.170  54.430  1.00  0.00    -0.268 OA
BRANCH   8  11
HETATM   11  C4  UNL     1      28.148   0.350  54.608  1.00  0.00     0.123 C 
BRANCH  11  12
HETATM   12  C3  UNL     1      29.371   0.251  53.765  1.00  0.00     0.019 C 
BRANCH  12  13
HETATM   13  C2  UNL     1      30.080  -1.066  53.810  1.00  0.00    -0.003 C 
HETATM   14  C1  UNL     1      29.145  -2.103  53.177  1.00  0.00     0.005 C 
ENDBRANCH  12  13
ENDBRANCH  11  12
ENDBRANCH   8  11
ENDBRANCH   1   7
BRANCH   4  15
HETATM   15  N2  UNL     1      21.112   1.342  50.894  1.00  0.00    -0.379 N 
BRANCH  15  16
HETATM   16  C10 UNL     1      20.869   0.960  49.522  1.00  0.00     0.138 C 
BRANCH  16  17
HETATM   17  C11 UNL     1      20.999   2.133  48.558  1.00  0.00     0.134 C 
HETATM   18 CL1  UNL     1      22.647   2.290  47.921  1.00  0.00    -0.129 Cl
ENDBRANCH  16  17
ENDBRANCH  15  16
BRANCH  15  19
HETATM   19  C12 UNL     1      20.050   2.145  51.443  1.00  0.00     0.138 C 
BRANCH  19  20
HETATM   20  C13 UNL     1      20.491   3.294  52.285  1.00  0.00     0.134 C 
HETATM   21 CL2  UNL     1      21.343   4.520  51.278  1.00  0.00    -0.129 Cl
ENDBRANCH  19  20
ENDBRANCH  15  19
ENDBRANCH   4  15
TORSDOF 9
ENDMDL
MODEL 3
REMARK VINA RESULT:      -6.0      2.407      3.580
REMARK  9 active torsions:
REMARK  status: ('A' for Active; 'I' for Inactive)
REMARK    1  A    between atoms: C2_2  and  C3_3 
REMARK    2  A    between atoms: C3_3  and  C4_4 
REMARK    3  A    between atoms: C4_4  and  N1_5 
REMARK       I    between atoms: N1_5  and  C5_6 
REMARK    4  A    between atoms: C5_6  and  C6_8 
REMARK    5  A    between atoms: C9_11  and  N2_12 
REMARK    6  A    between atoms: N2_12  and  C10_13 
REMARK    7  A    between atoms: N2_12  and  C12_16 
REMARK    8  A    between atoms: C10_13  and  C11_14 
REMARK    9  A    between atoms: C12_16  and  C13_17 
ROOT
HETATM    1  C6  UNL     1      23.415  -0.592  54.116  1.00  0.00     0.032 A 
HETATM    2  C7  UNL     1      22.362  -1.133  54.818  1.00  0.00     0.019 A 
HETATM    3  C8  UNL     1      21.071  -1.067  54.342  1.00  0.00     0.030 A 
HETATM    4  C9  UNL     1      20.736  -0.470  53.152  1.00  0.00     0.030 A 
HETATM    5  C14 UNL     1      21.790   0.070  52.452  1.00  0.00     0.030 A 
HETATM    6  C15 UNL     1      23.088   0.011  52.918  1.00  0.00     0.019 A 
ENDROOT
BRANCH   1   7
HETATM    7  C5  UNL     1      24.818  -0.606  54.509  1.00  0.00     0.251 C 
HETATM    8  N1  UNL     1      25.849   0.178  53.937  1.00  0.00    -0.357 N 
HETATM    9  H10 UNL     1      25.576   0.837  53.149  1.00  0.00     0.162 HD
HETATM   10  O1  UNL     1      25.238  -1.361  55.440  1.00  0.00    -0.268 OA
BRANCH   8  11
HETATM   11  C4  UNL     1      27.211   0.082  54.407  1.00  0.00     0.123 C 
BRANCH  11  12
HETATM   12  C3  UNL     1      28.238   0.268  53.345  1.00  0.00     0.019 C 
BRANCH  12  13
HETATM   13  C2  UNL     1      29.600  -0.263  53.664  1.00  0.00    -0.003 C 
HETATM   14  C1  UNL     1      29.572  -1.770  53.387  1.00  0.00     0.005 C 
ENDBRANCH  12  13
ENDBRANCH  11  12
ENDBRANCH   8  11
ENDBRANCH   1   7
BRANCH   4  15
HETATM   15  N2  UNL     1      19.396  -0.417  52.694  1.00  0.00    -0.379 N 
BRANCH  15  16
HETATM   16  C10 UNL     1      18.999   0.148  51.425  1.00  0.00     0.138 C 
BRANCH  16  17
HETATM   17  C11 UNL     1      18.321   1.504  51.576  1.00  0.00     0.134 C 
HETATM   18 CL1  UNL     1      19.486   2.793  51.934  1.00  0.00    -0.129 Cl
ENDBRANCH  16  17
ENDBRANCH  15  16
BRANCH  15  19
HETATM   19  C12 UNL     1      18.279  -0.908  53.457  1.00  0.00     0.138 C 
BRANCH  19  20
HETATM   20  C13 UNL     1      17.401  -1.881  52.745  1.00  0.00     0.134 C 
HETATM   21 CL2  UNL     1      17.357  -3.450  53.627  1.00  0.00    -0.129 Cl
ENDBRANCH  19  20
ENDBRANCH  15  19
ENDBRANCH   4  15
TORSDOF 9
ENDMDL
MODEL 4
REMARK VINA RESULT:      -5.8      2.096      2.582
REMARK  9 active torsions:
REMARK  status: ('A' for Active; 'I' for Inactive)
REMARK    1  A    between atoms: C2_2  and  C3_3 
REMARK    2  A    between atoms: C3_3  and  C4_4 
REMARK    3  A    between atoms: C4_4  and  N1_5 
REMARK       I    between atoms: N1_5  and  C5_6 
REMARK    4  A    between atoms: C5_6  and  C6_8 
REMARK    5  A    between atoms: C9_11  and  N2_12 
REMARK    6  A    between atoms: N2_12  and  C10_13 
REMARK    7  A    between atoms: N2_12  and  C12_16 
REMARK    8  A    between atoms: C10_13  and  C11_14 
REMARK    9  A    between atoms: C12_16  and  C13_17 
ROOT
HETATM    1  C6  UNL     1      25.046   2.206  52.516  1.00  0.00     0.032 A 
HETATM    2  C7  UNL     1      24.121   3.224  52.555  1.00  0.00     0.019 A 
HETATM    3  C8  UNL     1      22.769   2.971  52.490  1.00  0.00     0.030 A 
HETATM    4  C9  UNL     1      22.243   1.706  52.385  1.00  0.00     0.030 A 
HETATM    5  C14 UNL     1      23.169   0.689  52.347  1.00  0.00     0.030 A 
HETATM    6  C15 UNL     1      24.526   0.930  52.411  1.00  0.00     0.019 A 
ENDROOT
BRANCH   1   7
HETATM    7  C5  UNL     1      26.494   2.346  52.586  1.00  0.00     0.251 C 
HETATM    8  N1  UNL     1      27.270   2.381  53.769  1.00  0.00    -0.357 N 
HETATM    9  H10 UNL     1      26.750   2.299  54.692  1.00  0.00     0.162 HD
HETATM   10  O1  UNL     1      27.200   2.451  51.536  1.00  0.00    -0.268 OA
BRANCH   8  11
HETATM   11  C4  UNL     1      28.707   2.524  53.719  1.00  0.00     0.123 C 
BRANCH  11  12
HETATM   12  C3  UNL     1      29.450   1.485  54.483  1.00  0.00     0.019 C 
BRANCH  12  13
HETATM   13  C2  UNL     1      28.824   0.126  54.499  1.00  0.00    -0.003 C 
HETATM   14  C1  UNL     1      29.731  -0.799  53.681  1.00  0.00     0.005 C 
ENDBRANCH  12  13
ENDBRANCH  11  12
ENDBRANCH   8  11
ENDBRANCH   1   7
BRANCH   4  15
HETATM   15  N2  UNL     1      20.846   1.481  52.316  1.00  0.00    -0.379 N 
BRANCH  15  16
HETATM   16  C10 UNL     1      20.244   0.174  52.190  1.00  0.00     0.138 C 
BRANCH  16  17
HETATM   17  C11 UNL     1      19.725  -0.360  53.520  1.00  0.00     0.134 C 
HETATM   18 CL1  UNL     1      20.812  -1.574  54.219  1.00  0.00    -0.129 Cl
ENDBRANCH  16  17
ENDBRANCH  15  16
BRANCH  15  19
HETATM   19  C12 UNL     1      19.871   2.540  52.349  1.00  0.00     0.138 C 
BRANCH  19  20
HETATM   20  C13 UNL     1      19.183   2.811  51.054  1.00  0.00     0.134 C 
HETATM   21 CL2  UNL     1      17.431   3.128  51.329  1.00  0.00    -0.129 Cl
ENDBRANCH  19  20
ENDBRANCH  15  19
ENDBRANCH   4  15
TORSDOF 9
ENDMDL
MODEL 5
REMARK VINA RESULT:      -5.7      1.999      2.900
REMARK  9 active torsions:
REMARK  status: ('A' for Active; 'I' for Inactive)
REMARK    1  A    between atoms: C2_2  and  C3_3 
REMARK    2  A    between atoms: C3_3  and  C4_4 
REMARK    3  A    between atoms: C4_4  and  N1_5 
REMARK       I    between atoms: N1_5  and  C5_6 
REMARK    4  A    between atoms: C5_6  and  C6_8 
REMARK    5  A    between atoms: C9_11  and  N2_12 
REMARK    6  A    between atoms: N2_12  and  C10_13 
REMARK    7  A    between atoms: N2_12  and  C12_16 
REMARK    8  A    between atoms: C10_13  and  C11_14 
REMARK    9  A    between atoms: C12_16  and  C13_17 
ROOT
HETATM    1  C6  UNL     1      25.124   1.859  52.479  1.00  0.00     0.032 A 
HETATM    2  C7  UNL     1      24.140   2.764  52.151  1.00  0.00     0.019 A 
HETATM    3  C8  UNL     1      22.818   2.388  52.062  1.00  0.00     0.030 A 
HETATM    4  C9  UNL     1      22.382   1.106  52.287  1.00  0.00     0.030 A 
HETATM    5  C14 UNL     1      23.367   0.202  52.615  1.00  0.00     0.030 A 
HETATM    6  C15 UNL     1      24.695   0.566  52.708  1.00  0.00     0.019 A 
ENDROOT
BRANCH   1   7
HETATM    7  C5  UNL     1      26.548   2.135  52.613  1.00  0.00     0.251 C 
HETATM    8  N1  UNL     1      27.264   2.234  53.830  1.00  0.00    -0.357 N 
HETATM    9  H10 UNL     1      26.715   2.093  54.729  1.00  0.00     0.162 HD
HETATM   10  O1  UNL     1      27.286   2.317  51.596  1.00  0.00    -0.268 OA
BRANCH   8  11
HETATM   11  C4  UNL     1      28.681   2.513  53.845  1.00  0.00     0.123 C 
BRANCH  11  12
HETATM   12  C3  UNL     1      29.529   1.350  54.226  1.00  0.00     0.019 C 
BRANCH  12  13
HETATM   13  C2  UNL     1      28.785   0.110  54.610  1.00  0.00    -0.003 C 
HETATM   14  C1  UNL     1      29.123  -0.960  53.566  1.00  0.00     0.005 C 
ENDBRANCH  12  13
ENDBRANCH  11  12
ENDBRANCH   8  11
ENDBRANCH   1   7
BRANCH   4  15
HETATM   15  N2  UNL     1      21.014   0.753  52.182  1.00  0.00    -0.379 N 
BRANCH  15  16
HETATM   16  C10 UNL     1      20.316   0.591  50.927  1.00  0.00     0.138 C 
BRANCH  16  17
HETATM   17  C11 UNL     1      18.934   1.233  50.942  1.00  0.00     0.134 C 
HETATM   18 CL1  UNL     1      17.644   0.038  50.708  1.00  0.00    -0.129 Cl
ENDBRANCH  16  17
ENDBRANCH  15  16
BRANCH  15  19
HETATM   19  C12 UNL     1      20.164   0.532  53.323  1.00  0.00     0.138 C 
BRANCH  19  20
HETATM   20  C13 UNL     1      19.870  -0.898  53.630  1.00  0.00     0.134 C 
HETATM   21 CL2  UNL     1      21.205  -1.617  54.603  1.00  0.00    -0.129 Cl
ENDBRANCH  19  20
ENDBRANCH  15  19
ENDBRANCH   4  15
TORSDOF 9
ENDMDL
MODEL 6
REMARK VINA RESULT:      -5.7      2.463      3.299
REMARK  9 active torsions:
REMARK  status: ('A' for Active; 'I' for Inactive)
REMARK    1  A    between atoms: C2_2  and  C3_3 
REMARK    2  A    between atoms: C3_3  and  C4_4 
REMARK    3  A    between atoms: C4_4  and  N1_5 
REMARK       I    between atoms: N1_5  and  C5_6 
REMARK    4  A    between atoms: C5_6  and  C6_8 
REMARK    5  A    between atoms: C9_11  and  N2_12 
REMARK    6  A    between atoms: N2_12  and  C10_13 
REMARK    7  A    between atoms: N2_12  and  C12_16 
REMARK    8  A    between atoms: C10_13  and  C11_14 
REMARK    9  A    between atoms: C12_16  and  C13_17 
ROOT
HETATM    1  C6  UNL     1      23.377  -0.619  53.914  1.00  0.00     0.032 A 
HETATM    2  C7  UNL     1      22.364  -1.071  54.728  1.00  0.00     0.019 A 
HETATM    3  C8  UNL     1      21.045  -1.019  54.333  1.00  0.00     0.030 A 
HETATM    4  C9  UNL     1      20.642  -0.521  53.118  1.00  0.00     0.030 A 
HETATM    5  C14 UNL     1      21.656  -0.070  52.305  1.00  0.00     0.030 A 
HETATM    6  C15 UNL     1      22.980  -0.117  52.689  1.00  0.00     0.019 A 
ENDROOT
BRANCH   1   7
HETATM    7  C5  UNL     1      24.802  -0.630  54.214  1.00  0.00     0.251 C 
HETATM    8  N1  UNL     1      25.835  -0.178  53.358  1.00  0.00    -0.357 N 
HETATM    9  H10 UNL     1      25.546   0.204  52.410  1.00  0.00     0.162 HD
HETATM   10  O1  UNL     1      25.242  -1.068  55.322  1.00  0.00    -0.268 OA
BRANCH   8  11
HETATM   11  C4  UNL     1      27.221  -0.236  53.762  1.00  0.00     0.123 C 
BRANCH  11  12
HETATM   12  C3  UNL     1      27.987  -1.358  53.152  1.00  0.00     0.019 C 
BRANCH  12  13
HETATM   13  C2  UNL     1      29.463  -1.339  53.398  1.00  0.00    -0.003 C 
HETATM   14  C1  UNL     1      29.868   0.125  53.600  1.00  0.00     0.005 C 
ENDBRANCH  12  13
ENDBRANCH  11  12
ENDBRANCH   8  11
ENDBRANCH   1   7
BRANCH   4  15
HETATM   15  N2  UNL     1      19.276  -0.479  52.745  1.00  0.00    -0.379 N 
BRANCH  15  16
HETATM   16  C10 UNL     1      18.214  -1.109  53.495  1.00  0.00     0.138 C 
BRANCH  16  17
HETATM   17  C11 UNL     1      17.166  -1.752  52.595  1.00  0.00     0.134 C 
HETATM   18 CL1  UNL     1      16.664  -3.345  53.192  1.00  0.00    -0.129 Cl
ENDBRANCH  16  17
ENDBRANCH  15  16
BRANCH  15  19
HETATM   19  C12 UNL     1      18.799   0.189  51.562  1.00  0.00     0.138 C 
BRANCH  19  20
HETATM   20  C13 UNL     1      18.202   1.537  51.788  1.00  0.00     0.134 C 
HETATM   21 CL2  UNL     1      19.497   2.757  52.068  1.00  0.00    -0.129 Cl
ENDBRANCH  19  20
ENDBRANCH  15  19
ENDBRANCH   4  15
TORSDOF 9
ENDMDL
MODEL 7
REMARK VINA RESULT:      -5.6      4.976      6.353
REMARK  9 active torsions:
REMARK  status: ('A' for Active; 'I' for Inactive)
REMARK    1  A    between atoms: C2_2  and  C3_3 
REMARK    2  A    between atoms: C3_3  and  C4_4 
REMARK    3  A    between atoms: C4_4  and  N1_5 
REMARK       I    between atoms: N1_5  and  C5_6 
REMARK    4  A    between atoms: C5_6  and  C6_8 
REMARK    5  A    between atoms: C9_11  and  N2_12 
REMARK    6  A    between atoms: N2_12  and  C10_13 
REMARK    7  A    between atoms: N2_12  and  C12_16 
REMARK    8  A    between atoms: C10_13  and  C11_14 
REMARK    9  A    between atoms: C12_16  and  C13_17 
ROOT
HETATM    1  C6  UNL     1      25.428   3.963  50.321  1.00  0.00     0.032 A 
HETATM    2  C7  UNL     1      24.183   3.762  50.874  1.00  0.00     0.019 A 
HETATM    3  C8  UNL     1      23.924   2.682  51.688  1.00  0.00     0.030 A 
HETATM    4  C9  UNL     1      24.867   1.736  52.008  1.00  0.00     0.030 A 
HETATM    5  C14 UNL     1      26.110   1.938  51.454  1.00  0.00     0.030 A 
HETATM    6  C15 UNL     1      26.383   3.017  50.637  1.00  0.00     0.019 A 
ENDROOT
BRANCH   1   7
HETATM    7  C5  UNL     1      25.825   5.066  49.456  1.00  0.00     0.251 C 
HETATM    8  N1  UNL     1      27.102   5.676  49.422  1.00  0.00    -0.357 N 
HETATM    9  H10 UNL     1      27.839   5.296  50.086  1.00  0.00     0.162 HD
HETATM   10  O1  UNL     1      25.013   5.586  48.631  1.00  0.00    -0.268 OA
BRANCH   8  11
HETATM   11  C4  UNL     1      27.386   6.769  48.520  1.00  0.00     0.123 C 
BRANCH  11  12
HETATM   12  C3  UNL     1      28.666   6.625  47.772  1.00  0.00     0.019 C 
BRANCH  12  13
HETATM   13  C2  UNL     1      29.498   5.438  48.141  1.00  0.00    -0.003 C 
HETATM   14  C1  UNL     1      30.833   5.971  48.672  1.00  0.00     0.005 C 
ENDBRANCH  12  13
ENDBRANCH  11  12
ENDBRANCH   8  11
ENDBRANCH   1   7
BRANCH   4  15
HETATM   15  N2  UNL     1      24.565   0.634  52.846  1.00  0.00    -0.379 N 
BRANCH  15  16
HETATM   16  C10 UNL     1      25.526  -0.372  53.234  1.00  0.00     0.138 C 
BRANCH  16  17
HETATM   17  C11 UNL     1      26.090  -0.132  54.629  1.00  0.00     0.134 C 
HETATM   18 CL1  UNL     1      27.806   0.315  54.585  1.00  0.00    -0.129 Cl
ENDBRANCH  16  17
ENDBRANCH  15  16
BRANCH  15  19
HETATM   19  C12 UNL     1      23.254   0.389  53.390  1.00  0.00     0.138 C 
BRANCH  19  20
HETATM   20  C13 UNL     1      22.729  -0.992  53.186  1.00  0.00     0.134 C 
HETATM   21 CL2  UNL     1      21.783  -1.523  54.624  1.00  0.00    -0.129 Cl
ENDBRANCH  19  20
ENDBRANCH  15  19
ENDBRANCH   4  15
TORSDOF 9
ENDMDL
MODEL 8
REMARK VINA RESULT:      -5.6      4.316      7.692
REMARK  9 active torsions:
REMARK  status: ('A' for Active; 'I' for Inactive)
REMARK    1  A    between atoms: C2_2  and  C3_3 
REMARK    2  A    between atoms: C3_3  and  C4_4 
REMARK    3  A    between atoms: C4_4  and  N1_5 
REMARK       I    between atoms: N1_5  and  C5_6 
REMARK    4  A    between atoms: C5_6  and  C6_8 
REMARK    5  A    between atoms: C9_11  and  N2_12 
REMARK    6  A    between atoms: N2_12  and  C10_13 
REMARK    7  A    between atoms: N2_12  and  C12_16 
REMARK    8  A    between atoms: C10_13  and  C11_14 
REMARK    9  A    between atoms: C12_16  and  C13_17 
ROOT
HETATM    1  C6  UNL     1      21.403   0.066  52.680  1.00  0.00     0.032 A 
HETATM    2  C7  UNL     1      21.959   0.974  51.807  1.00  0.00     0.019 A 
HETATM    3  C8  UNL     1      23.307   1.256  51.824  1.00  0.00     0.030 A 
HETATM    4  C9  UNL     1      24.190   0.666  52.696  1.00  0.00     0.030 A 
HETATM    5  C14 UNL     1      23.633  -0.241  53.568  1.00  0.00     0.030 A 
HETATM    6  C15 UNL     1      22.284  -0.532  53.561  1.00  0.00     0.019 A 
ENDROOT
BRANCH   1   7
HETATM    7  C5  UNL     1      20.001  -0.321  52.754  1.00  0.00     0.251 C 
HETATM    8  N1  UNL     1      19.444  -1.257  53.658  1.00  0.00    -0.357 N 
HETATM    9  H10 UNL     1      20.107  -1.720  54.347  1.00  0.00     0.162 HD
HETATM   10  O1  UNL     1      19.135   0.178  51.971  1.00  0.00    -0.268 OA
BRANCH   8  11
HETATM   11  C4  UNL     1      18.033  -1.566  53.641  1.00  0.00     0.123 C 
BRANCH  11  12
HETATM   12  C3  UNL     1      17.721  -3.007  53.850  1.00  0.00     0.019 C 
BRANCH  12  13
HETATM   13  C2  UNL     1      16.489  -3.506  53.163  1.00  0.00    -0.003 C 
HETATM   14  C1  UNL     1      16.324  -4.980  53.547  1.00  0.00     0.005 C 
ENDBRANCH  12  13
ENDBRANCH  11  12
ENDBRANCH   8  11
ENDBRANCH   1   7
BRANCH   4  15
HETATM   15  N2  UNL     1      25.571   0.983  52.688  1.00  0.00    -0.379 N 
BRANCH  15  16
HETATM   16  C10 UNL     1      26.616   0.040  53.012  1.00  0.00     0.138 C 
BRANCH  16  17
HETATM   17  C11 UNL     1      27.388   0.432  54.266  1.00  0.00     0.134 C 
HETATM   18 CL1  UNL     1      28.967  -0.370  54.353  1.00  0.00    -0.129 Cl
ENDBRANCH  16  17
ENDBRANCH  15  16
BRANCH  15  19
HETATM   19  C12 UNL     1      26.081   2.291  52.372  1.00  0.00     0.138 C 
BRANCH  19  20
HETATM   20  C13 UNL     1      26.670   2.432  51.009  1.00  0.00     0.134 C 
HETATM   21 CL2  UNL     1      25.859   3.765  50.109  1.00  0.00    -0.129 Cl
ENDBRANCH  19  20
ENDBRANCH  15  19
ENDBRANCH   4  15
TORSDOF 9
ENDMDL
MODEL 9
REMARK VINA RESULT:      -5.6      1.648      2.859
REMARK  9 active torsions:
REMARK  status: ('A' for Active; 'I' for Inactive)
REMARK    1  A    between atoms: C2_2  and  C3_3 
REMARK    2  A    between atoms: C3_3  and  C4_4 
REMARK    3  A    between atoms: C4_4  and  N1_5 
REMARK       I    between atoms: N1_5  and  C5_6 
REMARK    4  A    between atoms: C5_6  and  C6_8 
REMARK    5  A    between atoms: C9_11  and  N2_12 
REMARK    6  A    between atoms: N2_12  and  C10_13 
REMARK    7  A    between atoms: N2_12  and  C12_16 
REMARK    8  A    between atoms: C10_13  and  C11_14 
REMARK    9  A    between atoms: C12_16  and  C13_17 
ROOT
HETATM    1  C6  UNL     1      24.900   0.086  52.928  1.00  0.00     0.032 A 
HETATM    2  C7  UNL     1      24.893   1.093  51.990  1.00  0.00     0.019 A 
HETATM    3  C8  UNL     1      23.730   1.740  51.638  1.00  0.00     0.030 A 
HETATM    4  C9  UNL     1      22.505   1.440  52.183  1.00  0.00     0.030 A 
HETATM    5  C14 UNL     1      22.514   0.433  53.120  1.00  0.00     0.030 A 
HETATM    6  C15 UNL     1      23.673  -0.223  53.482  1.00  0.00     0.019 A 
ENDROOT
BRANCH   1   7
HETATM    7  C5  UNL     1      26.061  -0.664  53.388  1.00  0.00     0.251 C 
HETATM    8  N1  UNL     1      27.210  -0.971  52.621  1.00  0.00    -0.357 N 
HETATM    9  H10 UNL     1      27.229  -0.623  51.617  1.00  0.00     0.162 HD
HETATM   10  O1  UNL     1      26.128  -1.119  54.572  1.00  0.00    -0.268 OA
BRANCH   8  11
HETATM   11  C4  UNL     1      28.307  -1.724  53.183  1.00  0.00     0.123 C 
BRANCH  11  12
HETATM   12  C3  UNL     1      29.447  -0.887  53.649  1.00  0.00     0.019 C 
BRANCH  12  13
HETATM   13  C2  UNL     1      29.358   0.568  53.311  1.00  0.00    -0.003 C 
HETATM   14  C1  UNL     1      29.105   1.320  54.622  1.00  0.00     0.005 C 
ENDBRANCH  12  13
ENDBRANCH  11  12
ENDBRANCH   8  11
ENDBRANCH   1   7
BRANCH   4  15
HETATM   15  N2  UNL     1      21.327   2.124  51.794  1.00  0.00    -0.379 N 
BRANCH  15  16
HETATM   16  C10 UNL     1      21.304   3.229  50.864  1.00  0.00     0.138 C 
BRANCH  16  17
HETATM   17  C11 UNL     1      21.213   4.579  51.565  1.00  0.00     0.134 C 
HETATM   18 CL1  UNL     1      22.812   5.291  51.847  1.00  0.00    -0.129 Cl
ENDBRANCH  16  17
ENDBRANCH  15  16
BRANCH  15  19
HETATM   19  C12 UNL     1      20.019   1.797  52.301  1.00  0.00     0.138 C 
BRANCH  19  20
HETATM   20  C13 UNL     1      19.225   0.859  51.456  1.00  0.00     0.134 C 
HETATM   21 CL2  UNL     1      18.617  -0.516  52.447  1.00  0.00    -0.129 Cl
ENDBRANCH  19  20
ENDBRANCH  15  19
ENDBRANCH   4  15
TORSDOF 9
ENDMDL
