MODEL 1
REMARK VINA RESULT:      -6.7      0.000      0.000
REMARK  6 active torsions:
REMARK  status: ('A' for Active; 'I' for Inactive)
REMARK    1  A    between atoms: N1_2  and  C2_3 
REMARK    2  A    between atoms: C2_3  and  N3_14 
REMARK    3  A    between atoms: C3_4  and  O1_5 
REMARK    4  A    between atoms: O1_5  and  C4_6 
REMARK    5  A    between atoms: C8_11  and  O2_12 
REMARK    6  A    between atoms: N3_14  and  C10_15 
ROOT
HETATM    1  C2  UNL     1      25.271   2.111  51.612  1.00  0.00     0.148 C 
HETATM    2  C3  UNL     1      26.234   1.196  51.802  1.00  0.00     0.187 C 
ENDROOT
BRANCH   1   3
HETATM    3  N1  UNL     1      24.460   2.441  52.747  1.00  0.00    -0.252 NA
HETATM    4  C1  UNL     1      23.287   2.916  52.498  1.00  0.00     0.151 C 
ENDBRANCH   1   3
BRANCH   1   5
HETATM    5  N3  UNL     1      24.972   2.787  50.397  1.00  0.00    -0.339 N 
HETATM    6  H12 UNL     1      24.187   2.225  49.974  1.00  0.00     0.167 HD
BRANCH   5   7
HETATM    7  C10 UNL     1      25.500   3.941  49.765  1.00  0.00     0.035 A 
HETATM    8  C11 UNL     1      24.639   5.029  49.578  1.00  0.00     0.029 A 
HETATM    9  C12 UNL     1      25.223   6.111  48.959  1.00  0.00     0.004 A 
HETATM   10  C13 UNL     1      26.541   6.158  48.545  1.00  0.00     0.024 A 
HETATM   11  C14 UNL     1      27.325   5.050  48.764  1.00  0.00     0.036 A 
HETATM   12 CL1  UNL     1      28.983   5.170  48.217  1.00  0.00    -0.084 Cl
HETATM   13  C15 UNL     1      26.816   3.930  49.375  1.00  0.00     0.053 A 
ENDBRANCH   5   7
ENDBRANCH   1   5
BRANCH   2  14
HETATM   14  O1  UNL     1      25.875   1.060  53.138  1.00  0.00    -0.336 OA
BRANCH  14  15
HETATM   15  C4  UNL     1      26.488   0.040  53.866  1.00  0.00     0.146 A 
HETATM   16  C5  UNL     1      25.766  -0.164  55.172  1.00  0.00     0.060 C 
HETATM   17  C6  UNL     1      26.451  -1.290  53.166  1.00  0.00     0.134 A 
HETATM   18  N2  UNL     1      27.638  -1.799  52.954  1.00  0.00    -0.271 NA
HETATM   19  C7  UNL     1      28.583  -0.854  53.494  1.00  0.00     0.151 A 
HETATM   20  C8  UNL     1      27.955   0.191  54.014  1.00  0.00     0.103 A 
BRANCH  20  21
HETATM   21  O2  UNL     1      28.699   1.236  54.597  1.00  0.00    -0.355 OA
HETATM   22  C9  UNL     1      29.002   2.418  53.901  1.00  0.00     0.209 C 
ENDBRANCH  20  21
ENDBRANCH  14  15
ENDBRANCH   2  14
TORSDOF 6
ENDMDL
MODEL 2
REMARK VINA RESULT:      -6.6      1.476      2.586
REMARK  6 active torsions:
REMARK  status: ('A' for Active; 'I' for Inactive)
REMARK    1  A    between atoms: N1_2  and  C2_3 
REMARK    2  A    between atoms: C2_3  and  N3_14 
REMARK    3  A    between atoms: C3_4  and  O1_5 
REMARK    4  A    between atoms: O1_5  and  C4_6 
REMARK    5  A    between atoms: C8_11  and  O2_12 
REMARK    6  A    between atoms: N3_14  and  C10_15 
ROOT
HETATM    1  C2  UNL     1      25.327   2.535  51.320  1.00  0.00     0.148 C 
HETATM    2  C3  UNL     1      26.298   1.626  51.499  1.00  0.00     0.187 C 
ENDROOT
BRANCH   1   3
HETATM    3  N1  UNL     1      24.458   2.781  52.433  1.00  0.00    -0.252 NA
HETATM    4  C1  UNL     1      23.294   3.265  52.159  1.00  0.00     0.151 C 
ENDBRANCH   1   3
BRANCH   1   5
HETATM    5  N3  UNL     1      25.071   3.281  50.135  1.00  0.00    -0.339 N 
HETATM    6  H12 UNL     1      24.208   2.833  49.730  1.00  0.00     0.167 HD
BRANCH   5   7
HETATM    7  C10 UNL     1      25.717   4.379  49.514  1.00  0.00     0.035 A 
HETATM    8  C11 UNL     1      24.957   5.532  49.285  1.00  0.00     0.029 A 
HETATM    9  C12 UNL     1      25.652   6.554  48.679  1.00  0.00     0.004 A 
HETATM   10  C13 UNL     1      26.983   6.486  48.313  1.00  0.00     0.024 A 
HETATM   11  C14 UNL     1      27.663   5.319  48.571  1.00  0.00     0.036 A 
HETATM   12 CL1  UNL     1      29.344   5.295  48.086  1.00  0.00    -0.084 Cl
HETATM   13  C15 UNL     1      27.040   4.253  49.173  1.00  0.00     0.053 A 
ENDBRANCH   5   7
ENDBRANCH   1   5
BRANCH   2  14
HETATM   14  O1  UNL     1      25.879   1.402  52.805  1.00  0.00    -0.336 OA
BRANCH  14  15
HETATM   15  C4  UNL     1      26.022   0.110  53.311  1.00  0.00     0.146 A 
HETATM   16  C5  UNL     1      26.770  -0.749  52.325  1.00  0.00     0.060 C 
HETATM   17  C6  UNL     1      26.820   0.058  54.585  1.00  0.00     0.134 A 
HETATM   18  N2  UNL     1      26.163  -0.467  55.588  1.00  0.00    -0.271 NA
HETATM   19  C7  UNL     1      24.862  -0.817  55.079  1.00  0.00     0.151 A 
HETATM   20  C8  UNL     1      24.761  -0.500  53.796  1.00  0.00     0.103 A 
BRANCH  20  21
HETATM   21  O2  UNL     1      23.562  -0.761  53.102  1.00  0.00    -0.355 OA
HETATM   22  C9  UNL     1      22.316  -0.305  53.563  1.00  0.00     0.209 C 
ENDBRANCH  20  21
ENDBRANCH  14  15
ENDBRANCH   2  14
TORSDOF 6
ENDMDL
MODEL 3
REMARK VINA RESULT:      -6.4      1.836      2.811
REMARK  6 active torsions:
REMARK  status: ('A' for Active; 'I' for Inactive)
REMARK    1  A    between atoms: N1_2  and  C2_3 
REMARK    2  A    between atoms: C2_3  and  N3_14 
REMARK    3  A    between atoms: C3_4  and  O1_5 
REMARK    4  A    between atoms: O1_5  and  C4_6 
REMARK    5  A    between atoms: C8_11  and  O2_12 
REMARK    6  A    between atoms: N3_14  and  C10_15 
ROOT
HETATM    1  C2  UNL     1      25.221   2.369  51.303  1.00  0.00     0.148 C 
HETATM    2  C3  UNL     1      26.378   1.841  51.729  1.00  0.00     0.187 C 
ENDROOT
BRANCH   1   3
HETATM    3  N1  UNL     1      24.069   1.516  51.339  1.00  0.00    -0.252 NA
HETATM    4  C1  UNL     1      22.945   2.052  51.000  1.00  0.00     0.151 C 
ENDBRANCH   1   3
BRANCH   1   5
HETATM    5  N3  UNL     1      25.020   3.692  50.818  1.00  0.00    -0.339 N 
HETATM    6  H12 UNL     1      24.068   3.958  51.183  1.00  0.00     0.167 HD
BRANCH   5   7
HETATM    7  C10 UNL     1      25.802   4.573  50.031  1.00  0.00     0.035 A 
HETATM    8  C11 UNL     1      26.871   4.025  49.314  1.00  0.00     0.029 A 
HETATM    9  C12 UNL     1      27.584   4.941  48.574  1.00  0.00     0.004 A 
HETATM   10  C13 UNL     1      27.299   6.293  48.519  1.00  0.00     0.024 A 
HETATM   11  C14 UNL     1      26.232   6.757  49.251  1.00  0.00     0.036 A 
HETATM   12 CL1  UNL     1      25.923   8.475  49.141  1.00  0.00    -0.084 Cl
HETATM   13  C15 UNL     1      25.472   5.905  50.016  1.00  0.00     0.053 A 
ENDBRANCH   5   7
ENDBRANCH   1   5
BRANCH   2  14
HETATM   14  O1  UNL     1      25.753   0.629  51.999  1.00  0.00    -0.336 OA
BRANCH  14  15
HETATM   15  C4  UNL     1      26.325  -0.182  52.980  1.00  0.00     0.146 A 
HETATM   16  C5  UNL     1      26.758  -1.492  52.375  1.00  0.00     0.060 C 
HETATM   17  C6  UNL     1      27.561   0.414  53.594  1.00  0.00     0.134 A 
HETATM   18  N2  UNL     1      27.474   0.572  54.890  1.00  0.00    -0.271 NA
HETATM   19  C7  UNL     1      26.167   0.096  55.266  1.00  0.00     0.151 A 
HETATM   20  C8  UNL     1      25.502  -0.335  54.204  1.00  0.00     0.103 A 
BRANCH  20  21
HETATM   21  O2  UNL     1      24.197  -0.844  54.354  1.00  0.00    -0.355 OA
HETATM   22  C9  UNL     1      23.725  -1.346  55.578  1.00  0.00     0.209 C 
ENDBRANCH  20  21
ENDBRANCH  14  15
ENDBRANCH   2  14
TORSDOF 6
ENDMDL
MODEL 4
REMARK VINA RESULT:      -6.4      3.206      4.099
REMARK  6 active torsions:
REMARK  status: ('A' for Active; 'I' for Inactive)
REMARK    1  A    between atoms: N1_2  and  C2_3 
REMARK    2  A    between atoms: C2_3  and  N3_14 
REMARK    3  A    between atoms: C3_4  and  O1_5 
REMARK    4  A    between atoms: O1_5  and  C4_6 
REMARK    5  A    between atoms: C8_11  and  O2_12 
REMARK    6  A    between atoms: N3_14  and  C10_15 
ROOT
HETATM    1  C2  UNL     1      25.038   1.712  51.583  1.00  0.00     0.148 C 
HETATM    2  C3  UNL     1      24.920   0.635  52.375  1.00  0.00     0.187 C 
ENDROOT
BRANCH   1   3
HETATM    3  N1  UNL     1      26.369   2.130  51.253  1.00  0.00    -0.252 NA
HETATM    4  C1  UNL     1      26.477   3.068  50.375  1.00  0.00     0.151 C 
ENDBRANCH   1   3
BRANCH   1   5
HETATM    5  N3  UNL     1      23.974   2.482  51.035  1.00  0.00    -0.339 N 
HETATM    6  H12 UNL     1      24.195   3.470  51.327  1.00  0.00     0.167 HD
BRANCH   5   7
HETATM    7  C10 UNL     1      22.829   2.159  50.266  1.00  0.00     0.035 A 
HETATM    8  C11 UNL     1      22.861   2.458  48.899  1.00  0.00     0.029 A 
HETATM    9  C12 UNL     1      21.713   2.116  48.219  1.00  0.00     0.004 A 
HETATM   10  C13 UNL     1      20.606   1.526  48.800  1.00  0.00     0.024 A 
HETATM   11  C14 UNL     1      20.651   1.262  50.149  1.00  0.00     0.036 A 
HETATM   12 CL1  UNL     1      19.220   0.516  50.826  1.00  0.00    -0.084 Cl
HETATM   13  C15 UNL     1      21.759   1.575  50.898  1.00  0.00     0.053 A 
ENDBRANCH   5   7
ENDBRANCH   1   5
BRANCH   2  14
HETATM   14  O1  UNL     1      26.302   0.506  52.445  1.00  0.00    -0.336 OA
BRANCH  14  15
HETATM   15  C4  UNL     1      26.819  -0.308  53.453  1.00  0.00     0.146 A 
HETATM   16  C5  UNL     1      25.790  -0.501  54.537  1.00  0.00     0.060 C 
HETATM   17  C6  UNL     1      27.173  -1.689  52.975  1.00  0.00     0.134 A 
HETATM   18  N2  UNL     1      28.431  -1.998  53.163  1.00  0.00    -0.271 NA
HETATM   19  C7  UNL     1      29.038  -0.850  53.788  1.00  0.00     0.151 A 
HETATM   20  C8  UNL     1      28.146   0.115  53.961  1.00  0.00     0.103 A 
BRANCH  20  21
HETATM   21  O2  UNL     1      28.536   1.330  54.558  1.00  0.00    -0.355 OA
HETATM   22  C9  UNL     1      28.831   2.476  53.801  1.00  0.00     0.209 C 
ENDBRANCH  20  21
ENDBRANCH  14  15
ENDBRANCH   2  14
TORSDOF 6
ENDMDL
MODEL 5
REMARK VINA RESULT:      -6.3      3.307      6.756
REMARK  6 active torsions:
REMARK  status: ('A' for Active; 'I' for Inactive)
REMARK    1  A    between atoms: N1_2  and  C2_3 
REMARK    2  A    between atoms: C2_3  and  N3_14 
REMARK    3  A    between atoms: C3_4  and  O1_5 
REMARK    4  A    between atoms: O1_5  and  C4_6 
REMARK    5  A    between atoms: C8_11  and  O2_12 
REMARK    6  A    between atoms: N3_14  and  C10_15 
ROOT
HETATM    1  C2  UNL     1      25.188   2.848  51.585  1.00  0.00     0.148 C 
HETATM    2  C3  UNL     1      24.005   2.744  52.211  1.00  0.00     0.187 C 
ENDROOT
BRANCH   1   3
HETATM    3  N1  UNL     1      25.153   3.075  50.170  1.00  0.00    -0.252 NA
HETATM    4  C1  UNL     1      26.243   3.500  49.628  1.00  0.00     0.151 C 
ENDBRANCH   1   3
BRANCH   1   5
HETATM    5  N3  UNL     1      26.475   2.757  52.184  1.00  0.00    -0.339 N 
HETATM    6  H12 UNL     1      26.817   3.752  52.214  1.00  0.00     0.167 HD
BRANCH   5   7
HETATM    7  C10 UNL     1      27.249   1.676  52.676  1.00  0.00     0.035 A 
HETATM    8  C11 UNL     1      28.387   1.984  53.429  1.00  0.00     0.029 A 
HETATM    9  C12 UNL     1      29.087   0.884  53.871  1.00  0.00     0.004 A 
HETATM   10  C13 UNL     1      28.727  -0.426  53.615  1.00  0.00     0.024 A 
HETATM   11  C14 UNL     1      27.594  -0.649  52.869  1.00  0.00     0.036 A 
HETATM   12 CL1  UNL     1      27.192  -2.327  52.579  1.00  0.00    -0.084 Cl
HETATM   13  C15 UNL     1      26.843   0.396  52.390  1.00  0.00     0.053 A 
ENDBRANCH   5   7
ENDBRANCH   1   5
BRANCH   2  14
HETATM   14  O1  UNL     1      23.327   2.934  51.012  1.00  0.00    -0.336 OA
BRANCH  14  15
HETATM   15  C4  UNL     1      21.981   2.571  50.973  1.00  0.00     0.146 A 
HETATM   16  C5  UNL     1      21.809   1.321  50.149  1.00  0.00     0.060 C 
HETATM   17  C6  UNL     1      21.415   2.249  52.328  1.00  0.00     0.134 A 
HETATM   18  N2  UNL     1      20.392   2.998  52.656  1.00  0.00    -0.271 NA
HETATM   19  C7  UNL     1      20.178   3.893  51.547  1.00  0.00     0.151 A 
HETATM   20  C8  UNL     1      21.063   3.669  50.586  1.00  0.00     0.103 A 
BRANCH  20  21
HETATM   21  O2  UNL     1      21.027   4.441  49.408  1.00  0.00    -0.355 OA
HETATM   22  C9  UNL     1      20.457   5.724  49.370  1.00  0.00     0.209 C 
ENDBRANCH  20  21
ENDBRANCH  14  15
ENDBRANCH   2  14
TORSDOF 6
ENDMDL
MODEL 6
REMARK VINA RESULT:      -6.2      3.029      6.548
REMARK  6 active torsions:
REMARK  status: ('A' for Active; 'I' for Inactive)
REMARK    1  A    between atoms: N1_2  and  C2_3 
REMARK    2  A    between atoms: C2_3  and  N3_14 
REMARK    3  A    between atoms: C3_4  and  O1_5 
REMARK    4  A    between atoms: O1_5  and  C4_6 
REMARK    5  A    between atoms: C8_11  and  O2_12 
REMARK    6  A    between atoms: N3_14  and  C10_15 
ROOT
HETATM    1  C2  UNL     1      24.567   0.162  52.979  1.00  0.00     0.148 C 
HETATM    2  C3  UNL     1      24.734   1.161  52.099  1.00  0.00     0.187 C 
ENDROOT
BRANCH   1   3
HETATM    3  N1  UNL     1      23.218  -0.226  53.268  1.00  0.00    -0.252 NA
HETATM    4  C1  UNL     1      23.034  -0.913  54.344  1.00  0.00     0.151 C 
ENDBRANCH   1   3
BRANCH   1   5
HETATM    5  N3  UNL     1      25.594  -0.553  53.655  1.00  0.00    -0.339 N 
HETATM    6  H12 UNL     1      25.076  -1.270  54.228  1.00  0.00     0.167 HD
BRANCH   5   7
HETATM    7  C10 UNL     1      27.008  -0.454  53.667  1.00  0.00     0.035 A 
HETATM    8  C11 UNL     1      27.737  -1.533  53.156  1.00  0.00     0.029 A 
HETATM    9  C12 UNL     1      29.103  -1.364  53.201  1.00  0.00     0.004 A 
HETATM   10  C13 UNL     1      29.736  -0.242  53.701  1.00  0.00     0.024 A 
HETATM   11  C14 UNL     1      28.951   0.777  54.187  1.00  0.00     0.036 A 
HETATM   12 CL1  UNL     1      29.810   2.171  54.806  1.00  0.00    -0.084 Cl
HETATM   13  C15 UNL     1      27.581   0.684  54.177  1.00  0.00     0.053 A 
ENDBRANCH   5   7
ENDBRANCH   1   5
BRANCH   2  14
HETATM   14  O1  UNL     1      23.359   1.280  51.937  1.00  0.00    -0.336 OA
BRANCH  14  15
HETATM   15  C4  UNL     1      22.883   2.448  51.341  1.00  0.00     0.146 A 
HETATM   16  C5  UNL     1      21.583   2.860  51.984  1.00  0.00     0.060 C 
HETATM   17  C6  UNL     1      23.811   3.619  51.509  1.00  0.00     0.134 A 
HETATM   18  N2  UNL     1      24.206   4.136  50.374  1.00  0.00    -0.271 NA
HETATM   19  C7  UNL     1      23.577   3.358  49.337  1.00  0.00     0.151 A 
HETATM   20  C8  UNL     1      22.826   2.400  49.861  1.00  0.00     0.103 A 
BRANCH  20  21
HETATM   21  O2  UNL     1      22.120   1.523  49.014  1.00  0.00    -0.355 OA
HETATM   22  C9  UNL     1      20.819   1.801  48.564  1.00  0.00     0.209 C 
ENDBRANCH  20  21
ENDBRANCH  14  15
ENDBRANCH   2  14
TORSDOF 6
ENDMDL
MODEL 7
REMARK VINA RESULT:      -6.2      2.630      3.254
REMARK  6 active torsions:
REMARK  status: ('A' for Active; 'I' for Inactive)
REMARK    1  A    between atoms: N1_2  and  C2_3 
REMARK    2  A    between atoms: C2_3  and  N3_14 
REMARK    3  A    between atoms: C3_4  and  O1_5 
REMARK    4  A    between atoms: O1_5  and  C4_6 
REMARK    5  A    between atoms: C8_11  and  O2_12 
REMARK    6  A    between atoms: N3_14  and  C10_15 
ROOT
HETATM    1  C2  UNL     1      24.869   2.001  51.844  1.00  0.00     0.148 C 
HETATM    2  C3  UNL     1      25.788   1.026  51.916  1.00  0.00     0.187 C 
ENDROOT
BRANCH   1   3
HETATM    3  N1  UNL     1      24.335   2.478  53.086  1.00  0.00    -0.252 NA
HETATM    4  C1  UNL     1      23.957   3.712  53.114  1.00  0.00     0.151 C 
ENDBRANCH   1   3
BRANCH   1   5
HETATM    5  N3  UNL     1      24.369   2.610  50.660  1.00  0.00    -0.339 N 
HETATM    6  H12 UNL     1      25.051   3.388  50.462  1.00  0.00     0.167 HD
BRANCH   5   7
HETATM    7  C10 UNL     1      23.249   2.357  49.829  1.00  0.00     0.035 A 
HETATM    8  C11 UNL     1      22.281   1.464  50.301  1.00  0.00     0.029 A 
HETATM    9  C12 UNL     1      21.225   1.268  49.439  1.00  0.00     0.004 A 
HETATM   10  C13 UNL     1      21.096   1.882  48.208  1.00  0.00     0.024 A 
HETATM   11  C14 UNL     1      22.089   2.747  47.813  1.00  0.00     0.036 A 
HETATM   12 CL1  UNL     1      21.870   3.492  46.245  1.00  0.00    -0.084 Cl
HETATM   13  C15 UNL     1      23.176   2.995  48.616  1.00  0.00     0.053 A 
ENDBRANCH   5   7
ENDBRANCH   1   5
BRANCH   2  14
HETATM   14  O1  UNL     1      25.706   1.018  53.303  1.00  0.00    -0.336 OA
BRANCH  14  15
HETATM   15  C4  UNL     1      26.407   0.020  53.981  1.00  0.00     0.146 A 
HETATM   16  C5  UNL     1      25.792  -0.211  55.336  1.00  0.00     0.060 C 
HETATM   17  C6  UNL     1      26.366  -1.310  53.281  1.00  0.00     0.134 A 
HETATM   18  N2  UNL     1      27.552  -1.776  52.980  1.00  0.00    -0.271 NA
HETATM   19  C7  UNL     1      28.500  -0.799  53.452  1.00  0.00     0.151 A 
HETATM   20  C8  UNL     1      27.875   0.223  54.020  1.00  0.00     0.103 A 
BRANCH  20  21
HETATM   21  O2  UNL     1      28.622   1.293  54.551  1.00  0.00    -0.355 OA
HETATM   22  C9  UNL     1      28.927   2.439  53.798  1.00  0.00     0.209 C 
ENDBRANCH  20  21
ENDBRANCH  14  15
ENDBRANCH   2  14
TORSDOF 6
ENDMDL
MODEL 8
REMARK VINA RESULT:      -6.2      2.900      6.421
REMARK  6 active torsions:
REMARK  status: ('A' for Active; 'I' for Inactive)
REMARK    1  A    between atoms: N1_2  and  C2_3 
REMARK    2  A    between atoms: C2_3  and  N3_14 
REMARK    3  A    between atoms: C3_4  and  O1_5 
REMARK    4  A    between atoms: O1_5  and  C4_6 
REMARK    5  A    between atoms: C8_11  and  O2_12 
REMARK    6  A    between atoms: N3_14  and  C10_15 
ROOT
HETATM    1  C2  UNL     1      24.397   0.442  52.793  1.00  0.00     0.148 C 
HETATM    2  C3  UNL     1      24.515   1.449  51.913  1.00  0.00     0.187 C 
ENDROOT
BRANCH   1   3
HETATM    3  N1  UNL     1      23.149   0.336  53.490  1.00  0.00    -0.252 NA
HETATM    4  C1  UNL     1      22.983  -0.718  54.215  1.00  0.00     0.151 C 
ENDBRANCH   1   3
BRANCH   1   5
HETATM    5  N3  UNL     1      25.386  -0.531  53.104  1.00  0.00    -0.339 N 
HETATM    6  H12 UNL     1      24.845  -1.430  53.194  1.00  0.00     0.167 HD
BRANCH   5   7
HETATM    7  C10 UNL     1      26.791  -0.474  53.285  1.00  0.00     0.035 A 
HETATM    8  C11 UNL     1      27.535  -1.608  52.941  1.00  0.00     0.029 A 
HETATM    9  C12 UNL     1      28.891  -1.476  53.144  1.00  0.00     0.004 A 
HETATM   10  C13 UNL     1      29.501  -0.340  53.641  1.00  0.00     0.024 A 
HETATM   11  C14 UNL     1      28.702   0.734  53.956  1.00  0.00     0.036 A 
HETATM   12 CL1  UNL     1      29.532   2.142  54.582  1.00  0.00    -0.084 Cl
HETATM   13  C15 UNL     1      27.340   0.681  53.783  1.00  0.00     0.053 A 
ENDBRANCH   5   7
ENDBRANCH   1   5
BRANCH   2  14
HETATM   14  O1  UNL     1      23.223   1.877  52.194  1.00  0.00    -0.336 OA
BRANCH  14  15
HETATM   15  C4  UNL     1      22.616   2.731  51.272  1.00  0.00     0.146 A 
HETATM   16  C5  UNL     1      22.904   2.262  49.870  1.00  0.00     0.060 C 
HETATM   17  C6  UNL     1      21.118   2.764  51.394  1.00  0.00     0.134 A 
HETATM   18  N2  UNL     1      20.641   3.959  51.630  1.00  0.00    -0.271 NA
HETATM   19  C7  UNL     1      21.779   4.842  51.690  1.00  0.00     0.151 A 
HETATM   20  C8  UNL     1      22.904   4.169  51.490  1.00  0.00     0.103 A 
BRANCH  20  21
HETATM   21  O2  UNL     1      24.138   4.848  51.508  1.00  0.00    -0.355 OA
HETATM   22  C9  UNL     1      24.625   5.546  50.390  1.00  0.00     0.209 C 
ENDBRANCH  20  21
ENDBRANCH  14  15
ENDBRANCH   2  14
TORSDOF 6
ENDMDL
MODEL 9
REMARK VINA RESULT:      -6.1      3.421      6.644
REMARK  6 active torsions:
REMARK  status: ('A' for Active; 'I' for Inactive)
REMARK    1  A    between atoms: N1_2  and  C2_3 
REMARK    2  A    between atoms: C2_3  and  N3_14 
REMARK    3  A    between atoms: C3_4  and  O1_5 
REMARK    4  A    between atoms: O1_5  and  C4_6 
REMARK    5  A    between atoms: C8_11  and  O2_12 
REMARK    6  A    between atoms: N3_14  and  C10_15 
ROOT
HETATM    1  C2  UNL     1      24.539   1.424  51.908  1.00  0.00     0.148 C 
HETATM    2  C3  UNL     1      24.307   2.450  51.075  1.00  0.00     0.187 C 
ENDROOT
BRANCH   1   3
HETATM    3  N1  UNL     1      23.482   1.074  52.812  1.00  0.00    -0.252 NA
HETATM    4  C1  UNL     1      23.525  -0.113  53.315  1.00  0.00     0.151 C 
ENDBRANCH   1   3
BRANCH   1   5
HETATM    5  N3  UNL     1      25.728   0.648  51.988  1.00  0.00    -0.339 N 
HETATM    6  H12 UNL     1      25.525  -0.197  51.393  1.00  0.00     0.167 HD
BRANCH   5   7
HETATM    7  C10 UNL     1      26.967   0.824  52.655  1.00  0.00     0.035 A 
HETATM    8  C11 UNL     1      27.318   2.123  53.037  1.00  0.00     0.029 A 
HETATM    9  C12 UNL     1      28.533   2.214  53.677  1.00  0.00     0.004 A 
HETATM   10  C13 UNL     1      29.362   1.140  53.939  1.00  0.00     0.024 A 
HETATM   11  C14 UNL     1      28.947  -0.107  53.533  1.00  0.00     0.036 A 
HETATM   12 CL1  UNL     1      30.039  -1.426  53.893  1.00  0.00    -0.084 Cl
HETATM   13  C15 UNL     1      27.748  -0.281  52.887  1.00  0.00     0.053 A 
ENDBRANCH   5   7
ENDBRANCH   1   5
BRANCH   2  14
HETATM   14  O1  UNL     1      23.033   2.623  51.604  1.00  0.00    -0.336 OA
BRANCH  14  15
HETATM   15  C4  UNL     1      22.488   3.906  51.554  1.00  0.00     0.146 A 
HETATM   16  C5  UNL     1      23.070   4.755  52.655  1.00  0.00     0.060 C 
HETATM   17  C6  UNL     1      22.796   4.631  50.273  1.00  0.00     0.134 A 
HETATM   18  N2  UNL     1      21.726   5.002  49.616  1.00  0.00    -0.271 NA
HETATM   19  C7  UNL     1      20.600   4.560  50.399  1.00  0.00     0.151 A 
HETATM   20  C8  UNL     1      21.007   3.940  51.497  1.00  0.00     0.103 A 
BRANCH  20  21
HETATM   21  O2  UNL     1      20.059   3.428  52.404  1.00  0.00    -0.355 OA
HETATM   22  C9  UNL     1      19.657   2.082  52.387  1.00  0.00     0.209 C 
ENDBRANCH  20  21
ENDBRANCH  14  15
ENDBRANCH   2  14
TORSDOF 6
ENDMDL
