MODEL 1
REMARK VINA RESULT:     -10.3      0.000      0.000
REMARK  2 active torsions:
REMARK  status: ('A' for Active; 'I' for Inactive)
REMARK    1  A    between atoms: C12_13  and  O1_14 
REMARK       I    between atoms: N1_17  and  C15_18 
REMARK       I    between atoms: C15_18  and  N2_20 
REMARK    2  A    between atoms: N2_20  and  C16_21 
ROOT
HETATM    1  C1  UNL     1      22.665   3.076  48.114  1.00  0.00     0.049 C 
HETATM    2  C2  UNL     1      23.343   2.994  49.463  1.00  0.00    -0.053 A 
HETATM    3  C3  UNL     1      24.431   3.697  49.597  1.00  0.00     0.007 A 
HETATM    4  C4  UNL     1      25.183   3.713  50.825  1.00  0.00    -0.001 A 
HETATM    5  C5  UNL     1      24.672   2.966  51.765  1.00  0.00     0.003 A 
HETATM    6  C6  UNL     1      23.454   2.128  51.722  1.00  0.00     0.145 A 
HETATM    7  C7  UNL     1      22.700   2.135  50.510  1.00  0.00    -0.026 A 
HETATM    8  C8  UNL     1      21.557   1.593  50.404  1.00  0.00     0.007 C 
HETATM    9  C9  UNL     1      20.358   0.825  50.671  1.00  0.00    -0.015 C 
HETATM   10  C10 UNL     1      20.446   0.186  51.874  1.00  0.00     0.063 C 
HETATM   11  C11 UNL     1      19.962  -0.672  52.968  1.00  0.00     0.026 C 
HETATM   12 BR1  UNL     1      18.307  -1.645  53.385  1.00  0.00    -0.052 Br
HETATM   13  C12 UNL     1      20.958  -0.772  53.885  1.00  0.00     0.059 C 
HETATM   14  C13 UNL     1      22.316  -0.499  54.409  1.00  0.00     0.085 C 
HETATM   15  C14 UNL     1      23.038   0.267  53.430  1.00  0.00     0.135 C 
HETATM   16  N1  UNL     1      23.703   0.969  52.530  1.00  0.00    -0.321 N 
HETATM   17  C15 UNL     1      24.949   0.290  52.597  1.00  0.00     0.323 C 
HETATM   18  O2  UNL     1      24.619  -0.558  53.501  1.00  0.00    -0.247 OA
HETATM   19  N2  UNL     1      26.245   0.313  52.014  1.00  0.00    -0.309 N 
HETATM   20  H16 UNL     1      26.204   1.084  51.335  1.00  0.00     0.170 HD
ENDROOT
BRANCH  19  21
HETATM   21  C16 UNL     1      27.193  -0.641  52.464  1.00  0.00     0.036 A 
HETATM   22  C17 UNL     1      28.267  -0.040  53.085  1.00  0.00     0.029 A 
HETATM   23  C18 UNL     1      29.301  -0.835  53.592  1.00  0.00     0.002 A 
HETATM   24  C19 UNL     1      29.261  -2.213  53.480  1.00  0.00     0.000 A 
HETATM   25  C20 UNL     1      28.176  -2.786  52.856  1.00  0.00     0.002 A 
HETATM   26  C21 UNL     1      27.142  -2.015  52.346  1.00  0.00     0.029 A 
ENDBRANCH  19  21
BRANCH  13  27
HETATM   27  O1  UNL     1      20.495  -1.578  54.930  1.00  0.00    -0.364 OA
HETATM   28  H11 UNL     1      21.208  -1.859  55.608  1.00  0.00     0.217 HD
ENDBRANCH  13  27
TORSDOF 2
ENDMDL
MODEL 2
REMARK VINA RESULT:      -9.2      1.095      1.193
REMARK  2 active torsions:
REMARK  status: ('A' for Active; 'I' for Inactive)
REMARK    1  A    between atoms: C12_13  and  O1_14 
REMARK       I    between atoms: N1_17  and  C15_18 
REMARK       I    between atoms: C15_18  and  N2_20 
REMARK    2  A    between atoms: N2_20  and  C16_21 
ROOT
HETATM    1  C1  UNL     1      22.140   3.945  47.724  1.00  0.00     0.049 C 
HETATM    2  C2  UNL     1      22.727   3.891  49.117  1.00  0.00    -0.053 A 
HETATM    3  C3  UNL     1      23.754   4.663  49.332  1.00  0.00     0.007 A 
HETATM    4  C4  UNL     1      24.416   4.712  50.610  1.00  0.00    -0.001 A 
HETATM    5  C5  UNL     1      23.892   3.921  51.505  1.00  0.00     0.003 A 
HETATM    6  C6  UNL     1      22.739   3.006  51.371  1.00  0.00     0.145 A 
HETATM    7  C7  UNL     1      22.071   2.978  50.109  1.00  0.00    -0.026 A 
HETATM    8  C8  UNL     1      20.978   2.363  49.919  1.00  0.00     0.007 C 
HETATM    9  C9  UNL     1      19.817   1.515  50.096  1.00  0.00    -0.015 C 
HETATM   10  C10 UNL     1      19.864   0.868  51.296  1.00  0.00     0.063 C 
HETATM   11  C11 UNL     1      19.363  -0.035  52.347  1.00  0.00     0.026 C 
HETATM   12 BR1  UNL     1      17.752  -1.119  52.639  1.00  0.00    -0.052 Br
HETATM   13  C12 UNL     1      20.298  -0.080  53.330  1.00  0.00     0.059 C 
HETATM   14  C13 UNL     1      21.595   0.275  53.950  1.00  0.00     0.085 C 
HETATM   15  C14 UNL     1      22.331   1.099  53.030  1.00  0.00     0.135 C 
HETATM   16  N1  UNL     1      23.008   1.855  52.185  1.00  0.00    -0.321 N 
HETATM   17  C15 UNL     1      24.289   1.259  52.333  1.00  0.00     0.323 C 
HETATM   18  O2  UNL     1      23.954   0.379  53.204  1.00  0.00    -0.247 OA
HETATM   19  N2  UNL     1      25.618   1.374  51.842  1.00  0.00    -0.309 N 
HETATM   20  H16 UNL     1      25.573   2.150  51.168  1.00  0.00     0.170 HD
ENDROOT
BRANCH  19  21
HETATM   21  C16 UNL     1      26.594   0.479  52.349  1.00  0.00     0.036 A 
HETATM   22  C17 UNL     1      27.691   1.149  52.847  1.00  0.00     0.029 A 
HETATM   23  C18 UNL     1      28.754   0.418  53.390  1.00  0.00     0.002 A 
HETATM   24  C19 UNL     1      28.721  -0.964  53.433  1.00  0.00     0.000 A 
HETATM   25  C20 UNL     1      27.612  -1.606  52.929  1.00  0.00     0.002 A 
HETATM   26  C21 UNL     1      26.548  -0.899  52.387  1.00  0.00     0.029 A 
ENDBRANCH  19  21
BRANCH  13  27
HETATM   27  O1  UNL     1      19.819  -0.928  54.334  1.00  0.00    -0.364 OA
HETATM   28  H11 UNL     1      19.586  -1.875  54.026  1.00  0.00     0.217 HD
ENDBRANCH  13  27
TORSDOF 2
ENDMDL
MODEL 3
REMARK VINA RESULT:      -9.0      2.580      5.927
REMARK  2 active torsions:
REMARK  status: ('A' for Active; 'I' for Inactive)
REMARK    1  A    between atoms: C12_13  and  O1_14 
REMARK       I    between atoms: N1_17  and  C15_18 
REMARK       I    between atoms: C15_18  and  N2_20 
REMARK    2  A    between atoms: N2_20  and  C16_21 
ROOT
HETATM    1  C1  UNL     1      26.095   0.095  55.339  1.00  0.00     0.049 C 
HETATM    2  C2  UNL     1      26.031   0.552  53.899  1.00  0.00    -0.053 A 
HETATM    3  C3  UNL     1      27.163   0.913  53.365  1.00  0.00     0.007 A 
HETATM    4  C4  UNL     1      27.252   1.373  52.003  1.00  0.00    -0.001 A 
HETATM    5  C5  UNL     1      26.108   1.390  51.377  1.00  0.00     0.003 A 
HETATM    6  C6  UNL     1      24.772   1.010  51.881  1.00  0.00     0.145 A 
HETATM    7  C7  UNL     1      24.692   0.531  53.225  1.00  0.00    -0.026 A 
HETATM    8  C8  UNL     1      23.638   0.023  53.716  1.00  0.00     0.007 C 
HETATM    9  C9  UNL     1      22.271  -0.414  53.909  1.00  0.00    -0.015 C 
HETATM   10  C10 UNL     1      21.485  -0.034  52.860  1.00  0.00     0.063 C 
HETATM   11  C11 UNL     1      20.227   0.063  52.100  1.00  0.00     0.026 C 
HETATM   12 BR1  UNL     1      18.389  -0.600  52.305  1.00  0.00    -0.052 Br
HETATM   13  C12 UNL     1      20.471   0.809  50.992  1.00  0.00     0.059 C 
HETATM   14  C13 UNL     1      21.327   1.620  50.097  1.00  0.00     0.085 C 
HETATM   15  C14 UNL     1      22.624   1.755  50.703  1.00  0.00     0.135 C 
HETATM   16  N1  UNL     1      23.815   1.880  51.260  1.00  0.00    -0.321 N 
HETATM   17  C15 UNL     1      24.036   3.260  51.000  1.00  0.00     0.323 C 
HETATM   18  O2  UNL     1      22.936   3.482  50.380  1.00  0.00    -0.247 OA
HETATM   19  N2  UNL     1      25.005   4.277  51.217  1.00  0.00    -0.309 N 
HETATM   20  H16 UNL     1      25.758   3.804  51.733  1.00  0.00     0.170 HD
ENDROOT
BRANCH  19  21
HETATM   21  C16 UNL     1      24.727   5.575  50.720  1.00  0.00     0.036 A 
HETATM   22  C17 UNL     1      25.289   5.777  49.477  1.00  0.00     0.029 A 
HETATM   23  C18 UNL     1      25.114   7.008  48.835  1.00  0.00     0.002 A 
HETATM   24  C19 UNL     1      24.387   8.024  49.427  1.00  0.00     0.000 A 
HETATM   25  C20 UNL     1      23.837   7.795  50.669  1.00  0.00     0.002 A 
HETATM   26  C21 UNL     1      24.000   6.581  51.321  1.00  0.00     0.029 A 
ENDBRANCH  19  21
BRANCH  13  27
HETATM   27  O1  UNL     1      19.280   0.891  50.264  1.00  0.00    -0.364 OA
HETATM   28  H11 UNL     1      18.701   0.049  50.285  1.00  0.00     0.217 HD
ENDBRANCH  13  27
TORSDOF 2
ENDMDL
MODEL 4
REMARK VINA RESULT:      -8.3      3.098      7.056
REMARK  2 active torsions:
REMARK  status: ('A' for Active; 'I' for Inactive)
REMARK    1  A    between atoms: C12_13  and  O1_14 
REMARK       I    between atoms: N1_17  and  C15_18 
REMARK       I    between atoms: C15_18  and  N2_20 
REMARK    2  A    between atoms: N2_20  and  C16_21 
ROOT
HETATM    1  C1  UNL     1      24.444   3.792  49.296  1.00  0.00     0.049 C 
HETATM    2  C2  UNL     1      23.260   2.853  49.239  1.00  0.00    -0.053 A 
HETATM    3  C3  UNL     1      22.513   2.942  48.176  1.00  0.00     0.007 A 
HETATM    4  C4  UNL     1      21.351   2.111  47.988  1.00  0.00    -0.001 A 
HETATM    5  C5  UNL     1      21.132   1.283  48.972  1.00  0.00     0.003 A 
HETATM    6  C6  UNL     1      21.904   1.101  50.219  1.00  0.00     0.145 A 
HETATM    7  C7  UNL     1      23.069   1.909  50.389  1.00  0.00    -0.026 A 
HETATM    8  C8  UNL     1      23.901   1.733  51.331  1.00  0.00     0.007 C 
HETATM    9  C9  UNL     1      24.546   1.263  52.539  1.00  0.00    -0.015 C 
HETATM   10  C10 UNL     1      23.743   0.388  53.211  1.00  0.00     0.063 C 
HETATM   11  C11 UNL     1      23.398  -0.540  54.302  1.00  0.00     0.026 C 
HETATM   12 BR1  UNL     1      24.295  -1.256  55.896  1.00  0.00    -0.052 Br
HETATM   13  C12 UNL     1      22.129  -0.973  54.088  1.00  0.00     0.059 C 
HETATM   14  C13 UNL     1      20.847  -1.022  53.349  1.00  0.00     0.085 C 
HETATM   15  C14 UNL     1      20.912  -0.086  52.259  1.00  0.00     0.135 C 
HETATM   16  N1  UNL     1      20.971   0.774  51.258  1.00  0.00    -0.321 N 
HETATM   17  C15 UNL     1      19.675   1.345  51.381  1.00  0.00     0.323 C 
HETATM   18  O2  UNL     1      19.287   0.641  52.380  1.00  0.00    -0.247 OA
HETATM   19  N2  UNL     1      18.847   2.329  50.778  1.00  0.00    -0.309 N 
HETATM   20  H16 UNL     1      19.425   2.719  50.022  1.00  0.00     0.170 HD
ENDROOT
BRANCH  19  21
HETATM   21  C16 UNL     1      17.547   2.522  51.312  1.00  0.00     0.036 A 
HETATM   22  C17 UNL     1      17.330   3.838  51.662  1.00  0.00     0.029 A 
HETATM   23  C18 UNL     1      16.095   4.209  52.206  1.00  0.00     0.002 A 
HETATM   24  C19 UNL     1      15.092   3.277  52.399  1.00  0.00     0.000 A 
HETATM   25  C20 UNL     1      15.337   1.970  52.040  1.00  0.00     0.002 A 
HETATM   26  C21 UNL     1      16.554   1.583  51.499  1.00  0.00     0.029 A 
ENDBRANCH  19  21
BRANCH  13  27
HETATM   27  O1  UNL     1      21.804  -1.862  55.117  1.00  0.00    -0.364 OA
HETATM   28  H11 UNL     1      21.489  -2.785  54.807  1.00  0.00     0.217 HD
ENDBRANCH  13  27
TORSDOF 2
ENDMDL
MODEL 5
REMARK VINA RESULT:      -8.3      3.426      7.308
REMARK  2 active torsions:
REMARK  status: ('A' for Active; 'I' for Inactive)
REMARK    1  A    between atoms: C12_13  and  O1_14 
REMARK       I    between atoms: N1_17  and  C15_18 
REMARK       I    between atoms: C15_18  and  N2_20 
REMARK    2  A    between atoms: N2_20  and  C16_21 
ROOT
HETATM    1  C1  UNL     1      27.067  -0.765  51.956  1.00  0.00     0.049 C 
HETATM    2  C2  UNL     1      25.833  -0.159  52.586  1.00  0.00    -0.053 A 
HETATM    3  C3  UNL     1      25.259  -0.871  53.513  1.00  0.00     0.007 A 
HETATM    4  C4  UNL     1      24.074  -0.420  54.197  1.00  0.00    -0.001 A 
HETATM    5  C5  UNL     1      23.648   0.747  53.798  1.00  0.00     0.003 A 
HETATM    6  C6  UNL     1      24.214   1.634  52.761  1.00  0.00     0.145 A 
HETATM    7  C7  UNL     1      25.402   1.193  52.102  1.00  0.00    -0.026 A 
HETATM    8  C8  UNL     1      26.072   1.932  51.317  1.00  0.00     0.007 C 
HETATM    9  C9  UNL     1      26.495   3.028  50.470  1.00  0.00    -0.015 C 
HETATM   10  C10 UNL     1      25.535   3.997  50.412  1.00  0.00     0.063 C 
HETATM   11  C11 UNL     1      24.962   5.284  49.984  1.00  0.00     0.026 C 
HETATM   12 BR1  UNL     1      25.558   6.819  48.912  1.00  0.00    -0.052 Br
HETATM   13  C12 UNL     1      23.707   5.367  50.496  1.00  0.00     0.059 C 
HETATM   14  C13 UNL     1      22.547   4.858  51.262  1.00  0.00     0.085 C 
HETATM   15  C14 UNL     1      22.844   3.524  51.709  1.00  0.00     0.135 C 
HETATM   16  N1  UNL     1      23.117   2.299  52.119  1.00  0.00    -0.321 N 
HETATM   17  C15 UNL     1      21.866   1.687  51.831  1.00  0.00     0.323 C 
HETATM   18  O2  UNL     1      21.282   2.732  51.371  1.00  0.00    -0.247 OA
HETATM   19  N2  UNL     1      21.215   0.426  51.913  1.00  0.00    -0.309 N 
HETATM   20  H16 UNL     1      21.927  -0.201  52.311  1.00  0.00     0.170 HD
ENDROOT
BRANCH  19  21
HETATM   21  C16 UNL     1      19.872   0.342  51.469  1.00  0.00     0.036 A 
HETATM   22  C17 UNL     1      19.050  -0.208  52.429  1.00  0.00     0.029 A 
HETATM   23  C18 UNL     1      17.686  -0.365  52.159  1.00  0.00     0.002 A 
HETATM   24  C19 UNL     1      17.151   0.022  50.943  1.00  0.00     0.000 A 
HETATM   25  C20 UNL     1      17.995   0.568  50.003  1.00  0.00     0.002 A 
HETATM   26  C21 UNL     1      19.350   0.732  50.253  1.00  0.00     0.029 A 
ENDBRANCH  19  21
BRANCH  13  27
HETATM   27  O1  UNL     1      23.166   6.594  50.100  1.00  0.00    -0.364 OA
HETATM   28  H11 UNL     1      23.030   7.271  50.855  1.00  0.00     0.217 HD
ENDBRANCH  13  27
TORSDOF 2
ENDMDL
MODEL 6
REMARK VINA RESULT:      -8.2      3.742      7.788
REMARK  2 active torsions:
REMARK  status: ('A' for Active; 'I' for Inactive)
REMARK    1  A    between atoms: C12_13  and  O1_14 
REMARK       I    between atoms: N1_17  and  C15_18 
REMARK       I    between atoms: C15_18  and  N2_20 
REMARK    2  A    between atoms: N2_20  and  C16_21 
ROOT
HETATM    1  C1  UNL     1      24.985  -0.928  53.181  1.00  0.00     0.049 C 
HETATM    2  C2  UNL     1      23.623  -0.394  53.565  1.00  0.00    -0.053 A 
HETATM    3  C3  UNL     1      22.959  -1.101  54.434  1.00  0.00     0.007 A 
HETATM    4  C4  UNL     1      21.649  -0.714  54.890  1.00  0.00    -0.001 A 
HETATM    5  C5  UNL     1      21.209   0.391  54.353  1.00  0.00     0.003 A 
HETATM    6  C6  UNL     1      21.871   1.266  53.363  1.00  0.00     0.145 A 
HETATM    7  C7  UNL     1      23.180   0.891  52.932  1.00  0.00    -0.026 A 
HETATM    8  C8  UNL     1      23.912   1.640  52.216  1.00  0.00     0.007 C 
HETATM    9  C9  UNL     1      24.386   2.721  51.377  1.00  0.00    -0.015 C 
HETATM   10  C10 UNL     1      23.381   3.603  51.104  1.00  0.00     0.063 C 
HETATM   11  C11 UNL     1      22.792   4.814  50.507  1.00  0.00     0.026 C 
HETATM   12 BR1  UNL     1      23.442   6.334  49.445  1.00  0.00    -0.052 Br
HETATM   13  C12 UNL     1      21.468   4.819  50.806  1.00  0.00     0.059 C 
HETATM   14  C13 UNL     1      20.239   4.256  51.410  1.00  0.00     0.085 C 
HETATM   15  C14 UNL     1      20.556   2.977  51.985  1.00  0.00     0.135 C 
HETATM   16  N1  UNL     1      20.847   1.802  52.512  1.00  0.00    -0.321 N 
HETATM   17  C15 UNL     1      19.709   1.074  52.071  1.00  0.00     0.323 C 
HETATM   18  O2  UNL     1      19.133   2.041  51.456  1.00  0.00    -0.247 OA
HETATM   19  N2  UNL     1      19.148  -0.230  52.131  1.00  0.00    -0.309 N 
HETATM   20  H16 UNL     1      19.828  -0.774  52.676  1.00  0.00     0.170 HD
ENDROOT
BRANCH  19  21
HETATM   21  C16 UNL     1      17.905  -0.449  51.484  1.00  0.00     0.036 A 
HETATM   22  C17 UNL     1      17.005  -1.088  52.311  1.00  0.00     0.029 A 
HETATM   23  C18 UNL     1      15.723  -1.383  51.835  1.00  0.00     0.002 A 
HETATM   24  C19 UNL     1      15.345  -1.044  50.548  1.00  0.00     0.000 A 
HETATM   25  C20 UNL     1      16.263  -0.407  49.744  1.00  0.00     0.002 A 
HETATM   26  C21 UNL     1      17.539  -0.105  50.199  1.00  0.00     0.029 A 
ENDBRANCH  19  21
BRANCH  13  27
HETATM   27  O1  UNL     1      20.911   5.974  50.250  1.00  0.00    -0.364 OA
HETATM   28  H11 UNL     1      21.257   6.216  49.318  1.00  0.00     0.217 HD
ENDBRANCH  13  27
TORSDOF 2
ENDMDL
MODEL 7
REMARK VINA RESULT:      -8.1      7.875     10.955
REMARK  2 active torsions:
REMARK  status: ('A' for Active; 'I' for Inactive)
REMARK    1  A    between atoms: C12_13  and  O1_14 
REMARK       I    between atoms: N1_17  and  C15_18 
REMARK       I    between atoms: C15_18  and  N2_20 
REMARK    2  A    between atoms: N2_20  and  C16_21 
ROOT
HETATM    1  C1  UNL     1      29.716  11.609  48.691  1.00  0.00     0.049 C 
HETATM    2  C2  UNL     1      29.230  10.384  47.948  1.00  0.00    -0.053 A 
HETATM    3  C3  UNL     1      28.082  10.503  47.345  1.00  0.00     0.007 A 
HETATM    4  C4  UNL     1      27.495   9.418  46.602  1.00  0.00    -0.001 A 
HETATM    5  C5  UNL     1      28.216   8.331  46.599  1.00  0.00     0.003 A 
HETATM    6  C6  UNL     1      29.522   8.084  47.247  1.00  0.00     0.145 A 
HETATM    7  C7  UNL     1      30.111   9.171  47.963  1.00  0.00    -0.026 A 
HETATM    8  C8  UNL     1      31.294   9.137  48.420  1.00  0.00     0.007 C 
HETATM    9  C9  UNL     1      32.611   8.687  48.824  1.00  0.00    -0.015 C 
HETATM   10  C10 UNL     1      32.762   7.351  48.592  1.00  0.00     0.063 C 
HETATM   11  C11 UNL     1      33.492   6.072  48.582  1.00  0.00     0.026 C 
HETATM   12 BR1  UNL     1      35.303   5.466  49.042  1.00  0.00    -0.052 Br
HETATM   13  C12 UNL     1      32.641   5.115  48.130  1.00  0.00     0.059 C 
HETATM   14  C13 UNL     1      31.335   4.623  47.635  1.00  0.00     0.085 C 
HETATM   15  C14 UNL     1      30.398   5.713  47.655  1.00  0.00     0.135 C 
HETATM   16  N1  UNL     1      29.537   6.714  47.674  1.00  0.00    -0.321 N 
HETATM   17  C15 UNL     1      28.413   6.028  48.207  1.00  0.00     0.323 C 
HETATM   18  O2  UNL     1      28.966   4.876  48.311  1.00  0.00    -0.247 OA
HETATM   19  N2  UNL     1      27.063   6.259  48.588  1.00  0.00    -0.309 N 
HETATM   20  H16 UNL     1      26.914   7.258  48.395  1.00  0.00     0.170 HD
ENDROOT
BRANCH  19  21
HETATM   21  C16 UNL     1      26.318   5.164  49.094  1.00  0.00     0.036 A 
HETATM   22  C17 UNL     1      24.961   5.364  48.958  1.00  0.00     0.029 A 
HETATM   23  C18 UNL     1      24.073   4.379  49.405  1.00  0.00     0.002 A 
HETATM   24  C19 UNL     1      24.536   3.211  49.983  1.00  0.00     0.000 A 
HETATM   25  C20 UNL     1      25.897   3.038  50.106  1.00  0.00     0.002 A 
HETATM   26  C21 UNL     1      26.793   4.003  49.668  1.00  0.00     0.029 A 
ENDBRANCH  19  21
BRANCH  13  27
HETATM   27  O1  UNL     1      33.337   3.902  48.109  1.00  0.00    -0.364 OA
HETATM   28  H11 UNL     1      33.152   3.284  48.903  1.00  0.00     0.217 HD
ENDBRANCH  13  27
TORSDOF 2
ENDMDL
MODEL 8
REMARK VINA RESULT:      -7.6      3.392      4.465
REMARK  2 active torsions:
REMARK  status: ('A' for Active; 'I' for Inactive)
REMARK    1  A    between atoms: C12_13  and  O1_14 
REMARK       I    between atoms: N1_17  and  C15_18 
REMARK       I    between atoms: C15_18  and  N2_20 
REMARK    2  A    between atoms: N2_20  and  C16_21 
ROOT
HETATM    1  C1  UNL     1      24.009   7.352  46.971  1.00  0.00     0.049 C 
HETATM    2  C2  UNL     1      24.150   7.031  48.443  1.00  0.00    -0.053 A 
HETATM    3  C3  UNL     1      25.261   7.413  49.004  1.00  0.00     0.007 A 
HETATM    4  C4  UNL     1      25.533   7.172  50.398  1.00  0.00    -0.001 A 
HETATM    5  C5  UNL     1      24.573   6.546  51.021  1.00  0.00     0.003 A 
HETATM    6  C6  UNL     1      23.281   6.066  50.487  1.00  0.00     0.145 A 
HETATM    7  C7  UNL     1      23.006   6.329  49.111  1.00  0.00    -0.026 A 
HETATM    8  C8  UNL     1      21.874   6.115  48.579  1.00  0.00     0.007 C 
HETATM    9  C9  UNL     1      20.510   5.684  48.351  1.00  0.00    -0.015 C 
HETATM   10  C10 UNL     1      20.032   4.990  49.425  1.00  0.00     0.063 C 
HETATM   11  C11 UNL     1      19.017   4.243  50.187  1.00  0.00     0.026 C 
HETATM   12 BR1  UNL     1      17.139   3.729  49.929  1.00  0.00    -0.052 Br
HETATM   13  C12 UNL     1      19.590   3.840  51.350  1.00  0.00     0.059 C 
HETATM   14  C13 UNL     1      20.714   3.717  52.307  1.00  0.00     0.085 C 
HETATM   15  C14 UNL     1      21.884   4.307  51.716  1.00  0.00     0.135 C 
HETATM   16  N1  UNL     1      22.960   4.847  51.172  1.00  0.00    -0.321 N 
HETATM   17  C15 UNL     1      23.913   3.858  51.539  1.00  0.00     0.323 C 
HETATM   18  O2  UNL     1      23.105   3.089  52.172  1.00  0.00    -0.247 OA
HETATM   19  N2  UNL     1      25.296   3.561  51.403  1.00  0.00    -0.309 N 
HETATM   20  H16 UNL     1      25.670   4.345  50.853  1.00  0.00     0.170 HD
ENDROOT
BRANCH  19  21
HETATM   21  C16 UNL     1      25.781   2.370  51.999  1.00  0.00     0.036 A 
HETATM   22  C17 UNL     1      25.816   2.465  53.374  1.00  0.00     0.029 A 
HETATM   23  C18 UNL     1      26.270   1.376  54.126  1.00  0.00     0.002 A 
HETATM   24  C19 UNL     1      26.683   0.207  53.512  1.00  0.00     0.000 A 
HETATM   25  C20 UNL     1      26.638   0.141  52.138  1.00  0.00     0.002 A 
HETATM   26  C21 UNL     1      26.191   1.210  51.374  1.00  0.00     0.029 A 
ENDBRANCH  19  21
BRANCH  13  27
HETATM   27  O1  UNL     1      18.625   3.140  52.080  1.00  0.00    -0.364 OA
HETATM   28  H11 UNL     1      18.721   2.122  52.061  1.00  0.00     0.217 HD
ENDBRANCH  13  27
TORSDOF 2
ENDMDL
MODEL 9
REMARK VINA RESULT:      -7.4     11.221     13.009
REMARK  2 active torsions:
REMARK  status: ('A' for Active; 'I' for Inactive)
REMARK    1  A    between atoms: C12_13  and  O1_14 
REMARK       I    between atoms: N1_17  and  C15_18 
REMARK       I    between atoms: C15_18  and  N2_20 
REMARK    2  A    between atoms: N2_20  and  C16_21 
ROOT
HETATM    1  C1  UNL     1      32.933  11.157  42.715  1.00  0.00     0.049 C 
HETATM    2  C2  UNL     1      33.502  10.535  43.971  1.00  0.00    -0.053 A 
HETATM    3  C3  UNL     1      34.755  10.182  43.913  1.00  0.00     0.007 A 
HETATM    4  C4  UNL     1      35.428   9.575  45.032  1.00  0.00    -0.001 A 
HETATM    5  C5  UNL     1      34.669   9.419  46.082  1.00  0.00     0.003 A 
HETATM    6  C6  UNL     1      33.245   9.776  46.256  1.00  0.00     0.145 A 
HETATM    7  C7  UNL     1      32.589  10.400  45.152  1.00  0.00    -0.026 A 
HETATM    8  C8  UNL     1      31.425  10.899  45.232  1.00  0.00     0.007 C 
HETATM    9  C9  UNL     1      30.108  11.274  45.705  1.00  0.00    -0.015 C 
HETATM   10  C10 UNL     1      29.857  10.731  46.931  1.00  0.00     0.063 C 
HETATM   11  C11 UNL     1      29.055  10.474  48.139  1.00  0.00     0.026 C 
HETATM   12 BR1  UNL     1      27.309  11.048  48.833  1.00  0.00    -0.052 Br
HETATM   13  C12 UNL     1      29.758   9.622  48.928  1.00  0.00     0.059 C 
HETATM   14  C13 UNL     1      30.920   8.765  49.255  1.00  0.00     0.085 C 
HETATM   15  C14 UNL     1      31.825   8.776  48.138  1.00  0.00     0.135 C 
HETATM   16  N1  UNL     1      32.656   8.786  47.111  1.00  0.00    -0.321 N 
HETATM   17  C15 UNL     1      32.973   7.401  47.071  1.00  0.00     0.323 C 
HETATM   18  O2  UNL     1      32.251   7.045  48.070  1.00  0.00    -0.247 OA
HETATM   19  N2  UNL     1      33.753   6.473  46.329  1.00  0.00    -0.309 N 
HETATM   20  H16 UNL     1      34.206   7.046  45.604  1.00  0.00     0.170 HD
ENDROOT
BRANCH  19  21
HETATM   21  C16 UNL     1      33.723   5.112  46.725  1.00  0.00     0.036 A 
HETATM   22  C17 UNL     1      32.646   4.446  46.181  1.00  0.00     0.029 A 
HETATM   23  C18 UNL     1      32.460   3.089  46.467  1.00  0.00     0.002 A 
HETATM   24  C19 UNL     1      33.340   2.407  47.288  1.00  0.00     0.000 A 
HETATM   25  C20 UNL     1      34.407   3.098  47.818  1.00  0.00     0.002 A 
HETATM   26  C21 UNL     1      34.608   4.443  47.545  1.00  0.00     0.029 A 
ENDBRANCH  19  21
BRANCH  13  27
HETATM   27  O1  UNL     1      29.002   9.387  50.080  1.00  0.00    -0.364 OA
HETATM   28  H11 UNL     1      28.159   8.826  49.938  1.00  0.00     0.217 HD
ENDBRANCH  13  27
TORSDOF 2
ENDMDL
