MODEL 1
REMARK VINA RESULT:      -6.6      0.000      0.000
REMARK  9 active torsions:
REMARK  status: ('A' for Active; 'I' for Inactive)
REMARK    1  A    between atoms: C2_3  and  C3_4 
REMARK    2  A    between atoms: C2_3  and  N5_15 
REMARK    3  A    between atoms: C6_9  and  N4_10 
REMARK    4  A    between atoms: N4_10  and  C7_11 
REMARK    5  A    between atoms: C7_11  and  C8_12 
REMARK    6  A    between atoms: C8_12  and  C9_13 
REMARK       I    between atoms: N5_15  and  C10_16 
REMARK    7  A    between atoms: C10_16  and  C11_18 
REMARK    8  A    between atoms: C11_18  and  O2_19 
REMARK    9  A    between atoms: O2_19  and  C12_20 
ROOT
HETATM    1  C1  UNL     1      27.322   5.131  48.707  1.00  0.00     0.179 C 
HETATM    2  N1  UNL     1      27.112   3.795  49.277  1.00  0.00    -0.278 NA
HETATM    3  C2  UNL     1      26.130   3.641  50.129  1.00  0.00     0.126 C 
ENDROOT
BRANCH   3   4
HETATM    4  C3  UNL     1      25.250   4.728  50.529  1.00  0.00     0.085 C 
HETATM    5  C4  UNL     1      24.052   4.656  51.069  1.00  0.00     0.107 A 
HETATM    6  N2  UNL     1      23.283   3.514  51.413  1.00  0.00    -0.238 NA
HETATM    7  C6  UNL     1      23.223   5.785  51.443  1.00  0.00     0.154 A 
HETATM    8  C5  UNL     1      22.168   3.920  51.914  1.00  0.00     0.236 A 
HETATM    9  N3  UNL     1      22.143   5.341  51.928  1.00  0.00    -0.222 NA
BRANCH   7  10
HETATM   10  N4  UNL     1      23.552   7.180  51.297  1.00  0.00    -0.369 N 
HETATM   11  H6  UNL     1      24.179   7.603  52.039  1.00  0.00     0.161 HD
BRANCH  10  12
HETATM   12  C7  UNL     1      23.038   7.950  50.178  1.00  0.00     0.149 C 
BRANCH  12  13
HETATM   13  C8  UNL     1      24.086   8.233  49.171  1.00  0.00    -0.000 C 
BRANCH  13  14
HETATM   14  C9  UNL     1      25.349   8.441  49.575  1.00  0.00     0.053 C 
HETATM   15 BR1  UNL     1      27.061   9.115  50.102  1.00  0.00    -0.064 Br
ENDBRANCH  13  14
ENDBRANCH  12  13
ENDBRANCH  10  12
ENDBRANCH   7  10
ENDBRANCH   3   4
BRANCH   3  16
HETATM   16  N5  UNL     1      26.052   2.303  50.589  1.00  0.00    -0.310 N 
HETATM   17  C10 UNL     1      26.771   1.716  51.672  1.00  0.00     0.247 C 
HETATM   18  O1  UNL     1      27.556   2.538  52.255  1.00  0.00    -0.271 OA
HETATM   19  H11 UNL     1      25.391   1.653  50.081  1.00  0.00     0.170 HD
BRANCH  17  20
HETATM   20  C11 UNL     1      26.539   0.264  51.999  1.00  0.00     0.278 C 
BRANCH  20  21
HETATM   21  O2  UNL     1      26.246   0.192  53.375  1.00  0.00    -0.342 OA
BRANCH  21  22
HETATM   22  C12 UNL     1      25.043  -0.235  53.882  1.00  0.00     0.069 A 
HETATM   23  C13 UNL     1      24.782  -0.941  55.037  1.00  0.00     0.037 A 
HETATM   24  C14 UNL     1      23.527  -1.314  55.447  1.00  0.00     0.003 A 
HETATM   25  C15 UNL     1      22.448  -0.963  54.655  1.00  0.00     0.000 A 
HETATM   26  C16 UNL     1      22.683  -0.260  53.502  1.00  0.00     0.003 A 
HETATM   27  C17 UNL     1      23.951   0.117  53.087  1.00  0.00     0.037 A 
ENDBRANCH  21  22
ENDBRANCH  20  21
ENDBRANCH  17  20
ENDBRANCH   3  16
TORSDOF 9
ENDMDL
MODEL 2
REMARK VINA RESULT:      -6.4      4.656      6.477
REMARK  9 active torsions:
REMARK  status: ('A' for Active; 'I' for Inactive)
REMARK    1  A    between atoms: C2_3  and  C3_4 
REMARK    2  A    between atoms: C2_3  and  N5_15 
REMARK    3  A    between atoms: C6_9  and  N4_10 
REMARK    4  A    between atoms: N4_10  and  C7_11 
REMARK    5  A    between atoms: C7_11  and  C8_12 
REMARK    6  A    between atoms: C8_12  and  C9_13 
REMARK       I    between atoms: N5_15  and  C10_16 
REMARK    7  A    between atoms: C10_16  and  C11_18 
REMARK    8  A    between atoms: C11_18  and  O2_19 
REMARK    9  A    between atoms: O2_19  and  C12_20 
ROOT
HETATM    1  C1  UNL     1      21.419  -0.474  54.578  1.00  0.00     0.179 C 
HETATM    2  N1  UNL     1      22.763  -0.201  54.054  1.00  0.00    -0.278 NA
HETATM    3  C2  UNL     1      22.865   0.586  53.013  1.00  0.00     0.126 C 
ENDROOT
BRANCH   3   4
HETATM    4  C3  UNL     1      21.714   1.193  52.362  1.00  0.00     0.085 C 
HETATM    5  C4  UNL     1      21.616   1.656  51.135  1.00  0.00     0.107 A 
HETATM    6  N2  UNL     1      22.591   1.696  50.104  1.00  0.00    -0.238 NA
HETATM    7  C6  UNL     1      20.434   2.253  50.547  1.00  0.00     0.154 A 
HETATM    8  C5  UNL     1      22.053   2.240  49.067  1.00  0.00     0.236 A 
HETATM    9  N3  UNL     1      20.704   2.584  49.356  1.00  0.00    -0.222 NA
BRANCH   7  10
HETATM   10  N4  UNL     1      19.159   2.449  51.189  1.00  0.00    -0.369 N 
HETATM   11  H6  UNL     1      19.131   3.129  52.001  1.00  0.00     0.161 HD
BRANCH  10  12
HETATM   12  C7  UNL     1      17.980   1.737  50.728  1.00  0.00     0.149 C 
BRANCH  12  13
HETATM   13  C8  UNL     1      18.177   0.270  50.736  1.00  0.00    -0.000 C 
BRANCH  13  14
HETATM   14  C9  UNL     1      17.925  -0.422  51.859  1.00  0.00     0.053 C 
HETATM   15 BR1  UNL     1      17.826  -1.663  53.312  1.00  0.00    -0.064 Br
ENDBRANCH  13  14
ENDBRANCH  12  13
ENDBRANCH  10  12
ENDBRANCH   7  10
ENDBRANCH   3   4
BRANCH   3  16
HETATM   16  N5  UNL     1      24.218   0.755  52.626  1.00  0.00    -0.310 N 
HETATM   17  C10 UNL     1      25.034   1.909  52.814  1.00  0.00     0.247 C 
HETATM   18  O1  UNL     1      24.423   2.864  53.403  1.00  0.00    -0.271 OA
HETATM   19  H11 UNL     1      24.689  -0.057  52.141  1.00  0.00     0.170 HD
BRANCH  17  20
HETATM   20  C11 UNL     1      26.458   1.883  52.324  1.00  0.00     0.278 C 
BRANCH  20  21
HETATM   21  O2  UNL     1      27.238   1.318  53.353  1.00  0.00    -0.342 OA
BRANCH  21  22
HETATM   22  C12 UNL     1      27.822   0.076  53.280  1.00  0.00     0.069 A 
HETATM   23  C13 UNL     1      27.270  -1.127  52.894  1.00  0.00     0.037 A 
HETATM   24  C14 UNL     1      27.957  -2.315  52.858  1.00  0.00     0.003 A 
HETATM   25  C15 UNL     1      29.289  -2.313  53.232  1.00  0.00     0.000 A 
HETATM   26  C16 UNL     1      29.859  -1.127  53.620  1.00  0.00     0.003 A 
HETATM   27  C17 UNL     1      29.166   0.073  53.656  1.00  0.00     0.037 A 
ENDBRANCH  21  22
ENDBRANCH  20  21
ENDBRANCH  17  20
ENDBRANCH   3  16
TORSDOF 9
ENDMDL
MODEL 3
REMARK VINA RESULT:      -6.4      4.730      7.194
REMARK  9 active torsions:
REMARK  status: ('A' for Active; 'I' for Inactive)
REMARK    1  A    between atoms: C2_3  and  C3_4 
REMARK    2  A    between atoms: C2_3  and  N5_15 
REMARK    3  A    between atoms: C6_9  and  N4_10 
REMARK    4  A    between atoms: N4_10  and  C7_11 
REMARK    5  A    between atoms: C7_11  and  C8_12 
REMARK    6  A    between atoms: C8_12  and  C9_13 
REMARK       I    between atoms: N5_15  and  C10_16 
REMARK    7  A    between atoms: C10_16  and  C11_18 
REMARK    8  A    between atoms: C11_18  and  O2_19 
REMARK    9  A    between atoms: O2_19  and  C12_20 
ROOT
HETATM    1  C1  UNL     1      21.040   1.841  49.027  1.00  0.00     0.179 C 
HETATM    2  N1  UNL     1      22.365   1.858  49.658  1.00  0.00    -0.278 NA
HETATM    3  C2  UNL     1      22.488   1.307  50.839  1.00  0.00     0.126 C 
ENDROOT
BRANCH   3   4
HETATM    4  C3  UNL     1      21.376   0.686  51.543  1.00  0.00     0.085 C 
HETATM    5  C4  UNL     1      21.406  -0.058  52.628  1.00  0.00     0.107 A 
HETATM    6  N2  UNL     1      22.516  -0.464  53.415  1.00  0.00    -0.238 NA
HETATM    7  C6  UNL     1      20.256  -0.650  53.281  1.00  0.00     0.154 A 
HETATM    8  C5  UNL     1      22.073  -1.188  54.384  1.00  0.00     0.236 A 
HETATM    9  N3  UNL     1      20.660  -1.297  54.290  1.00  0.00    -0.222 NA
BRANCH   7  10
HETATM   10  N4  UNL     1      18.880  -0.535  52.869  1.00  0.00    -0.369 N 
HETATM   11  H6  UNL     1      18.642   0.260  52.210  1.00  0.00     0.161 HD
BRANCH  10  12
HETATM   12  C7  UNL     1      17.882  -1.476  53.346  1.00  0.00     0.149 C 
BRANCH  12  13
HETATM   13  C8  UNL     1      16.621  -1.386  52.578  1.00  0.00    -0.000 C 
BRANCH  13  14
HETATM   14  C9  UNL     1      15.824  -0.318  52.741  1.00  0.00     0.053 C 
HETATM   15 BR1  UNL     1      14.400   0.950  52.911  1.00  0.00    -0.064 Br
ENDBRANCH  13  14
ENDBRANCH  12  13
ENDBRANCH  10  12
ENDBRANCH   7  10
ENDBRANCH   3   4
BRANCH   3  16
HETATM   16  N5  UNL     1      23.820   1.399  51.314  1.00  0.00    -0.310 N 
HETATM   17  C10 UNL     1      24.348   2.357  52.228  1.00  0.00     0.247 C 
HETATM   18  O1  UNL     1      23.477   3.201  52.628  1.00  0.00    -0.271 OA
HETATM   19  H11 UNL     1      24.512   0.682  50.961  1.00  0.00     0.170 HD
BRANCH  17  20
HETATM   20  C11 UNL     1      25.804   2.278  52.607  1.00  0.00     0.278 C 
BRANCH  20  21
HETATM   21  O2  UNL     1      25.955   1.149  53.437  1.00  0.00    -0.342 OA
BRANCH  21  22
HETATM   22  C12 UNL     1      27.044   0.313  53.405  1.00  0.00     0.069 A 
HETATM   23  C13 UNL     1      27.126  -1.001  52.998  1.00  0.00     0.037 A 
HETATM   24  C14 UNL     1      28.281  -1.743  53.009  1.00  0.00     0.003 A 
HETATM   25  C15 UNL     1      29.443  -1.138  53.457  1.00  0.00     0.000 A 
HETATM   26  C16 UNL     1      29.385   0.169  53.867  1.00  0.00     0.003 A 
HETATM   27  C17 UNL     1      28.219   0.918  53.856  1.00  0.00     0.037 A 
ENDBRANCH  21  22
ENDBRANCH  20  21
ENDBRANCH  17  20
ENDBRANCH   3  16
TORSDOF 9
ENDMDL
MODEL 4
REMARK VINA RESULT:      -6.3      4.415      6.492
REMARK  9 active torsions:
REMARK  status: ('A' for Active; 'I' for Inactive)
REMARK    1  A    between atoms: C2_3  and  C3_4 
REMARK    2  A    between atoms: C2_3  and  N5_15 
REMARK    3  A    between atoms: C6_9  and  N4_10 
REMARK    4  A    between atoms: N4_10  and  C7_11 
REMARK    5  A    between atoms: C7_11  and  C8_12 
REMARK    6  A    between atoms: C8_12  and  C9_13 
REMARK       I    between atoms: N5_15  and  C10_16 
REMARK    7  A    between atoms: C10_16  and  C11_18 
REMARK    8  A    between atoms: C11_18  and  O2_19 
REMARK    9  A    between atoms: O2_19  and  C12_20 
ROOT
HETATM    1  C1  UNL     1      23.408   5.549  52.226  1.00  0.00     0.179 C 
HETATM    2  N1  UNL     1      22.457   4.477  51.909  1.00  0.00    -0.278 NA
HETATM    3  C2  UNL     1      22.807   3.247  52.188  1.00  0.00     0.126 C 
ENDROOT
BRANCH   3   4
HETATM    4  C3  UNL     1      24.086   2.904  52.791  1.00  0.00     0.085 C 
HETATM    5  C4  UNL     1      24.508   1.729  53.205  1.00  0.00     0.107 A 
HETATM    6  N2  UNL     1      23.847   0.473  53.183  1.00  0.00    -0.238 NA
HETATM    7  C6  UNL     1      25.800   1.455  53.802  1.00  0.00     0.154 A 
HETATM    8  C5  UNL     1      24.641  -0.404  53.695  1.00  0.00     0.236 A 
HETATM    9  N3  UNL     1      25.858   0.222  54.077  1.00  0.00    -0.222 NA
BRANCH   7  10
HETATM   10  N4  UNL     1      26.852   2.408  54.049  1.00  0.00    -0.369 N 
HETATM   11  H6  UNL     1      26.677   3.128  54.807  1.00  0.00     0.161 HD
BRANCH  10  12
HETATM   12  C7  UNL     1      28.087   2.364  53.286  1.00  0.00     0.149 C 
BRANCH  12  13
HETATM   13  C8  UNL     1      29.136   1.577  53.972  1.00  0.00    -0.000 C 
BRANCH  13  14
HETATM   14  C9  UNL     1      29.298   0.281  53.662  1.00  0.00     0.053 C 
HETATM   15 BR1  UNL     1      29.809  -1.556  53.492  1.00  0.00    -0.064 Br
ENDBRANCH  13  14
ENDBRANCH  12  13
ENDBRANCH  10  12
ENDBRANCH   7  10
ENDBRANCH   3   4
BRANCH   3  16
HETATM   16  N5  UNL     1      21.790   2.328  51.829  1.00  0.00    -0.310 N 
HETATM   17  C10 UNL     1      21.687   1.579  50.619  1.00  0.00     0.247 C 
HETATM   18  O1  UNL     1      22.648   1.804  49.808  1.00  0.00    -0.271 OA
HETATM   19  H11 UNL     1      21.011   2.168  52.526  1.00  0.00     0.170 HD
BRANCH  17  20
HETATM   20  C11 UNL     1      20.517   0.649  50.435  1.00  0.00     0.278 C 
BRANCH  20  21
HETATM   21  O2  UNL     1      19.610   0.913  51.480  1.00  0.00    -0.342 OA
BRANCH  21  22
HETATM   22  C12 UNL     1      18.702  -0.001  51.958  1.00  0.00     0.069 A 
HETATM   23  C13 UNL     1      18.791  -0.830  53.056  1.00  0.00     0.037 A 
HETATM   24  C14 UNL     1      17.810  -1.710  53.441  1.00  0.00     0.003 A 
HETATM   25  C15 UNL     1      16.655  -1.775  52.682  1.00  0.00     0.000 A 
HETATM   26  C16 UNL     1      16.544  -0.960  51.585  1.00  0.00     0.003 A 
HETATM   27  C17 UNL     1      17.534  -0.071  51.196  1.00  0.00     0.037 A 
ENDBRANCH  21  22
ENDBRANCH  20  21
ENDBRANCH  17  20
ENDBRANCH   3  16
TORSDOF 9
ENDMDL
MODEL 5
REMARK VINA RESULT:      -6.3      3.584      7.824
REMARK  9 active torsions:
REMARK  status: ('A' for Active; 'I' for Inactive)
REMARK    1  A    between atoms: C2_3  and  C3_4 
REMARK    2  A    between atoms: C2_3  and  N5_15 
REMARK    3  A    between atoms: C6_9  and  N4_10 
REMARK    4  A    between atoms: N4_10  and  C7_11 
REMARK    5  A    between atoms: C7_11  and  C8_12 
REMARK    6  A    between atoms: C8_12  and  C9_13 
REMARK       I    between atoms: N5_15  and  C10_16 
REMARK    7  A    between atoms: C10_16  and  C11_18 
REMARK    8  A    between atoms: C11_18  and  O2_19 
REMARK    9  A    between atoms: O2_19  and  C12_20 
ROOT
HETATM    1  C1  UNL     1      21.494   1.485  48.931  1.00  0.00     0.179 C 
HETATM    2  N1  UNL     1      22.453   2.590  49.031  1.00  0.00    -0.278 NA
HETATM    3  C2  UNL     1      23.265   2.606  50.059  1.00  0.00     0.126 C 
ENDROOT
BRANCH   3   4
HETATM    4  C3  UNL     1      23.252   1.583  51.093  1.00  0.00     0.085 C 
HETATM    5  C4  UNL     1      24.157   1.340  52.016  1.00  0.00     0.107 A 
HETATM    6  N2  UNL     1      25.391   1.996  52.266  1.00  0.00    -0.238 NA
HETATM    7  C6  UNL     1      24.083   0.298  53.021  1.00  0.00     0.154 A 
HETATM    8  C5  UNL     1      25.953   1.418  53.272  1.00  0.00     0.236 A 
HETATM    9  N3  UNL     1      25.126   0.359  53.735  1.00  0.00    -0.222 NA
BRANCH   7  10
HETATM   10  N4  UNL     1      23.016  -0.654  53.197  1.00  0.00    -0.369 N 
HETATM   11  H6  UNL     1      22.784  -1.270  52.366  1.00  0.00     0.161 HD
BRANCH  10  12
HETATM   12  C7  UNL     1      22.307  -0.748  54.460  1.00  0.00     0.149 C 
BRANCH  12  13
HETATM   13  C8  UNL     1      21.001  -0.051  54.418  1.00  0.00    -0.000 C 
BRANCH  13  14
HETATM   14  C9  UNL     1      20.364   0.082  53.244  1.00  0.00     0.053 C 
HETATM   15 BR1  UNL     1      19.131   0.225  51.786  1.00  0.00    -0.064 Br
ENDBRANCH  13  14
ENDBRANCH  12  13
ENDBRANCH  10  12
ENDBRANCH   7  10
ENDBRANCH   3   4
BRANCH   3  16
HETATM   16  N5  UNL     1      24.129   3.728  50.016  1.00  0.00    -0.310 N 
HETATM   17  C10 UNL     1      23.880   5.033  50.531  1.00  0.00     0.247 C 
HETATM   18  O1  UNL     1      22.733   5.143  51.082  1.00  0.00    -0.271 OA
HETATM   19  H11 UNL     1      25.070   3.598  49.552  1.00  0.00     0.170 HD
BRANCH  17  20
HETATM   20  C11 UNL     1      24.941   6.092  50.381  1.00  0.00     0.278 C 
BRANCH  20  21
HETATM   21  O2  UNL     1      25.373   6.057  49.040  1.00  0.00    -0.342 OA
BRANCH  21  22
HETATM   22  C12 UNL     1      26.672   6.269  48.646  1.00  0.00     0.069 A 
HETATM   23  C13 UNL     1      27.301   7.448  48.308  1.00  0.00     0.037 A 
HETATM   24  C14 UNL     1      28.617   7.540  47.928  1.00  0.00     0.003 A 
HETATM   25  C15 UNL     1      29.366   6.378  47.879  1.00  0.00     0.000 A 
HETATM   26  C16 UNL     1      28.761   5.193  48.211  1.00  0.00     0.003 A 
HETATM   27  C17 UNL     1      27.432   5.100  48.595  1.00  0.00     0.037 A 
ENDBRANCH  21  22
ENDBRANCH  20  21
ENDBRANCH  17  20
ENDBRANCH   3  16
TORSDOF 9
ENDMDL
MODEL 6
REMARK VINA RESULT:      -6.3      2.726      4.298
REMARK  9 active torsions:
REMARK  status: ('A' for Active; 'I' for Inactive)
REMARK    1  A    between atoms: C2_3  and  C3_4 
REMARK    2  A    between atoms: C2_3  and  N5_15 
REMARK    3  A    between atoms: C6_9  and  N4_10 
REMARK    4  A    between atoms: N4_10  and  C7_11 
REMARK    5  A    between atoms: C7_11  and  C8_12 
REMARK    6  A    between atoms: C8_12  and  C9_13 
REMARK       I    between atoms: N5_15  and  C10_16 
REMARK    7  A    between atoms: C10_16  and  C11_18 
REMARK    8  A    between atoms: C11_18  and  O2_19 
REMARK    9  A    between atoms: O2_19  and  C12_20 
ROOT
HETATM    1  C1  UNL     1      22.724   3.559  48.314  1.00  0.00     0.179 C 
HETATM    2  N1  UNL     1      23.437   2.908  49.419  1.00  0.00    -0.278 NA
HETATM    3  C2  UNL     1      24.491   3.512  49.908  1.00  0.00     0.126 C 
ENDROOT
BRANCH   3   4
HETATM    4  C3  UNL     1      24.977   4.788  49.405  1.00  0.00     0.085 C 
HETATM    5  C4  UNL     1      26.192   5.106  49.015  1.00  0.00     0.107 A 
HETATM    6  N2  UNL     1      27.365   4.307  48.972  1.00  0.00    -0.238 NA
HETATM    7  C6  UNL     1      26.612   6.403  48.524  1.00  0.00     0.154 A 
HETATM    8  C5  UNL     1      28.327   5.036  48.521  1.00  0.00     0.236 A 
HETATM    9  N3  UNL     1      27.845   6.343  48.245  1.00  0.00    -0.222 NA
BRANCH   7  10
HETATM   10  N4  UNL     1      25.787   7.574  48.372  1.00  0.00    -0.369 N 
HETATM   11  H6  UNL     1      25.540   8.103  49.257  1.00  0.00     0.161 HD
BRANCH  10  12
HETATM   12  C7  UNL     1      25.326   7.991  47.060  1.00  0.00     0.149 C 
BRANCH  12  13
HETATM   13  C8  UNL     1      23.869   7.787  46.891  1.00  0.00    -0.000 C 
BRANCH  13  14
HETATM   14  C9  UNL     1      23.054   7.957  47.944  1.00  0.00     0.053 C 
HETATM   15 BR1  UNL     1      21.864   7.809  49.437  1.00  0.00    -0.064 Br
ENDBRANCH  13  14
ENDBRANCH  12  13
ENDBRANCH  10  12
ENDBRANCH   7  10
ENDBRANCH   3   4
BRANCH   3  16
HETATM   16  N5  UNL     1      25.069   2.766  50.965  1.00  0.00    -0.310 N 
HETATM   17  C10 UNL     1      24.783   2.874  52.358  1.00  0.00     0.247 C 
HETATM   18  O1  UNL     1      23.900   3.759  52.620  1.00  0.00    -0.271 OA
HETATM   19  H11 UNL     1      25.796   2.043  50.708  1.00  0.00     0.170 HD
BRANCH  17  20
HETATM   20  C11 UNL     1      25.515   1.979  53.323  1.00  0.00     0.278 C 
BRANCH  20  21
HETATM   21  O2  UNL     1      26.879   2.019  52.972  1.00  0.00    -0.342 OA
BRANCH  21  22
HETATM   22  C12 UNL     1      27.745   0.965  53.135  1.00  0.00     0.069 A 
HETATM   23  C13 UNL     1      29.060   0.970  53.547  1.00  0.00     0.037 A 
HETATM   24  C14 UNL     1      29.833  -0.157  53.676  1.00  0.00     0.003 A 
HETATM   25  C15 UNL     1      29.263  -1.380  53.373  1.00  0.00     0.000 A 
HETATM   26  C16 UNL     1      27.955  -1.410  52.960  1.00  0.00     0.003 A 
HETATM   27  C17 UNL     1      27.174  -0.272  52.831  1.00  0.00     0.037 A 
ENDBRANCH  21  22
ENDBRANCH  20  21
ENDBRANCH  17  20
ENDBRANCH   3  16
TORSDOF 9
ENDMDL
MODEL 7
REMARK VINA RESULT:      -6.2      3.968      6.985
REMARK  9 active torsions:
REMARK  status: ('A' for Active; 'I' for Inactive)
REMARK    1  A    between atoms: C2_3  and  C3_4 
REMARK    2  A    between atoms: C2_3  and  N5_15 
REMARK    3  A    between atoms: C6_9  and  N4_10 
REMARK    4  A    between atoms: N4_10  and  C7_11 
REMARK    5  A    between atoms: C7_11  and  C8_12 
REMARK    6  A    between atoms: C8_12  and  C9_13 
REMARK       I    between atoms: N5_15  and  C10_16 
REMARK    7  A    between atoms: C10_16  and  C11_18 
REMARK    8  A    between atoms: C11_18  and  O2_19 
REMARK    9  A    between atoms: O2_19  and  C12_20 
ROOT
HETATM    1  C1  UNL     1      24.250  -1.251  55.395  1.00  0.00     0.179 C 
HETATM    2  N1  UNL     1      23.232  -1.072  54.353  1.00  0.00    -0.278 NA
HETATM    3  C2  UNL     1      23.430  -0.136  53.459  1.00  0.00     0.126 C 
ENDROOT
BRANCH   3   4
HETATM    4  C3  UNL     1      24.604   0.724  53.459  1.00  0.00     0.085 C 
HETATM    5  C4  UNL     1      25.006   1.561  52.527  1.00  0.00     0.107 A 
HETATM    6  N2  UNL     1      24.419   1.864  51.270  1.00  0.00    -0.238 NA
HETATM    7  C6  UNL     1      26.193   2.391  52.589  1.00  0.00     0.154 A 
HETATM    8  C5  UNL     1      25.159   2.742  50.686  1.00  0.00     0.236 A 
HETATM    9  N3  UNL     1      26.264   3.064  51.520  1.00  0.00    -0.222 NA
BRANCH   7  10
HETATM   10  N4  UNL     1      27.142   2.455  53.670  1.00  0.00    -0.369 N 
HETATM   11  H6  UNL     1      26.778   2.794  54.606  1.00  0.00     0.161 HD
BRANCH  10  12
HETATM   12  C7  UNL     1      28.527   2.067  53.466  1.00  0.00     0.149 C 
BRANCH  12  13
HETATM   13  C8  UNL     1      28.841   0.770  54.107  1.00  0.00    -0.000 C 
BRANCH  13  14
HETATM   14  C9  UNL     1      28.204  -0.339  53.698  1.00  0.00     0.053 C 
HETATM   15 BR1  UNL     1      27.320  -1.755  52.761  1.00  0.00    -0.064 Br
ENDBRANCH  13  14
ENDBRANCH  12  13
ENDBRANCH  10  12
ENDBRANCH   7  10
ENDBRANCH   3   4
BRANCH   3  16
HETATM   16  N5  UNL     1      22.368  -0.086  52.522  1.00  0.00    -0.310 N 
HETATM   17  C10 UNL     1      21.038   0.375  52.746  1.00  0.00     0.247 C 
HETATM   18  O1  UNL     1      20.841   0.776  53.943  1.00  0.00    -0.271 OA
HETATM   19  H11 UNL     1      22.570  -0.425  51.542  1.00  0.00     0.170 HD
BRANCH  17  20
HETATM   20  C11 UNL     1      20.054   0.345  51.605  1.00  0.00     0.278 C 
BRANCH  20  21
HETATM   21  O2  UNL     1      19.985   1.652  51.083  1.00  0.00    -0.342 OA
BRANCH  21  22
HETATM   22  C12 UNL     1      20.789   2.119  50.072  1.00  0.00     0.069 A 
HETATM   23  C13 UNL     1      21.257   3.396  49.846  1.00  0.00     0.037 A 
HETATM   24  C14 UNL     1      22.064   3.747  48.794  1.00  0.00     0.003 A 
HETATM   25  C15 UNL     1      22.436   2.762  47.897  1.00  0.00     0.000 A 
HETATM   26  C16 UNL     1      21.983   1.484  48.101  1.00  0.00     0.003 A 
HETATM   27  C17 UNL     1      21.167   1.128  49.164  1.00  0.00     0.037 A 
ENDBRANCH  21  22
ENDBRANCH  20  21
ENDBRANCH  17  20
ENDBRANCH   3  16
TORSDOF 9
ENDMDL
MODEL 8
REMARK VINA RESULT:      -6.2      4.804      7.272
REMARK  9 active torsions:
REMARK  status: ('A' for Active; 'I' for Inactive)
REMARK    1  A    between atoms: C2_3  and  C3_4 
REMARK    2  A    between atoms: C2_3  and  N5_15 
REMARK    3  A    between atoms: C6_9  and  N4_10 
REMARK    4  A    between atoms: N4_10  and  C7_11 
REMARK    5  A    between atoms: C7_11  and  C8_12 
REMARK    6  A    between atoms: C8_12  and  C9_13 
REMARK       I    between atoms: N5_15  and  C10_16 
REMARK    7  A    between atoms: C10_16  and  C11_18 
REMARK    8  A    between atoms: C11_18  and  O2_19 
REMARK    9  A    between atoms: O2_19  and  C12_20 
ROOT
HETATM    1  C1  UNL     1      24.379   3.465  51.209  1.00  0.00     0.179 C 
HETATM    2  N1  UNL     1      22.965   3.153  50.972  1.00  0.00    -0.278 NA
HETATM    3  C2  UNL     1      22.467   2.090  51.552  1.00  0.00     0.126 C 
ENDROOT
BRANCH   3   4
HETATM    4  C3  UNL     1      23.252   1.216  52.412  1.00  0.00     0.085 C 
HETATM    5  C4  UNL     1      22.827   0.361  53.317  1.00  0.00     0.107 A 
HETATM    6  N2  UNL     1      21.500   0.047  53.711  1.00  0.00    -0.238 NA
HETATM    7  C6  UNL     1      23.666  -0.482  54.145  1.00  0.00     0.154 A 
HETATM    8  C5  UNL     1      21.560  -0.849  54.635  1.00  0.00     0.236 A 
HETATM    9  N3  UNL     1      22.919  -1.171  54.897  1.00  0.00    -0.222 NA
BRANCH   7  10
HETATM   10  N4  UNL     1      25.106  -0.541  54.131  1.00  0.00    -0.369 N 
HETATM   11  H6  UNL     1      25.610  -0.104  54.955  1.00  0.00     0.161 HD
BRANCH  10  12
HETATM   12  C7  UNL     1      25.812  -1.175  53.032  1.00  0.00     0.149 C 
BRANCH  12  13
HETATM   13  C8  UNL     1      26.935  -0.345  52.541  1.00  0.00    -0.000 C 
BRANCH  13  14
HETATM   14  C9  UNL     1      28.135  -0.442  53.136  1.00  0.00     0.053 C 
HETATM   15 BR1  UNL     1      29.942  -0.786  53.665  1.00  0.00    -0.064 Br
ENDBRANCH  13  14
ENDBRANCH  12  13
ENDBRANCH  10  12
ENDBRANCH   7  10
ENDBRANCH   3   4
BRANCH   3  16
HETATM   16  N5  UNL     1      21.098   1.921  51.232  1.00  0.00    -0.310 N 
HETATM   17  C10 UNL     1      19.978   2.530  51.871  1.00  0.00     0.247 C 
HETATM   18  O1  UNL     1      20.309   3.303  52.833  1.00  0.00    -0.271 OA
HETATM   19  H11 UNL     1      20.863   1.274  50.430  1.00  0.00     0.170 HD
BRANCH  17  20
HETATM   20  C11 UNL     1      18.592   2.214  51.371  1.00  0.00     0.278 C 
BRANCH  20  21
HETATM   21  O2  UNL     1      18.604   0.873  50.940  1.00  0.00    -0.342 OA
BRANCH  21  22
HETATM   22  C12 UNL     1      17.729  -0.086  51.391  1.00  0.00     0.069 A 
HETATM   23  C13 UNL     1      16.511  -0.471  50.873  1.00  0.00     0.037 A 
HETATM   24  C14 UNL     1      15.718  -1.452  51.413  1.00  0.00     0.003 A 
HETATM   25  C15 UNL     1      16.162  -2.100  52.552  1.00  0.00     0.000 A 
HETATM   26  C16 UNL     1      17.370  -1.733  53.086  1.00  0.00     0.003 A 
HETATM   27  C17 UNL     1      18.172  -0.742  52.541  1.00  0.00     0.037 A 
ENDBRANCH  21  22
ENDBRANCH  20  21
ENDBRANCH  17  20
ENDBRANCH   3  16
TORSDOF 9
ENDMDL
MODEL 9
REMARK VINA RESULT:      -6.2      2.732      4.606
REMARK  9 active torsions:
REMARK  status: ('A' for Active; 'I' for Inactive)
REMARK    1  A    between atoms: C2_3  and  C3_4 
REMARK    2  A    between atoms: C2_3  and  N5_15 
REMARK    3  A    between atoms: C6_9  and  N4_10 
REMARK    4  A    between atoms: N4_10  and  C7_11 
REMARK    5  A    between atoms: C7_11  and  C8_12 
REMARK    6  A    between atoms: C8_12  and  C9_13 
REMARK       I    between atoms: N5_15  and  C10_16 
REMARK    7  A    between atoms: C10_16  and  C11_18 
REMARK    8  A    between atoms: C11_18  and  O2_19 
REMARK    9  A    between atoms: O2_19  and  C12_20 
ROOT
HETATM    1  C1  UNL     1      22.688   7.435  50.543  1.00  0.00     0.179 C 
HETATM    2  N1  UNL     1      23.113   6.162  51.136  1.00  0.00    -0.278 NA
HETATM    3  C2  UNL     1      24.346   5.772  50.929  1.00  0.00     0.126 C 
ENDROOT
BRANCH   3   4
HETATM    4  C3  UNL     1      25.298   6.541  50.143  1.00  0.00     0.085 C 
HETATM    5  C4  UNL     1      26.331   6.107  49.453  1.00  0.00     0.107 A 
HETATM    6  N2  UNL     1      26.807   4.781  49.278  1.00  0.00    -0.238 NA
HETATM    7  C6  UNL     1      27.246   6.931  48.690  1.00  0.00     0.154 A 
HETATM    8  C5  UNL     1      27.849   4.829  48.522  1.00  0.00     0.236 A 
HETATM    9  N3  UNL     1      28.114   6.178  48.161  1.00  0.00    -0.222 NA
BRANCH   7  10
HETATM   10  N4  UNL     1      27.197   8.363  48.544  1.00  0.00    -0.369 N 
HETATM   11  H6  UNL     1      26.728   8.739  47.671  1.00  0.00     0.161 HD
BRANCH  10  12
HETATM   12  C7  UNL     1      27.769   9.232  49.558  1.00  0.00     0.149 C 
BRANCH  12  13
HETATM   13  C8  UNL     1      29.227   9.409  49.380  1.00  0.00    -0.000 C 
BRANCH  13  14
HETATM   14  C9  UNL     1      29.710  10.619  49.055  1.00  0.00     0.053 C 
HETATM   15 BR1  UNL     1      30.448  12.383  48.978  1.00  0.00    -0.064 Br
ENDBRANCH  13  14
ENDBRANCH  12  13
ENDBRANCH  10  12
ENDBRANCH   7  10
ENDBRANCH   3   4
BRANCH   3  16
HETATM   16  N5  UNL     1      24.607   4.532  51.564  1.00  0.00    -0.310 N 
HETATM   17  C10 UNL     1      24.303   3.228  51.074  1.00  0.00     0.247 C 
HETATM   18  O1  UNL     1      23.732   3.243  49.931  1.00  0.00    -0.271 OA
HETATM   19  H11 UNL     1      25.082   4.560  52.508  1.00  0.00     0.170 HD
BRANCH  17  20
HETATM   20  C11 UNL     1      24.669   2.031  51.912  1.00  0.00     0.278 C 
BRANCH  20  21
HETATM   21  O2  UNL     1      25.379   2.510  53.030  1.00  0.00    -0.342 OA
BRANCH  21  22
HETATM   22  C12 UNL     1      26.527   1.933  53.516  1.00  0.00     0.069 A 
HETATM   23  C13 UNL     1      27.841   2.305  53.327  1.00  0.00     0.037 A 
HETATM   24  C14 UNL     1      28.916   1.647  53.869  1.00  0.00     0.003 A 
HETATM   25  C15 UNL     1      28.674   0.536  54.657  1.00  0.00     0.000 A 
HETATM   26  C16 UNL     1      27.375   0.146  54.859  1.00  0.00     0.003 A 
HETATM   27  C17 UNL     1      26.288   0.811  54.312  1.00  0.00     0.037 A 
ENDBRANCH  21  22
ENDBRANCH  20  21
ENDBRANCH  17  20
ENDBRANCH   3  16
TORSDOF 9
ENDMDL
