MODEL 1
REMARK VINA RESULT:      -7.9      0.000      0.000
REMARK  4 active torsions:
REMARK  status: ('A' for Active; 'I' for Inactive)
REMARK    1  A    between atoms: C5_5  and  C6_6 
REMARK    2  A    between atoms: C8_8  and  C9_9 
REMARK    3  A    between atoms: N2_16  and  N3_17 
REMARK    4  A    between atoms: N3_17  and  C15_18 
ROOT
HETATM    1  C15 UNL     1      23.860   4.537  51.948  1.00  0.00     0.129 C 
HETATM    2  C16 UNL     1      22.408   4.626  51.666  1.00  0.00     0.194 C 
HETATM    3  S1  UNL     1      21.027   4.608  51.277  1.00  0.00    -0.195 SA
ENDROOT
BRANCH   1   4
HETATM    4  N3  UNL     1      24.185   3.772  53.106  1.00  0.00    -0.220 NA
HETATM    5  H16 UNL     1      24.715   4.287  53.811  1.00  0.00     0.148 HD
BRANCH   4   6
HETATM    6  N2  UNL     1      24.627   2.496  52.843  1.00  0.00    -0.227 N 
HETATM    7  C6  UNL     1      23.984   1.277  52.534  1.00  0.00     0.137 C 
HETATM    8  C7  UNL     1      24.782   0.312  53.390  1.00  0.00     0.091 C 
HETATM    9  C8  UNL     1      26.152   0.890  53.137  1.00  0.00     0.068 C 
HETATM   10  N1  UNL     1      25.979   2.127  52.834  1.00  0.00    -0.165 NA
BRANCH   7  11
HETATM   11  C5  UNL     1      22.528   1.193  52.745  1.00  0.00     0.035 C 
HETATM   12  C4  UNL     1      22.071   0.245  53.758  1.00  0.00    -0.024 C 
HETATM   13  C3  UNL     1      20.965  -0.411  53.359  1.00  0.00    -0.026 C 
HETATM   14  C2  UNL     1      20.584   0.057  52.015  1.00  0.00     0.004 C 
HETATM   15  C1  UNL     1      19.491   1.095  52.026  1.00  0.00     0.014 C 
HETATM   16  C17 UNL     1      21.842   0.731  51.490  1.00  0.00     0.018 C 
ENDBRANCH   7  11
BRANCH   9  17
HETATM   17  C9  UNL     1      27.402   0.149  53.232  1.00  0.00    -0.010 A 
HETATM   18  C10 UNL     1      27.456  -1.210  52.979  1.00  0.00     0.013 A 
HETATM   19  C11 UNL     1      28.695  -1.850  53.091  1.00  0.00     0.001 A 
HETATM   20  C12 UNL     1      29.861  -1.166  53.443  1.00  0.00     0.000 A 
HETATM   21  C13 UNL     1      29.773   0.188  53.688  1.00  0.00     0.001 A 
HETATM   22  C14 UNL     1      28.548   0.829  53.580  1.00  0.00     0.013 A 
ENDBRANCH   9  17
ENDBRANCH   4   6
ENDBRANCH   1   4
TORSDOF 4
ENDMDL
MODEL 2
REMARK VINA RESULT:      -7.8      1.072      1.550
REMARK  4 active torsions:
REMARK  status: ('A' for Active; 'I' for Inactive)
REMARK    1  A    between atoms: C5_5  and  C6_6 
REMARK    2  A    between atoms: C8_8  and  C9_9 
REMARK    3  A    between atoms: N2_16  and  N3_17 
REMARK    4  A    between atoms: N3_17  and  C15_18 
ROOT
HETATM    1  C15 UNL     1      23.704   4.428  51.998  1.00  0.00     0.129 C 
HETATM    2  C16 UNL     1      24.559   4.415  50.788  1.00  0.00     0.194 C 
HETATM    3  S1  UNL     1      25.419   4.554  49.648  1.00  0.00    -0.195 SA
ENDROOT
BRANCH   1   4
HETATM    4  N3  UNL     1      24.273   3.764  53.124  1.00  0.00    -0.220 NA
HETATM    5  H16 UNL     1      24.895   4.350  53.683  1.00  0.00     0.148 HD
BRANCH   4   6
HETATM    6  N2  UNL     1      24.725   2.490  52.869  1.00  0.00    -0.227 N 
HETATM    7  C6  UNL     1      24.091   1.264  52.567  1.00  0.00     0.137 C 
HETATM    8  C7  UNL     1      24.896   0.311  53.429  1.00  0.00     0.091 C 
HETATM    9  C8  UNL     1      26.262   0.897  53.173  1.00  0.00     0.068 C 
HETATM   10  N1  UNL     1      26.080   2.131  52.862  1.00  0.00    -0.165 NA
BRANCH   7  11
HETATM   11  C5  UNL     1      22.636   1.171  52.778  1.00  0.00     0.035 C 
HETATM   12  C4  UNL     1      22.179   0.152  53.721  1.00  0.00    -0.024 C 
HETATM   13  C3  UNL     1      21.069  -0.468  53.280  1.00  0.00    -0.026 C 
HETATM   14  C2  UNL     1      20.683   0.099  51.976  1.00  0.00     0.004 C 
HETATM   15  C1  UNL     1      19.595   1.138  52.068  1.00  0.00     0.014 C 
HETATM   16  C17 UNL     1      21.942   0.805  51.496  1.00  0.00     0.018 C 
ENDBRANCH   7  11
BRANCH   9  17
HETATM   17  C9  UNL     1      27.517   0.166  53.272  1.00  0.00    -0.010 A 
HETATM   18  C10 UNL     1      28.700   0.806  53.598  1.00  0.00     0.013 A 
HETATM   19  C11 UNL     1      29.864   0.035  53.673  1.00  0.00     0.001 A 
HETATM   20  C12 UNL     1      29.867  -1.341  53.434  1.00  0.00     0.000 A 
HETATM   21  C13 UNL     1      28.672  -1.948  53.111  1.00  0.00     0.001 A 
HETATM   22  C14 UNL     1      27.513  -1.190  53.034  1.00  0.00     0.013 A 
ENDBRANCH   9  17
ENDBRANCH   4   6
ENDBRANCH   1   4
TORSDOF 4
ENDMDL
MODEL 3
REMARK VINA RESULT:      -7.8      1.956      6.322
REMARK  4 active torsions:
REMARK  status: ('A' for Active; 'I' for Inactive)
REMARK    1  A    between atoms: C5_5  and  C6_6 
REMARK    2  A    between atoms: C8_8  and  C9_9 
REMARK    3  A    between atoms: N2_16  and  N3_17 
REMARK    4  A    between atoms: N3_17  and  C15_18 
ROOT
HETATM    1  C15 UNL     1      25.532   3.225  50.644  1.00  0.00     0.129 C 
HETATM    2  C16 UNL     1      26.467   3.913  49.723  1.00  0.00     0.194 C 
HETATM    3  S1  UNL     1      27.291   4.711  48.861  1.00  0.00    -0.195 SA
ENDROOT
BRANCH   1   4
HETATM    4  N3  UNL     1      26.080   2.937  51.928  1.00  0.00    -0.220 NA
HETATM    5  H16 UNL     1      27.101   2.905  51.948  1.00  0.00     0.148 HD
BRANCH   4   6
HETATM    6  N2  UNL     1      25.438   1.930  52.611  1.00  0.00    -0.227 N 
HETATM    7  C6  UNL     1      25.872   0.762  53.275  1.00  0.00     0.137 C 
HETATM    8  C7  UNL     1      24.823  -0.231  52.814  1.00  0.00     0.091 C 
HETATM    9  C8  UNL     1      23.619   0.671  52.919  1.00  0.00     0.068 C 
HETATM   10  N1  UNL     1      24.050   1.876  52.794  1.00  0.00    -0.165 NA
BRANCH   7  11
HETATM   11  C5  UNL     1      27.256   0.312  53.045  1.00  0.00     0.035 C 
HETATM   12  C4  UNL     1      27.428  -1.078  52.628  1.00  0.00    -0.024 C 
HETATM   13  C3  UNL     1      28.485  -1.650  53.234  1.00  0.00    -0.026 C 
HETATM   14  C2  UNL     1      29.121  -0.666  54.127  1.00  0.00     0.004 C 
HETATM   15  C1  UNL     1      30.327   0.006  53.523  1.00  0.00     0.014 C 
HETATM   16  C17 UNL     1      28.055   0.402  54.315  1.00  0.00     0.018 C 
ENDBRANCH   7  11
BRANCH   9  17
HETATM   17  C9  UNL     1      22.250   0.219  53.122  1.00  0.00    -0.010 A 
HETATM   18  C10 UNL     1      21.181   0.864  52.526  1.00  0.00     0.013 A 
HETATM   19  C11 UNL     1      19.896   0.369  52.770  1.00  0.00     0.001 A 
HETATM   20  C12 UNL     1      19.664  -0.742  53.584  1.00  0.00     0.000 A 
HETATM   21  C13 UNL     1      20.750  -1.362  54.163  1.00  0.00     0.001 A 
HETATM   22  C14 UNL     1      22.028  -0.877  53.926  1.00  0.00     0.013 A 
ENDBRANCH   9  17
ENDBRANCH   4   6
ENDBRANCH   1   4
TORSDOF 4
ENDMDL
MODEL 4
REMARK VINA RESULT:      -7.7      3.037      5.287
REMARK  4 active torsions:
REMARK  status: ('A' for Active; 'I' for Inactive)
REMARK    1  A    between atoms: C5_5  and  C6_6 
REMARK    2  A    between atoms: C8_8  and  C9_9 
REMARK    3  A    between atoms: N2_16  and  N3_17 
REMARK    4  A    between atoms: N3_17  and  C15_18 
ROOT
HETATM    1  C15 UNL     1      27.169  -0.673  52.458  1.00  0.00     0.129 C 
HETATM    2  C16 UNL     1      27.894  -0.227  53.671  1.00  0.00     0.194 C 
HETATM    3  S1  UNL     1      28.632   0.335  54.765  1.00  0.00    -0.195 SA
ENDROOT
BRANCH   1   4
HETATM    4  N3  UNL     1      25.750  -0.577  52.556  1.00  0.00    -0.220 NA
HETATM    5  H16 UNL     1      25.248  -1.359  52.132  1.00  0.00     0.148 HD
BRANCH   4   6
HETATM    6  N2  UNL     1      25.241   0.672  52.289  1.00  0.00    -0.227 N 
HETATM    7  C6  UNL     1      23.984   1.285  52.488  1.00  0.00     0.137 C 
HETATM    8  C7  UNL     1      23.819   2.023  51.174  1.00  0.00     0.091 C 
HETATM    9  C8  UNL     1      25.236   2.518  51.030  1.00  0.00     0.068 C 
HETATM   10  N1  UNL     1      25.979   1.701  51.689  1.00  0.00    -0.165 NA
BRANCH   7  11
HETATM   11  C5  UNL     1      22.841   0.419  52.830  1.00  0.00     0.035 C 
HETATM   12  C4  UNL     1      21.528   1.058  52.863  1.00  0.00    -0.024 C 
HETATM   13  C3  UNL     1      20.788   0.616  53.897  1.00  0.00    -0.026 C 
HETATM   14  C2  UNL     1      21.566  -0.378  54.658  1.00  0.00     0.004 C 
HETATM   15  C1  UNL     1      21.225  -1.805  54.311  1.00  0.00     0.014 C 
HETATM   16  C17 UNL     1      23.001  -0.137  54.217  1.00  0.00     0.018 C 
ENDBRANCH   7  11
BRANCH   9  17
HETATM   17  C9  UNL     1      25.638   3.699  50.280  1.00  0.00    -0.010 A 
HETATM   18  C10 UNL     1      24.877   4.855  50.292  1.00  0.00     0.013 A 
HETATM   19  C11 UNL     1      25.330   5.947  49.545  1.00  0.00     0.001 A 
HETATM   20  C12 UNL     1      26.511   5.906  48.799  1.00  0.00     0.000 A 
HETATM   21  C13 UNL     1      27.245   4.739  48.808  1.00  0.00     0.001 A 
HETATM   22  C14 UNL     1      26.802   3.651  49.546  1.00  0.00     0.013 A 
ENDBRANCH   9  17
ENDBRANCH   4   6
ENDBRANCH   1   4
TORSDOF 4
ENDMDL
MODEL 5
REMARK VINA RESULT:      -7.3      3.557      5.896
REMARK  4 active torsions:
REMARK  status: ('A' for Active; 'I' for Inactive)
REMARK    1  A    between atoms: C5_5  and  C6_6 
REMARK    2  A    between atoms: C8_8  and  C9_9 
REMARK    3  A    between atoms: N2_16  and  N3_17 
REMARK    4  A    between atoms: N3_17  and  C15_18 
ROOT
HETATM    1  C15 UNL     1      22.230   4.971  49.455  1.00  0.00     0.129 C 
HETATM    2  C16 UNL     1      22.407   6.398  49.813  1.00  0.00     0.194 C 
HETATM    3  S1  UNL     1      22.595   7.731  50.308  1.00  0.00    -0.195 SA
ENDROOT
BRANCH   1   4
HETATM    4  N3  UNL     1      23.365   4.379  48.828  1.00  0.00    -0.220 NA
HETATM    5  H16 UNL     1      23.134   3.724  48.080  1.00  0.00     0.148 HD
BRANCH   4   6
HETATM    6  N2  UNL     1      24.350   3.969  49.696  1.00  0.00    -0.227 N 
HETATM    7  C6  UNL     1      25.696   4.346  49.904  1.00  0.00     0.137 C 
HETATM    8  C7  UNL     1      26.342   2.987  50.094  1.00  0.00     0.091 C 
HETATM    9  C8  UNL     1      25.266   2.359  50.944  1.00  0.00     0.068 C 
HETATM   10  N1  UNL     1      24.171   2.969  50.660  1.00  0.00    -0.165 NA
BRANCH   7  11
HETATM   11  C5  UNL     1      26.347   5.174  48.874  1.00  0.00     0.035 C 
HETATM   12  C4  UNL     1      27.741   4.857  48.570  1.00  0.00    -0.024 C 
HETATM   13  C3  UNL     1      28.475   5.972  48.396  1.00  0.00    -0.026 C 
HETATM   14  C2  UNL     1      27.612   7.152  48.574  1.00  0.00     0.004 C 
HETATM   15  C1  UNL     1      27.122   7.743  47.276  1.00  0.00     0.014 C 
HETATM   16  C17 UNL     1      26.397   6.611  49.311  1.00  0.00     0.018 C 
ENDBRANCH   7  11
BRANCH   9  17
HETATM   17  C9  UNL     1      25.475   1.271  51.889  1.00  0.00    -0.010 A 
HETATM   18  C10 UNL     1      24.489   0.890  52.781  1.00  0.00     0.013 A 
HETATM   19  C11 UNL     1      24.766  -0.164  53.657  1.00  0.00     0.001 A 
HETATM   20  C12 UNL     1      25.992  -0.834  53.656  1.00  0.00     0.000 A 
HETATM   21  C13 UNL     1      26.954  -0.431  52.755  1.00  0.00     0.001 A 
HETATM   22  C14 UNL     1      26.686   0.615  51.883  1.00  0.00     0.013 A 
ENDBRANCH   9  17
ENDBRANCH   4   6
ENDBRANCH   1   4
TORSDOF 4
ENDMDL
MODEL 6
REMARK VINA RESULT:      -7.0      2.506      4.597
REMARK  4 active torsions:
REMARK  status: ('A' for Active; 'I' for Inactive)
REMARK    1  A    between atoms: C5_5  and  C6_6 
REMARK    2  A    between atoms: C8_8  and  C9_9 
REMARK    3  A    between atoms: N2_16  and  N3_17 
REMARK    4  A    between atoms: N3_17  and  C15_18 
ROOT
HETATM    1  C15 UNL     1      22.216   2.238  51.638  1.00  0.00     0.129 C 
HETATM    2  C16 UNL     1      20.893   2.895  51.517  1.00  0.00     0.194 C 
HETATM    3  S1  UNL     1      19.657   3.622  51.521  1.00  0.00    -0.195 SA
ENDROOT
BRANCH   1   4
HETATM    4  N3  UNL     1      23.150   2.612  50.628  1.00  0.00    -0.220 NA
HETATM    5  H16 UNL     1      22.991   2.161  49.725  1.00  0.00     0.148 HD
BRANCH   4   6
HETATM    6  N2  UNL     1      24.459   2.660  51.048  1.00  0.00    -0.227 N 
HETATM    7  C6  UNL     1      25.541   3.532  50.796  1.00  0.00     0.137 C 
HETATM    8  C7  UNL     1      26.671   2.535  50.623  1.00  0.00     0.091 C 
HETATM    9  C8  UNL     1      26.297   1.595  51.741  1.00  0.00     0.068 C 
HETATM   10  N1  UNL     1      25.030   1.724  51.921  1.00  0.00    -0.165 NA
BRANCH   7  11
HETATM   11  C5  UNL     1      25.413   4.484  49.679  1.00  0.00     0.035 C 
HETATM   12  C4  UNL     1      26.641   4.811  48.958  1.00  0.00    -0.024 C 
HETATM   13  C3  UNL     1      26.702   6.120  48.652  1.00  0.00    -0.026 C 
HETATM   14  C2  UNL     1      25.491   6.791  49.155  1.00  0.00     0.004 C 
HETATM   15  C1  UNL     1      24.432   6.994  48.102  1.00  0.00     0.014 C 
HETATM   16  C17 UNL     1      24.929   5.816  50.178  1.00  0.00     0.018 C 
ENDBRANCH   7  11
BRANCH   9  17
HETATM   17  C9  UNL     1      27.225   0.726  52.450  1.00  0.00    -0.010 A 
HETATM   18  C10 UNL     1      27.051  -0.646  52.478  1.00  0.00     0.013 A 
HETATM   19  C11 UNL     1      27.986  -1.413  53.181  1.00  0.00     0.001 A 
HETATM   20  C12 UNL     1      29.076  -0.841  53.843  1.00  0.00     0.000 A 
HETATM   21  C13 UNL     1      29.222   0.529  53.794  1.00  0.00     0.001 A 
HETATM   22  C14 UNL     1      28.297   1.296  53.100  1.00  0.00     0.013 A 
ENDBRANCH   9  17
ENDBRANCH   4   6
ENDBRANCH   1   4
TORSDOF 4
ENDMDL
MODEL 7
REMARK VINA RESULT:      -7.0      2.706      6.157
REMARK  4 active torsions:
REMARK  status: ('A' for Active; 'I' for Inactive)
REMARK    1  A    between atoms: C5_5  and  C6_6 
REMARK    2  A    between atoms: C8_8  and  C9_9 
REMARK    3  A    between atoms: N2_16  and  N3_17 
REMARK    4  A    between atoms: N3_17  and  C15_18 
ROOT
HETATM    1  C15 UNL     1      27.568   1.461  52.363  1.00  0.00     0.129 C 
HETATM    2  C16 UNL     1      28.060   0.794  53.591  1.00  0.00     0.194 C 
HETATM    3  S1  UNL     1      28.669   0.233  54.763  1.00  0.00    -0.195 SA
ENDROOT
BRANCH   1   4
HETATM    4  N3  UNL     1      26.599   2.481  52.598  1.00  0.00    -0.220 NA
HETATM    5  H16 UNL     1      26.718   2.973  53.485  1.00  0.00     0.148 HD
BRANCH   4   6
HETATM    6  N2  UNL     1      25.308   2.126  52.282  1.00  0.00    -0.227 N 
HETATM    7  C6  UNL     1      24.314   2.680  51.445  1.00  0.00     0.137 C 
HETATM    8  C7  UNL     1      23.088   2.527  52.325  1.00  0.00     0.091 C 
HETATM    9  C8  UNL     1      23.384   1.150  52.863  1.00  0.00     0.068 C 
HETATM   10  N1  UNL     1      24.660   0.999  52.805  1.00  0.00    -0.165 NA
BRANCH   7  11
HETATM   11  C5  UNL     1      24.519   4.051  50.946  1.00  0.00     0.035 C 
HETATM   12  C4  UNL     1      23.314   4.828  50.666  1.00  0.00    -0.024 C 
HETATM   13  C3  UNL     1      23.442   5.551  49.537  1.00  0.00    -0.026 C 
HETATM   14  C2  UNL     1      24.774   5.310  48.958  1.00  0.00     0.004 C 
HETATM   15  C1  UNL     1      25.781   6.381  49.293  1.00  0.00     0.014 C 
HETATM   16  C17 UNL     1      25.240   4.026  49.627  1.00  0.00     0.018 C 
ENDBRANCH   7  11
BRANCH   9  17
HETATM   17  C9  UNL     1      22.385   0.207  53.344  1.00  0.00    -0.010 A 
HETATM   18  C10 UNL     1      22.726  -0.843  54.178  1.00  0.00     0.013 A 
HETATM   19  C11 UNL     1      21.708  -1.706  54.598  1.00  0.00     0.001 A 
HETATM   20  C12 UNL     1      20.378  -1.540  54.206  1.00  0.00     0.000 A 
HETATM   21  C13 UNL     1      20.071  -0.484  53.374  1.00  0.00     0.001 A 
HETATM   22  C14 UNL     1      21.075   0.376  52.953  1.00  0.00     0.013 A 
ENDBRANCH   9  17
ENDBRANCH   4   6
ENDBRANCH   1   4
TORSDOF 4
ENDMDL
MODEL 8
REMARK VINA RESULT:      -7.0      3.237      4.926
REMARK  4 active torsions:
REMARK  status: ('A' for Active; 'I' for Inactive)
REMARK    1  A    between atoms: C5_5  and  C6_6 
REMARK    2  A    between atoms: C8_8  and  C9_9 
REMARK    3  A    between atoms: N2_16  and  N3_17 
REMARK    4  A    between atoms: N3_17  and  C15_18 
ROOT
HETATM    1  C15 UNL     1      19.809   2.734  51.157  1.00  0.00     0.129 C 
HETATM    2  C16 UNL     1      18.494   3.412  51.232  1.00  0.00     0.194 C 
HETATM    3  S1  UNL     1      17.178   3.956  51.407  1.00  0.00    -0.195 SA
ENDROOT
BRANCH   1   4
HETATM    4  N3  UNL     1      20.851   3.395  51.871  1.00  0.00    -0.220 NA
HETATM    5  H16 UNL     1      20.659   4.378  52.073  1.00  0.00     0.148 HD
BRANCH   4   6
HETATM    6  N2  UNL     1      22.120   3.117  51.419  1.00  0.00    -0.227 N 
HETATM    7  C6  UNL     1      23.043   2.075  51.662  1.00  0.00     0.137 C 
HETATM    8  C7  UNL     1      24.332   2.864  51.788  1.00  0.00     0.091 C 
HETATM    9  C8  UNL     1      24.095   3.838  50.662  1.00  0.00     0.068 C 
HETATM   10  N1  UNL     1      22.820   3.927  50.515  1.00  0.00    -0.165 NA
BRANCH   7  11
HETATM   11  C5  UNL     1      22.784   1.175  52.799  1.00  0.00     0.035 C 
HETATM   12  C4  UNL     1      23.955   0.580  53.438  1.00  0.00    -0.024 C 
HETATM   13  C3  UNL     1      23.741  -0.710  53.759  1.00  0.00    -0.026 C 
HETATM   14  C2  UNL     1      22.378  -1.090  53.352  1.00  0.00     0.004 C 
HETATM   15  C1  UNL     1      21.378  -1.050  54.479  1.00  0.00     0.014 C 
HETATM   16  C17 UNL     1      21.978  -0.014  52.355  1.00  0.00     0.018 C 
ENDBRANCH   7  11
BRANCH   9  17
HETATM   17  C9  UNL     1      25.139   4.523  49.914  1.00  0.00    -0.010 A 
HETATM   18  C10 UNL     1      24.986   5.833  49.495  1.00  0.00     0.013 A 
HETATM   19  C11 UNL     1      26.035   6.422  48.782  1.00  0.00     0.001 A 
HETATM   20  C12 UNL     1      27.216   5.736  48.486  1.00  0.00     0.000 A 
HETATM   21  C13 UNL     1      27.337   4.432  48.918  1.00  0.00     0.001 A 
HETATM   22  C14 UNL     1      26.300   3.842  49.626  1.00  0.00     0.013 A 
ENDBRANCH   9  17
ENDBRANCH   4   6
ENDBRANCH   1   4
TORSDOF 4
ENDMDL
MODEL 9
REMARK VINA RESULT:      -6.9      1.484      6.254
REMARK  4 active torsions:
REMARK  status: ('A' for Active; 'I' for Inactive)
REMARK    1  A    between atoms: C5_5  and  C6_6 
REMARK    2  A    between atoms: C8_8  and  C9_9 
REMARK    3  A    between atoms: N2_16  and  N3_17 
REMARK    4  A    between atoms: N3_17  and  C15_18 
ROOT
HETATM    1  C15 UNL     1      23.681   4.703  51.583  1.00  0.00     0.129 C 
HETATM    2  C16 UNL     1      23.123   5.184  50.298  1.00  0.00     0.194 C 
HETATM    3  S1  UNL     1      22.708   5.746  49.045  1.00  0.00    -0.195 SA
ENDROOT
BRANCH   1   4
HETATM    4  N3  UNL     1      24.292   3.417  51.511  1.00  0.00    -0.220 NA
HETATM    5  H16 UNL     1      24.616   3.160  50.577  1.00  0.00     0.148 HD
BRANCH   4   6
HETATM    6  N2  UNL     1      23.632   2.430  52.205  1.00  0.00    -0.227 N 
HETATM    7  C6  UNL     1      24.038   1.424  53.110  1.00  0.00     0.137 C 
HETATM    8  C7  UNL     1      23.215   0.251  52.614  1.00  0.00     0.091 C 
HETATM    9  C8  UNL     1      21.928   0.992  52.350  1.00  0.00     0.068 C 
HETATM   10  N1  UNL     1      22.249   2.217  52.127  1.00  0.00    -0.165 NA
BRANCH   7  11
HETATM   11  C5  UNL     1      25.479   1.135  53.218  1.00  0.00     0.035 C 
HETATM   12  C4  UNL     1      26.113   0.543  52.043  1.00  0.00    -0.024 C 
HETATM   13  C3  UNL     1      26.992  -0.417  52.386  1.00  0.00    -0.026 C 
HETATM   14  C2  UNL     1      27.017  -0.547  53.854  1.00  0.00     0.004 C 
HETATM   15  C1  UNL     1      28.161   0.187  54.505  1.00  0.00     0.014 C 
HETATM   16  C17 UNL     1      25.732   0.128  54.304  1.00  0.00     0.018 C 
ENDBRANCH   7  11
BRANCH   9  17
HETATM   17  C9  UNL     1      20.601   0.392  52.356  1.00  0.00    -0.010 A 
HETATM   18  C10 UNL     1      19.687   0.655  51.352  1.00  0.00     0.013 A 
HETATM   19  C11 UNL     1      18.432   0.041  51.428  1.00  0.00     0.001 A 
HETATM   20  C12 UNL     1      18.083  -0.818  52.473  1.00  0.00     0.000 A 
HETATM   21  C13 UNL     1      19.017  -1.060  53.457  1.00  0.00     0.001 A 
HETATM   22  C14 UNL     1      20.263  -0.454  53.388  1.00  0.00     0.013 A 
ENDBRANCH   9  17
ENDBRANCH   4   6
ENDBRANCH   1   4
TORSDOF 4
ENDMDL
