MODEL 1
REMARK VINA RESULT:      -7.2      0.000      0.000
REMARK  9 active torsions:
REMARK  status: ('A' for Active; 'I' for Inactive)
REMARK    1  A    between atoms: C4_6  and  N3_7 
REMARK    2  A    between atoms: N3_7  and  C5_8 
REMARK    3  A    between atoms: C9_12  and  C10_13 
REMARK    4  A    between atoms: C10_13  and  O1_14 
REMARK    5  A    between atoms: O1_14  and  C11_15 
REMARK    6  A    between atoms: C13_19  and  N5_20 
REMARK    7  A    between atoms: N5_20  and  C14_21 
REMARK    8  A    between atoms: C14_21  and  C15_22 
REMARK    9  A    between atoms: C15_22  and  N6_23 
ROOT
HETATM    1  C1  UNL     1      29.892   1.946  54.546  1.00  0.00     0.159 C 
HETATM    2  N1  UNL     1      28.665   1.202  54.323  1.00  0.00    -0.328 N 
HETATM    3  C2  UNL     1      28.204   0.139  55.003  1.00  0.00     0.211 A 
HETATM    4  N2  UNL     1      27.012  -0.271  54.485  1.00  0.00    -0.236 NA
HETATM    5  C3  UNL     1      26.679   0.534  53.445  1.00  0.00     0.151 A 
HETATM    6  C4  UNL     1      25.660   0.669  52.527  1.00  0.00     0.180 A 
HETATM    7  N4  UNL     1      25.691   1.639  51.602  1.00  0.00    -0.043 NA
HETATM    8  C13 UNL     1      26.724   2.526  51.537  1.00  0.00     0.726 A 
HETATM    9  N7  UNL     1      27.701   2.379  52.433  1.00  0.00    -0.042 NA
HETATM   10  C16 UNL     1      27.730   1.432  53.379  1.00  0.00     0.182 A 
ENDROOT
BRANCH   6  11
HETATM   11  N3  UNL     1      24.621  -0.277  52.661  1.00  0.00    -0.338 N 
HETATM   12  H5  UNL     1      24.921  -1.191  52.269  1.00  0.00     0.167 HD
BRANCH  11  13
HETATM   13  C5  UNL     1      23.321  -0.116  53.234  1.00  0.00     0.034 A 
HETATM   14  C6  UNL     1      22.989  -0.872  54.335  1.00  0.00     0.029 A 
HETATM   15  C7  UNL     1      21.696  -0.691  54.842  1.00  0.00     0.003 A 
HETATM   16  C8  UNL     1      20.845   0.214  54.227  1.00  0.00     0.009 A 
HETATM   17  C9  UNL     1      21.213   0.946  53.133  1.00  0.00    -0.032 A 
HETATM   18  C12 UNL     1      22.482   0.786  52.614  1.00  0.00     0.038 A 
BRANCH  17  19
HETATM   19  C10 UNL     1      20.149   1.830  52.635  1.00  0.00     0.209 C 
BRANCH  19  20
HETATM   20  O1  UNL     1      20.500   2.475  51.456  1.00  0.00    -0.358 OA
BRANCH  20  21
HETATM   21  C11 UNL     1      20.436   3.861  51.650  1.00  0.00     0.391 C 
HETATM   22  F1  UNL     1      21.284   4.233  52.679  1.00  0.00    -0.227 F 
ENDBRANCH  20  21
ENDBRANCH  19  20
ENDBRANCH  17  19
ENDBRANCH  11  13
ENDBRANCH   6  11
BRANCH   8  23
HETATM   23  N5  UNL     1      26.744   3.564  50.573  1.00  0.00    -0.221 N 
HETATM   24  H14 UNL     1      27.706   3.809  50.190  1.00  0.00     0.177 HD
BRANCH  23  25
HETATM   25  C14 UNL     1      25.641   4.306  50.063  1.00  0.00     0.168 C 
BRANCH  25  26
HETATM   26  C15 UNL     1      25.991   5.511  49.245  1.00  0.00     0.286 C 
BRANCH  26  27
HETATM   27  N6  UNL     1      27.408   5.672  49.158  1.00  0.00     0.079 N 
HETATM   28  H19 UNL     1      27.666   6.645  48.845  1.00  0.00     0.312 HD
HETATM   29  H20 UNL     1      27.953   5.456  49.999  1.00  0.00     0.312 HD
ENDBRANCH  26  27
ENDBRANCH  25  26
ENDBRANCH  23  25
ENDBRANCH   8  23
TORSDOF 9
ENDMDL
MODEL 2
REMARK VINA RESULT:      -7.0      3.885      7.823
REMARK  9 active torsions:
REMARK  status: ('A' for Active; 'I' for Inactive)
REMARK    1  A    between atoms: C4_6  and  N3_7 
REMARK    2  A    between atoms: N3_7  and  C5_8 
REMARK    3  A    between atoms: C9_12  and  C10_13 
REMARK    4  A    between atoms: C10_13  and  O1_14 
REMARK    5  A    between atoms: O1_14  and  C11_15 
REMARK    6  A    between atoms: C13_19  and  N5_20 
REMARK    7  A    between atoms: N5_20  and  C14_21 
REMARK    8  A    between atoms: C14_21  and  C15_22 
REMARK    9  A    between atoms: C15_22  and  N6_23 
ROOT
HETATM    1  C1  UNL     1      22.869   0.697  53.457  1.00  0.00     0.159 C 
HETATM    2  N1  UNL     1      23.421   1.346  52.280  1.00  0.00    -0.328 N 
HETATM    3  C2  UNL     1      22.810   1.608  51.113  1.00  0.00     0.211 A 
HETATM    4  N2  UNL     1      23.670   2.232  50.260  1.00  0.00    -0.236 NA
HETATM    5  C3  UNL     1      24.870   2.385  50.874  1.00  0.00     0.151 A 
HETATM    6  C4  UNL     1      26.116   2.907  50.593  1.00  0.00     0.180 A 
HETATM    7  N4  UNL     1      27.099   2.867  51.505  1.00  0.00    -0.043 NA
HETATM    8  C13 UNL     1      26.904   2.316  52.736  1.00  0.00     0.726 A 
HETATM    9  N7  UNL     1      25.694   1.816  52.987  1.00  0.00    -0.042 NA
HETATM   10  C16 UNL     1      24.672   1.823  52.122  1.00  0.00     0.182 A 
ENDROOT
BRANCH   6  11
HETATM   11  N3  UNL     1      26.239   3.469  49.305  1.00  0.00    -0.338 N 
HETATM   12  H5  UNL     1      25.844   2.820  48.597  1.00  0.00     0.167 HD
BRANCH  11  13
HETATM   13  C5  UNL     1      26.799   4.726  48.917  1.00  0.00     0.034 A 
HETATM   14  C6  UNL     1      25.967   5.819  48.836  1.00  0.00     0.029 A 
HETATM   15  C7  UNL     1      26.563   7.020  48.431  1.00  0.00     0.003 A 
HETATM   16  C8  UNL     1      27.919   7.044  48.143  1.00  0.00     0.009 A 
HETATM   17  C9  UNL     1      28.711   5.934  48.236  1.00  0.00    -0.032 A 
HETATM   18  C12 UNL     1      28.149   4.739  48.633  1.00  0.00     0.038 A 
BRANCH  17  19
HETATM   19  C10 UNL     1      30.113   6.184  47.868  1.00  0.00     0.209 C 
BRANCH  19  20
HETATM   20  O1  UNL     1      31.007   5.652  48.789  1.00  0.00    -0.358 OA
BRANCH  20  21
HETATM   21  C11 UNL     1      31.949   4.863  48.115  1.00  0.00     0.391 C 
HETATM   22  F1  UNL     1      31.371   4.292  46.995  1.00  0.00    -0.227 F 
ENDBRANCH  20  21
ENDBRANCH  19  20
ENDBRANCH  17  19
ENDBRANCH  11  13
ENDBRANCH   6  11
BRANCH   8  23
HETATM   23  N5  UNL     1      27.938   2.295  53.704  1.00  0.00    -0.221 N 
HETATM   24  H14 UNL     1      27.948   3.121  54.376  1.00  0.00     0.177 HD
BRANCH  23  25
HETATM   25  C14 UNL     1      28.951   1.310  53.883  1.00  0.00     0.168 C 
BRANCH  25  26
HETATM   26  C15 UNL     1      28.641   0.229  54.872  1.00  0.00     0.286 C 
BRANCH  26  27
HETATM   27  N6  UNL     1      27.421  -0.433  54.534  1.00  0.00     0.079 N 
HETATM   28  H19 UNL     1      26.603  -0.020  55.054  1.00  0.00     0.312 HD
HETATM   29  H20 UNL     1      27.174  -0.473  53.539  1.00  0.00     0.312 HD
ENDBRANCH  26  27
ENDBRANCH  25  26
ENDBRANCH  23  25
ENDBRANCH   8  23
TORSDOF 9
ENDMDL
MODEL 3
REMARK VINA RESULT:      -6.8      2.477      6.668
REMARK  9 active torsions:
REMARK  status: ('A' for Active; 'I' for Inactive)
REMARK    1  A    between atoms: C4_6  and  N3_7 
REMARK    2  A    between atoms: N3_7  and  C5_8 
REMARK    3  A    between atoms: C9_12  and  C10_13 
REMARK    4  A    between atoms: C10_13  and  O1_14 
REMARK    5  A    between atoms: O1_14  and  C11_15 
REMARK    6  A    between atoms: C13_19  and  N5_20 
REMARK    7  A    between atoms: N5_20  and  C14_21 
REMARK    8  A    between atoms: C14_21  and  C15_22 
REMARK    9  A    between atoms: C15_22  and  N6_23 
ROOT
HETATM    1  C1  UNL     1      22.745   0.443  53.554  1.00  0.00     0.159 C 
HETATM    2  N1  UNL     1      23.335   1.121  52.413  1.00  0.00    -0.328 N 
HETATM    3  C2  UNL     1      22.761   1.419  51.236  1.00  0.00     0.211 A 
HETATM    4  N2  UNL     1      23.650   2.062  50.427  1.00  0.00    -0.236 NA
HETATM    5  C3  UNL     1      24.831   2.192  51.081  1.00  0.00     0.151 A 
HETATM    6  C4  UNL     1      26.087   2.715  50.853  1.00  0.00     0.180 A 
HETATM    7  N4  UNL     1      27.041   2.645  51.792  1.00  0.00    -0.043 NA
HETATM    8  C13 UNL     1      26.808   2.060  53.001  1.00  0.00     0.726 A 
HETATM    9  N7  UNL     1      25.588   1.560  53.202  1.00  0.00    -0.042 NA
HETATM   10  C16 UNL     1      24.593   1.596  52.306  1.00  0.00     0.182 A 
ENDROOT
BRANCH   6  11
HETATM   11  N3  UNL     1      26.252   3.313  49.585  1.00  0.00    -0.338 N 
HETATM   12  H5  UNL     1      26.055   2.618  48.839  1.00  0.00     0.167 HD
BRANCH  11  13
HETATM   13  C5  UNL     1      26.624   4.654  49.260  1.00  0.00     0.034 A 
HETATM   14  C6  UNL     1      27.787   4.861  48.553  1.00  0.00     0.029 A 
HETATM   15  C7  UNL     1      28.115   6.194  48.281  1.00  0.00     0.003 A 
HETATM   16  C8  UNL     1      27.276   7.206  48.723  1.00  0.00     0.009 A 
HETATM   17  C9  UNL     1      26.129   6.958  49.423  1.00  0.00    -0.032 A 
HETATM   18  C12 UNL     1      25.782   5.652  49.704  1.00  0.00     0.038 A 
BRANCH  17  19
HETATM   19  C10 UNL     1      25.402   8.178  49.805  1.00  0.00     0.209 C 
BRANCH  19  20
HETATM   20  O1  UNL     1      24.359   8.471  48.934  1.00  0.00    -0.358 OA
BRANCH  20  21
HETATM   21  C11 UNL     1      23.143   8.392  49.626  1.00  0.00     0.391 C 
HETATM   22  F1  UNL     1      23.372   8.035  50.943  1.00  0.00    -0.227 F 
ENDBRANCH  20  21
ENDBRANCH  19  20
ENDBRANCH  17  19
ENDBRANCH  11  13
ENDBRANCH   6  11
BRANCH   8  23
HETATM   23  N5  UNL     1      27.811   2.007  54.000  1.00  0.00    -0.221 N 
HETATM   24  H14 UNL     1      27.540   2.428  54.939  1.00  0.00     0.177 HD
BRANCH  23  25
HETATM   25  C14 UNL     1      29.123   1.463  53.895  1.00  0.00     0.168 C 
BRANCH  25  26
HETATM   26  C15 UNL     1      29.229  -0.019  54.084  1.00  0.00     0.286 C 
BRANCH  26  27
HETATM   27  N6  UNL     1      28.119  -0.516  54.835  1.00  0.00     0.079 N 
HETATM   28  H19 UNL     1      28.430  -0.922  55.757  1.00  0.00     0.312 HD
HETATM   29  H20 UNL     1      27.354   0.141  55.021  1.00  0.00     0.312 HD
ENDBRANCH  26  27
ENDBRANCH  25  26
ENDBRANCH  23  25
ENDBRANCH   8  23
TORSDOF 9
ENDMDL
MODEL 4
REMARK VINA RESULT:      -6.8      3.785      6.460
REMARK  9 active torsions:
REMARK  status: ('A' for Active; 'I' for Inactive)
REMARK    1  A    between atoms: C4_6  and  N3_7 
REMARK    2  A    between atoms: N3_7  and  C5_8 
REMARK    3  A    between atoms: C9_12  and  C10_13 
REMARK    4  A    between atoms: C10_13  and  O1_14 
REMARK    5  A    between atoms: O1_14  and  C11_15 
REMARK    6  A    between atoms: C13_19  and  N5_20 
REMARK    7  A    between atoms: N5_20  and  C14_21 
REMARK    8  A    between atoms: C14_21  and  C15_22 
REMARK    9  A    between atoms: C15_22  and  N6_23 
ROOT
HETATM    1  C1  UNL     1      19.338   5.306  50.049  1.00  0.00     0.159 C 
HETATM    2  N1  UNL     1      20.281   4.213  50.206  1.00  0.00    -0.328 N 
HETATM    3  C2  UNL     1      20.103   2.914  49.915  1.00  0.00     0.211 A 
HETATM    4  N2  UNL     1      21.231   2.206  50.205  1.00  0.00    -0.236 NA
HETATM    5  C3  UNL     1      22.172   3.053  50.695  1.00  0.00     0.151 A 
HETATM    6  C4  UNL     1      23.469   2.999  51.161  1.00  0.00     0.180 A 
HETATM    7  N4  UNL     1      24.093   4.107  51.584  1.00  0.00    -0.043 NA
HETATM    8  C13 UNL     1      23.476   5.322  51.566  1.00  0.00     0.726 A 
HETATM    9  N7  UNL     1      22.222   5.353  51.113  1.00  0.00    -0.042 NA
HETATM   10  C16 UNL     1      21.542   4.284  50.678  1.00  0.00     0.182 A 
ENDROOT
BRANCH   6  11
HETATM   11  N3  UNL     1      24.046   1.711  51.139  1.00  0.00    -0.338 N 
HETATM   12  H5  UNL     1      24.082   1.356  50.164  1.00  0.00     0.167 HD
BRANCH  11  13
HETATM   13  C5  UNL     1      24.543   0.925  52.226  1.00  0.00     0.034 A 
HETATM   14  C6  UNL     1      23.643   0.219  52.991  1.00  0.00     0.029 A 
HETATM   15  C7  UNL     1      24.180  -0.516  54.055  1.00  0.00     0.003 A 
HETATM   16  C8  UNL     1      25.550  -0.496  54.273  1.00  0.00     0.009 A 
HETATM   17  C9  UNL     1      26.410   0.220  53.488  1.00  0.00    -0.032 A 
HETATM   18  C12 UNL     1      25.906   0.953  52.434  1.00  0.00     0.038 A 
BRANCH  17  19
HETATM   19  C10 UNL     1      27.814   0.111  53.911  1.00  0.00     0.209 C 
BRANCH  19  20
HETATM   20  O1  UNL     1      28.280  -1.198  53.876  1.00  0.00    -0.358 OA
BRANCH  20  21
HETATM   21  C11 UNL     1      29.639  -1.196  53.531  1.00  0.00     0.391 C 
HETATM   22  F1  UNL     1      30.121   0.101  53.524  1.00  0.00    -0.227 F 
ENDBRANCH  20  21
ENDBRANCH  19  20
ENDBRANCH  17  19
ENDBRANCH  11  13
ENDBRANCH   6  11
BRANCH   8  23
HETATM   23  N5  UNL     1      24.146   6.495  51.993  1.00  0.00    -0.221 N 
HETATM   24  H14 UNL     1      24.375   6.535  53.032  1.00  0.00     0.177 HD
BRANCH  23  25
HETATM   25  C14 UNL     1      24.544   7.612  51.205  1.00  0.00     0.168 C 
BRANCH  25  26
HETATM   26  C15 UNL     1      25.651   7.357  50.229  1.00  0.00     0.286 C 
BRANCH  26  27
HETATM   27  N6  UNL     1      26.759   8.224  50.482  1.00  0.00     0.079 N 
HETATM   28  H19 UNL     1      26.817   8.993  49.763  1.00  0.00     0.312 HD
HETATM   29  H20 UNL     1      26.809   8.656  51.411  1.00  0.00     0.312 HD
ENDBRANCH  26  27
ENDBRANCH  25  26
ENDBRANCH  23  25
ENDBRANCH   8  23
TORSDOF 9
ENDMDL
MODEL 5
REMARK VINA RESULT:      -6.7      3.334      5.921
REMARK  9 active torsions:
REMARK  status: ('A' for Active; 'I' for Inactive)
REMARK    1  A    between atoms: C4_6  and  N3_7 
REMARK    2  A    between atoms: N3_7  and  C5_8 
REMARK    3  A    between atoms: C9_12  and  C10_13 
REMARK    4  A    between atoms: C10_13  and  O1_14 
REMARK    5  A    between atoms: O1_14  and  C11_15 
REMARK    6  A    between atoms: C13_19  and  N5_20 
REMARK    7  A    between atoms: N5_20  and  C14_21 
REMARK    8  A    between atoms: C14_21  and  C15_22 
REMARK    9  A    between atoms: C15_22  and  N6_23 
ROOT
HETATM    1  C1  UNL     1      27.357   7.729  48.450  1.00  0.00     0.159 C 
HETATM    2  N1  UNL     1      27.098   6.346  48.813  1.00  0.00    -0.328 N 
HETATM    3  C2  UNL     1      27.819   5.257  48.500  1.00  0.00     0.211 A 
HETATM    4  N2  UNL     1      27.244   4.142  49.032  1.00  0.00    -0.236 NA
HETATM    5  C3  UNL     1      26.124   4.501  49.709  1.00  0.00     0.151 A 
HETATM    6  C4  UNL     1      25.123   3.900  50.443  1.00  0.00     0.180 A 
HETATM    7  N4  UNL     1      24.133   4.628  50.980  1.00  0.00    -0.043 NA
HETATM    8  C13 UNL     1      24.081   5.980  50.825  1.00  0.00     0.726 A 
HETATM    9  N7  UNL     1      25.057   6.542  50.111  1.00  0.00    -0.042 NA
HETATM   10  C16 UNL     1      26.071   5.873  49.548  1.00  0.00     0.182 A 
ENDROOT
BRANCH   6  11
HETATM   11  N3  UNL     1      25.249   2.500  50.571  1.00  0.00    -0.338 N 
HETATM   12  H5  UNL     1      25.698   2.107  49.721  1.00  0.00     0.167 HD
BRANCH  11  13
HETATM   13  C5  UNL     1      24.858   1.652  51.653  1.00  0.00     0.034 A 
HETATM   14  C6  UNL     1      23.553   1.220  51.712  1.00  0.00     0.029 A 
HETATM   15  C7  UNL     1      23.219   0.410  52.805  1.00  0.00     0.003 A 
HETATM   16  C8  UNL     1      24.192   0.095  53.741  1.00  0.00     0.009 A 
HETATM   17  C9  UNL     1      25.479   0.545  53.646  1.00  0.00    -0.032 A 
HETATM   18  C12 UNL     1      25.834   1.345  52.579  1.00  0.00     0.038 A 
BRANCH  17  19
HETATM   19  C10 UNL     1      26.337   0.103  54.755  1.00  0.00     0.209 C 
BRANCH  19  20
HETATM   20  O1  UNL     1      27.483   0.877  54.883  1.00  0.00    -0.358 OA
BRANCH  20  21
HETATM   21  C11 UNL     1      28.612   0.068  54.695  1.00  0.00     0.391 C 
HETATM   22  F1  UNL     1      28.690  -0.331  53.372  1.00  0.00    -0.227 F 
ENDBRANCH  20  21
ENDBRANCH  19  20
ENDBRANCH  17  19
ENDBRANCH  11  13
ENDBRANCH   6  11
BRANCH   8  23
HETATM   23  N5  UNL     1      23.046   6.750  51.412  1.00  0.00    -0.221 N 
HETATM   24  H14 UNL     1      23.205   7.026  52.428  1.00  0.00     0.177 HD
BRANCH  23  25
HETATM   25  C14 UNL     1      21.834   7.192  50.809  1.00  0.00     0.168 C 
BRANCH  25  26
HETATM   26  C15 UNL     1      20.881   6.113  50.397  1.00  0.00     0.286 C 
BRANCH  26  27
HETATM   27  N6  UNL     1      20.962   4.997  51.286  1.00  0.00     0.079 N 
HETATM   28  H19 UNL     1      21.706   5.143  52.019  1.00  0.00     0.312 HD
HETATM   29  H20 UNL     1      20.098   4.720  51.764  1.00  0.00     0.312 HD
ENDBRANCH  26  27
ENDBRANCH  25  26
ENDBRANCH  23  25
ENDBRANCH   8  23
TORSDOF 9
ENDMDL
MODEL 6
REMARK VINA RESULT:      -6.6      4.149      6.849
REMARK  9 active torsions:
REMARK  status: ('A' for Active; 'I' for Inactive)
REMARK    1  A    between atoms: C4_6  and  N3_7 
REMARK    2  A    between atoms: N3_7  and  C5_8 
REMARK    3  A    between atoms: C9_12  and  C10_13 
REMARK    4  A    between atoms: C10_13  and  O1_14 
REMARK    5  A    between atoms: O1_14  and  C11_15 
REMARK    6  A    between atoms: C13_19  and  N5_20 
REMARK    7  A    between atoms: N5_20  and  C14_21 
REMARK    8  A    between atoms: C14_21  and  C15_22 
REMARK    9  A    between atoms: C15_22  and  N6_23 
ROOT
HETATM    1  C1  UNL     1      25.906   9.403  48.929  1.00  0.00     0.159 C 
HETATM    2  N1  UNL     1      25.610   8.020  49.261  1.00  0.00    -0.328 N 
HETATM    3  C2  UNL     1      24.495   7.520  49.818  1.00  0.00     0.211 A 
HETATM    4  N2  UNL     1      24.605   6.170  49.966  1.00  0.00    -0.236 NA
HETATM    5  C3  UNL     1      25.814   5.770  49.497  1.00  0.00     0.151 A 
HETATM    6  C4  UNL     1      26.533   4.602  49.355  1.00  0.00     0.180 A 
HETATM    7  N4  UNL     1      27.763   4.612  48.821  1.00  0.00    -0.043 NA
HETATM    8  C13 UNL     1      28.344   5.770  48.398  1.00  0.00     0.726 A 
HETATM    9  N7  UNL     1      27.634   6.889  48.544  1.00  0.00    -0.042 NA
HETATM   10  C16 UNL     1      26.404   6.947  49.070  1.00  0.00     0.182 A 
ENDROOT
BRANCH   6  11
HETATM   11  N3  UNL     1      25.864   3.443  49.805  1.00  0.00    -0.338 N 
HETATM   12  H5  UNL     1      25.384   2.981  49.008  1.00  0.00     0.167 HD
BRANCH  11  13
HETATM   13  C5  UNL     1      25.792   2.895  51.124  1.00  0.00     0.034 A 
HETATM   14  C6  UNL     1      24.601   2.981  51.807  1.00  0.00     0.029 A 
HETATM   15  C7  UNL     1      24.593   2.449  53.102  1.00  0.00     0.003 A 
HETATM   16  C8  UNL     1      25.750   1.879  53.611  1.00  0.00     0.009 A 
HETATM   17  C9  UNL     1      26.915   1.813  52.899  1.00  0.00    -0.032 A 
HETATM   18  C12 UNL     1      26.949   2.331  51.620  1.00  0.00     0.038 A 
BRANCH  17  19
HETATM   19  C10 UNL     1      28.018   1.184  53.638  1.00  0.00     0.209 C 
BRANCH  19  20
HETATM   20  O1  UNL     1      28.154  -0.167  53.343  1.00  0.00    -0.358 OA
BRANCH  20  21
HETATM   21  C11 UNL     1      29.492  -0.546  53.513  1.00  0.00     0.391 C 
HETATM   22  F1  UNL     1      29.623  -1.911  53.330  1.00  0.00    -0.227 F 
ENDBRANCH  20  21
ENDBRANCH  19  20
ENDBRANCH  17  19
ENDBRANCH  11  13
ENDBRANCH   6  11
BRANCH   8  23
HETATM   23  N5  UNL     1      29.635   5.775  47.813  1.00  0.00    -0.221 N 
HETATM   24  H14 UNL     1      29.724   5.229  46.903  1.00  0.00     0.177 HD
BRANCH  23  25
HETATM   25  C14 UNL     1      30.811   6.417  48.294  1.00  0.00     0.168 C 
BRANCH  25  26
HETATM   26  C15 UNL     1      31.757   5.549  49.067  1.00  0.00     0.286 C 
BRANCH  26  27
HETATM   27  N6  UNL     1      31.631   5.788  50.470  1.00  0.00     0.079 N 
HETATM   28  H19 UNL     1      30.625   5.933  50.747  1.00  0.00     0.312 HD
HETATM   29  H20 UNL     1      32.032   5.083  51.099  1.00  0.00     0.312 HD
ENDBRANCH  26  27
ENDBRANCH  25  26
ENDBRANCH  23  25
ENDBRANCH   8  23
TORSDOF 9
ENDMDL
MODEL 7
REMARK VINA RESULT:      -6.6      2.697      6.258
REMARK  9 active torsions:
REMARK  status: ('A' for Active; 'I' for Inactive)
REMARK    1  A    between atoms: C4_6  and  N3_7 
REMARK    2  A    between atoms: N3_7  and  C5_8 
REMARK    3  A    between atoms: C9_12  and  C10_13 
REMARK    4  A    between atoms: C10_13  and  O1_14 
REMARK    5  A    between atoms: O1_14  and  C11_15 
REMARK    6  A    between atoms: C13_19  and  N5_20 
REMARK    7  A    between atoms: N5_20  and  C14_21 
REMARK    8  A    between atoms: C14_21  and  C15_22 
REMARK    9  A    between atoms: C15_22  and  N6_23 
ROOT
HETATM    1  C1  UNL     1      21.860  -1.773  53.870  1.00  0.00     0.159 C 
HETATM    2  N1  UNL     1      22.339  -0.448  53.519  1.00  0.00    -0.328 N 
HETATM    3  C2  UNL     1      21.616   0.640  53.205  1.00  0.00     0.211 A 
HETATM    4  N2  UNL     1      22.440   1.693  52.939  1.00  0.00    -0.236 NA
HETATM    5  C3  UNL     1      23.729   1.294  53.080  1.00  0.00     0.151 A 
HETATM    6  C4  UNL     1      24.995   1.829  52.964  1.00  0.00     0.180 A 
HETATM    7  N4  UNL     1      26.082   1.078  53.193  1.00  0.00    -0.043 NA
HETATM    8  C13 UNL     1      25.977  -0.233  53.550  1.00  0.00     0.726 A 
HETATM    9  N7  UNL     1      24.745  -0.732  53.656  1.00  0.00    -0.042 NA
HETATM   10  C16 UNL     1      23.621  -0.037  53.440  1.00  0.00     0.182 A 
ENDROOT
BRANCH   6  11
HETATM   11  N3  UNL     1      25.025   3.193  52.603  1.00  0.00    -0.338 N 
HETATM   12  H5  UNL     1      24.885   3.785  53.445  1.00  0.00     0.167 HD
BRANCH  11  13
HETATM   13  C5  UNL     1      25.213   3.782  51.314  1.00  0.00     0.034 A 
HETATM   14  C6  UNL     1      26.309   3.404  50.572  1.00  0.00     0.029 A 
HETATM   15  C7  UNL     1      26.457   4.029  49.327  1.00  0.00     0.003 A 
HETATM   16  C8  UNL     1      25.520   4.966  48.920  1.00  0.00     0.009 A 
HETATM   17  C9  UNL     1      24.444   5.314  49.688  1.00  0.00    -0.032 A 
HETATM   18  C12 UNL     1      24.275   4.713  50.919  1.00  0.00     0.038 A 
BRANCH  17  19
HETATM   19  C10 UNL     1      23.590   6.337  49.068  1.00  0.00     0.209 C 
BRANCH  19  20
HETATM   20  O1  UNL     1      24.265   7.087  48.113  1.00  0.00    -0.358 OA
BRANCH  20  21
HETATM   21  C11 UNL     1      24.231   8.440  48.478  1.00  0.00     0.391 C 
HETATM   22  F1  UNL     1      23.453   8.603  49.611  1.00  0.00    -0.227 F 
ENDBRANCH  20  21
ENDBRANCH  19  20
ENDBRANCH  17  19
ENDBRANCH  11  13
ENDBRANCH   6  11
BRANCH   8  23
HETATM   23  N5  UNL     1      27.127  -1.019  53.813  1.00  0.00    -0.221 N 
HETATM   24  H14 UNL     1      26.975  -1.838  54.477  1.00  0.00     0.177 HD
BRANCH  23  25
HETATM   25  C14 UNL     1      28.443  -0.845  53.298  1.00  0.00     0.168 C 
BRANCH  25  26
HETATM   26  C15 UNL     1      29.310  -2.066  53.300  1.00  0.00     0.286 C 
BRANCH  26  27
HETATM   27  N6  UNL     1      28.519  -3.249  53.168  1.00  0.00     0.079 N 
HETATM   28  H19 UNL     1      29.047  -4.102  53.491  1.00  0.00     0.312 HD
HETATM   29  H20 UNL     1      27.604  -3.250  53.630  1.00  0.00     0.312 HD
ENDBRANCH  26  27
ENDBRANCH  25  26
ENDBRANCH  23  25
ENDBRANCH   8  23
TORSDOF 9
ENDMDL
MODEL 8
REMARK VINA RESULT:      -6.6      3.811      6.348
REMARK  9 active torsions:
REMARK  status: ('A' for Active; 'I' for Inactive)
REMARK    1  A    between atoms: C4_6  and  N3_7 
REMARK    2  A    between atoms: N3_7  and  C5_8 
REMARK    3  A    between atoms: C9_12  and  C10_13 
REMARK    4  A    between atoms: C10_13  and  O1_14 
REMARK    5  A    between atoms: O1_14  and  C11_15 
REMARK    6  A    between atoms: C13_19  and  N5_20 
REMARK    7  A    between atoms: N5_20  and  C14_21 
REMARK    8  A    between atoms: C14_21  and  C15_22 
REMARK    9  A    between atoms: C15_22  and  N6_23 
ROOT
HETATM    1  C1  UNL     1      21.830   5.303  47.180  1.00  0.00     0.159 C 
HETATM    2  N1  UNL     1      21.898   4.533  48.409  1.00  0.00    -0.328 N 
HETATM    3  C2  UNL     1      21.234   3.408  48.723  1.00  0.00     0.211 A 
HETATM    4  N2  UNL     1      21.575   2.992  49.974  1.00  0.00    -0.236 NA
HETATM    5  C3  UNL     1      22.482   3.856  50.497  1.00  0.00     0.151 A 
HETATM    6  C4  UNL     1      23.202   4.019  51.662  1.00  0.00     0.180 A 
HETATM    7  N4  UNL     1      24.039   5.055  51.813  1.00  0.00    -0.043 NA
HETATM    8  C13 UNL     1      24.211   5.980  50.826  1.00  0.00     0.726 A 
HETATM    9  N7  UNL     1      23.505   5.805  49.709  1.00  0.00    -0.042 NA
HETATM   10  C16 UNL     1      22.653   4.794  49.496  1.00  0.00     0.182 A 
ENDROOT
BRANCH   6  11
HETATM   11  N3  UNL     1      22.981   3.019  52.633  1.00  0.00    -0.338 N 
HETATM   12  H5  UNL     1      22.106   3.221  53.156  1.00  0.00     0.167 HD
BRANCH  11  13
HETATM   13  C5  UNL     1      23.766   1.863  52.936  1.00  0.00     0.034 A 
HETATM   14  C6  UNL     1      23.161   0.628  52.894  1.00  0.00     0.029 A 
HETATM   15  C7  UNL     1      23.971  -0.467  53.221  1.00  0.00     0.003 A 
HETATM   16  C8  UNL     1      25.299  -0.255  53.557  1.00  0.00     0.009 A 
HETATM   17  C9  UNL     1      25.862   0.990  53.586  1.00  0.00    -0.032 A 
HETATM   18  C12 UNL     1      25.086   2.085  53.269  1.00  0.00     0.038 A 
BRANCH  17  19
HETATM   19  C10 UNL     1      27.277   0.982  53.985  1.00  0.00     0.209 C 
BRANCH  19  20
HETATM   20  O1  UNL     1      27.679  -0.245  54.498  1.00  0.00    -0.358 OA
BRANCH  20  21
HETATM   21  C11 UNL     1      29.034  -0.450  54.202  1.00  0.00     0.391 C 
HETATM   22  F1  UNL     1      29.154  -1.222  53.060  1.00  0.00    -0.227 F 
ENDBRANCH  20  21
ENDBRANCH  19  20
ENDBRANCH  17  19
ENDBRANCH  11  13
ENDBRANCH   6  11
BRANCH   8  23
HETATM   23  N5  UNL     1      25.112   7.062  50.980  1.00  0.00    -0.221 N 
HETATM   24  H14 UNL     1      25.079   7.550  51.925  1.00  0.00     0.177 HD
BRANCH  23  25
HETATM   25  C14 UNL     1      26.047   7.565  50.031  1.00  0.00     0.168 C 
BRANCH  25  26
HETATM   26  C15 UNL     1      26.359   9.026  50.135  1.00  0.00     0.286 C 
BRANCH  26  27
HETATM   27  N6  UNL     1      27.585   9.233  50.839  1.00  0.00     0.079 N 
HETATM   28  H19 UNL     1      28.007   8.320  51.153  1.00  0.00     0.312 HD
HETATM   29  H20 UNL     1      28.314   9.767  50.354  1.00  0.00     0.312 HD
ENDBRANCH  26  27
ENDBRANCH  25  26
ENDBRANCH  23  25
ENDBRANCH   8  23
TORSDOF 9
ENDMDL
MODEL 9
REMARK VINA RESULT:      -6.6      2.105      4.887
REMARK  9 active torsions:
REMARK  status: ('A' for Active; 'I' for Inactive)
REMARK    1  A    between atoms: C4_6  and  N3_7 
REMARK    2  A    between atoms: N3_7  and  C5_8 
REMARK    3  A    between atoms: C9_12  and  C10_13 
REMARK    4  A    between atoms: C10_13  and  O1_14 
REMARK    5  A    between atoms: O1_14  and  C11_15 
REMARK    6  A    between atoms: C13_19  and  N5_20 
REMARK    7  A    between atoms: N5_20  and  C14_21 
REMARK    8  A    between atoms: C14_21  and  C15_22 
REMARK    9  A    between atoms: C15_22  and  N6_23 
ROOT
HETATM    1  C1  UNL     1      27.894   5.193  48.551  1.00  0.00     0.159 C 
HETATM    2  N1  UNL     1      26.564   4.965  49.088  1.00  0.00    -0.328 N 
HETATM    3  C2  UNL     1      25.435   5.643  48.826  1.00  0.00     0.211 A 
HETATM    4  N2  UNL     1      24.394   5.116  49.530  1.00  0.00    -0.236 NA
HETATM    5  C3  UNL     1      24.843   4.071  50.270  1.00  0.00     0.151 A 
HETATM    6  C4  UNL     1      24.343   3.145  51.161  1.00  0.00     0.180 A 
HETATM    7  N4  UNL     1      25.142   2.221  51.713  1.00  0.00    -0.043 NA
HETATM    8  C13 UNL     1      26.470   2.160  51.414  1.00  0.00     0.726 A 
HETATM    9  N7  UNL     1      26.935   3.064  50.551  1.00  0.00    -0.042 NA
HETATM   10  C16 UNL     1      26.191   4.012  49.966  1.00  0.00     0.182 A 
ENDROOT
BRANCH   6  11
HETATM   11  N3  UNL     1      22.959   3.262  51.415  1.00  0.00    -0.338 N 
HETATM   12  H5  UNL     1      22.727   4.246  51.655  1.00  0.00     0.167 HD
BRANCH  11  13
HETATM   13  C5  UNL     1      21.944   2.257  51.373  1.00  0.00     0.034 A 
HETATM   14  C6  UNL     1      21.328   1.994  50.171  1.00  0.00     0.029 A 
HETATM   15  C7  UNL     1      20.326   1.015  50.191  1.00  0.00     0.003 A 
HETATM   16  C8  UNL     1      20.018   0.382  51.386  1.00  0.00     0.009 A 
HETATM   17  C9  UNL     1      20.654   0.673  52.560  1.00  0.00    -0.032 A 
HETATM   18  C12 UNL     1      21.645   1.633  52.567  1.00  0.00     0.038 A 
BRANCH  17  19
HETATM   19  C10 UNL     1      20.156  -0.106  53.703  1.00  0.00     0.209 C 
BRANCH  19  20
HETATM   20  O1  UNL     1      20.599  -1.422  53.683  1.00  0.00    -0.358 OA
BRANCH  20  21
HETATM   21  C11 UNL     1      21.651  -1.570  54.599  1.00  0.00     0.391 C 
HETATM   22  F1  UNL     1      21.792  -0.414  55.345  1.00  0.00    -0.227 F 
ENDBRANCH  20  21
ENDBRANCH  19  20
ENDBRANCH  17  19
ENDBRANCH  11  13
ENDBRANCH   6  11
BRANCH   8  23
HETATM   23  N5  UNL     1      27.309   1.169  51.981  1.00  0.00    -0.221 N 
HETATM   24  H14 UNL     1      27.504   0.328  51.358  1.00  0.00     0.177 HD
BRANCH  23  25
HETATM   25  C14 UNL     1      27.913   1.167  53.270  1.00  0.00     0.168 C 
BRANCH  25  26
HETATM   26  C15 UNL     1      28.541   2.458  53.697  1.00  0.00     0.286 C 
BRANCH  26  27
HETATM   27  N6  UNL     1      29.662   2.219  54.550  1.00  0.00     0.079 N 
HETATM   28  H19 UNL     1      30.559   2.555  54.110  1.00  0.00     0.312 HD
HETATM   29  H20 UNL     1      29.614   2.603  55.500  1.00  0.00     0.312 HD
ENDBRANCH  26  27
ENDBRANCH  25  26
ENDBRANCH  23  25
ENDBRANCH   8  23
TORSDOF 9
ENDMDL
