MODEL 1
REMARK VINA RESULT:      -6.9      0.000      0.000
REMARK  8 active torsions:
REMARK  status: ('A' for Active; 'I' for Inactive)
REMARK    1  A    between atoms: O1_2  and  C2_3 
REMARK    2  A    between atoms: N1_6  and  N2_7 
REMARK    3  A    between atoms: N2_7  and  C5_8 
REMARK    4  A    between atoms: C5_8  and  N3_9 
REMARK    5  A    between atoms: N3_9  and  C6_10 
REMARK    6  A    between atoms: C6_10  and  N4_11 
REMARK    7  A    between atoms: N4_11  and  C7_12 
REMARK    8  A    between atoms: C15_21  and  O2_22 
ROOT
HETATM    1  N2  UNL     1      23.414   2.035  51.950  1.00  0.00    -0.085 NA
ENDROOT
BRANCH   1   2
HETATM    2  N1  UNL     1      23.468   1.056  52.948  1.00  0.00    -0.145 NA
HETATM    3  C4  UNL     1      22.381   0.386  53.157  1.00  0.00     0.064 A 
HETATM    4  C3  UNL     1      21.105   0.545  52.463  1.00  0.00     0.069 A 
HETATM    5  C13 UNL     1      22.577  -0.625  54.245  1.00  0.00     0.091 A 
HETATM    6  C2  UNL     1      20.078  -0.232  52.803  1.00  0.00     0.102 A 
HETATM    7  C15 UNL     1      20.195  -1.229  53.845  1.00  0.00     0.095 A 
HETATM    8  C14 UNL     1      21.337  -1.393  54.488  1.00  0.00     0.019 A 
BRANCH   6   9
HETATM    9  O1  UNL     1      18.913  -0.014  52.096  1.00  0.00    -0.353 OA
HETATM   10  C1  UNL     1      18.880   0.497  50.793  1.00  0.00     0.210 C 
ENDBRANCH   6   9
BRANCH   7  11
HETATM   11  O2  UNL     1      19.047  -1.960  54.089  1.00  0.00    -0.358 OA
HETATM   12  H15 UNL     1      18.118  -1.637  53.895  1.00  0.00     0.217 HD
ENDBRANCH   7  11
ENDBRANCH   1   2
BRANCH   1  13
HETATM   13  C5  UNL     1      24.502   2.446  51.436  1.00  0.00     0.119 C 
BRANCH  13  14
HETATM   14  N3  UNL     1      25.674   2.827  51.056  1.00  0.00    -0.209 NA
BRANCH  14  15
HETATM   15  C6  UNL     1      26.794   2.152  51.633  1.00  0.00     0.282 C 
BRANCH  15  16
HETATM   16  N4  UNL     1      26.528   1.417  52.827  1.00  0.00    -0.371 N 
HETATM   17  H7  UNL     1      25.924   1.684  53.635  1.00  0.00     0.161 HD
BRANCH  16  18
HETATM   18  C7  UNL     1      27.196   0.145  52.899  1.00  0.00     0.032 A 
HETATM   19  C8  UNL     1      26.575  -1.009  52.475  1.00  0.00     0.029 A 
HETATM   20  C9  UNL     1      27.208  -2.256  52.537  1.00  0.00     0.005 A 
HETATM   21  C10 UNL     1      28.489  -2.347  53.037  1.00  0.00     0.042 A 
HETATM   22  C11 UNL     1      29.115  -1.194  53.462  1.00  0.00     0.118 A 
HETATM   23  F1  UNL     1      30.368  -1.364  53.937  1.00  0.00    -0.206 F 
HETATM   24  C12 UNL     1      28.477   0.027  53.394  1.00  0.00     0.071 A 
ENDBRANCH  16  18
ENDBRANCH  15  16
ENDBRANCH  14  15
ENDBRANCH  13  14
ENDBRANCH   1  13
TORSDOF 8
ENDMDL
MODEL 2
REMARK VINA RESULT:      -6.8      1.224      1.669
REMARK  8 active torsions:
REMARK  status: ('A' for Active; 'I' for Inactive)
REMARK    1  A    between atoms: O1_2  and  C2_3 
REMARK    2  A    between atoms: N1_6  and  N2_7 
REMARK    3  A    between atoms: N2_7  and  C5_8 
REMARK    4  A    between atoms: C5_8  and  N3_9 
REMARK    5  A    between atoms: N3_9  and  C6_10 
REMARK    6  A    between atoms: C6_10  and  N4_11 
REMARK    7  A    between atoms: N4_11  and  C7_12 
REMARK    8  A    between atoms: C15_21  and  O2_22 
ROOT
HETATM    1  N2  UNL     1      23.432   2.713  52.315  1.00  0.00    -0.085 NA
ENDROOT
BRANCH   1   2
HETATM    2  N1  UNL     1      23.715   1.562  53.059  1.00  0.00    -0.145 NA
HETATM    3  C4  UNL     1      22.721   0.767  53.288  1.00  0.00     0.064 A 
HETATM    4  C3  UNL     1      21.337   0.942  52.854  1.00  0.00     0.069 A 
HETATM    5  C13 UNL     1      23.161  -0.420  54.091  1.00  0.00     0.091 A 
HETATM    6  C2  UNL     1      20.432   0.021  53.177  1.00  0.00     0.102 A 
HETATM    7  C15 UNL     1      20.785  -1.150  53.950  1.00  0.00     0.095 A 
HETATM    8  C14 UNL     1      22.028  -1.333  54.355  1.00  0.00     0.019 A 
BRANCH   6   9
HETATM    9  O1  UNL     1      19.151   0.267  52.726  1.00  0.00    -0.353 OA
HETATM   10  C1  UNL     1      18.735   0.041  51.408  1.00  0.00     0.210 C 
ENDBRANCH   6   9
BRANCH   7  11
HETATM   11  O2  UNL     1      19.741  -2.019  54.210  1.00  0.00    -0.358 OA
HETATM   12  H15 UNL     1      19.418  -2.257  55.130  1.00  0.00     0.217 HD
ENDBRANCH   7  11
ENDBRANCH   1   2
BRANCH   1  13
HETATM   13  C5  UNL     1      24.203   3.025  51.354  1.00  0.00     0.119 C 
BRANCH  13  14
HETATM   14  N3  UNL     1      25.082   3.224  50.431  1.00  0.00    -0.209 NA
BRANCH  14  15
HETATM   15  C6  UNL     1      26.417   2.792  50.704  1.00  0.00     0.282 C 
BRANCH  15  16
HETATM   16  N4  UNL     1      26.807   2.808  52.077  1.00  0.00    -0.371 N 
HETATM   17  H7  UNL     1      26.759   3.598  52.758  1.00  0.00     0.161 HD
BRANCH  16  18
HETATM   18  C7  UNL     1      27.333   1.559  52.557  1.00  0.00     0.032 A 
HETATM   19  C8  UNL     1      28.416   1.523  53.408  1.00  0.00     0.029 A 
HETATM   20  C9  UNL     1      28.942   0.317  53.886  1.00  0.00     0.005 A 
HETATM   21  C10 UNL     1      28.370  -0.877  53.501  1.00  0.00     0.042 A 
HETATM   22  C11 UNL     1      27.286  -0.846  52.651  1.00  0.00     0.118 A 
HETATM   23  F1  UNL     1      26.782  -2.054  52.321  1.00  0.00    -0.206 F 
HETATM   24  C12 UNL     1      26.780   0.351  52.189  1.00  0.00     0.071 A 
ENDBRANCH  16  18
ENDBRANCH  15  16
ENDBRANCH  14  15
ENDBRANCH  13  14
ENDBRANCH   1  13
TORSDOF 8
ENDMDL
MODEL 3
REMARK VINA RESULT:      -6.8      1.324      2.547
REMARK  8 active torsions:
REMARK  status: ('A' for Active; 'I' for Inactive)
REMARK    1  A    between atoms: O1_2  and  C2_3 
REMARK    2  A    between atoms: N1_6  and  N2_7 
REMARK    3  A    between atoms: N2_7  and  C5_8 
REMARK    4  A    between atoms: C5_8  and  N3_9 
REMARK    5  A    between atoms: N3_9  and  C6_10 
REMARK    6  A    between atoms: C6_10  and  N4_11 
REMARK    7  A    between atoms: N4_11  and  C7_12 
REMARK    8  A    between atoms: C15_21  and  O2_22 
ROOT
HETATM    1  N2  UNL     1      23.445   1.872  51.924  1.00  0.00    -0.085 NA
ENDROOT
BRANCH   1   2
HETATM    2  N1  UNL     1      22.116   1.742  51.508  1.00  0.00    -0.145 NA
HETATM    3  C4  UNL     1      21.387   0.898  52.163  1.00  0.00     0.064 A 
HETATM    4  C3  UNL     1      21.804   0.067  53.290  1.00  0.00     0.069 A 
HETATM    5  C13 UNL     1      19.992   0.859  51.616  1.00  0.00     0.091 A 
HETATM    6  C2  UNL     1      20.921  -0.755  53.855  1.00  0.00     0.102 A 
HETATM    7  C15 UNL     1      19.559  -0.845  53.379  1.00  0.00     0.095 A 
HETATM    8  C14 UNL     1      19.155  -0.105  52.362  1.00  0.00     0.019 A 
BRANCH   6   9
HETATM    9  O1  UNL     1      21.402  -1.501  54.912  1.00  0.00    -0.353 OA
HETATM   10  C1  UNL     1      22.725  -1.441  55.367  1.00  0.00     0.210 C 
ENDBRANCH   6   9
BRANCH   7  11
HETATM   11  O2  UNL     1      18.756  -1.741  54.062  1.00  0.00    -0.358 OA
HETATM   12  H15 UNL     1      19.083  -2.596  54.471  1.00  0.00     0.217 HD
ENDBRANCH   7  11
ENDBRANCH   1   2
BRANCH   1  13
HETATM   13  C5  UNL     1      24.285   2.404  51.132  1.00  0.00     0.119 C 
BRANCH  13  14
HETATM   14  N3  UNL     1      25.251   2.898  50.434  1.00  0.00    -0.209 NA
BRANCH  14  15
HETATM   15  C6  UNL     1      26.570   2.770  50.969  1.00  0.00     0.282 C 
BRANCH  15  16
HETATM   16  N4  UNL     1      26.650   2.537  52.375  1.00  0.00    -0.371 N 
HETATM   17  H7  UNL     1      26.245   3.104  53.153  1.00  0.00     0.161 HD
BRANCH  16  18
HETATM   18  C7  UNL     1      27.392   1.360  52.738  1.00  0.00     0.032 A 
HETATM   19  C8  UNL     1      28.619   1.455  53.357  1.00  0.00     0.029 A 
HETATM   20  C9  UNL     1      29.356   0.321  53.718  1.00  0.00     0.005 A 
HETATM   21  C10 UNL     1      28.852  -0.934  53.452  1.00  0.00     0.042 A 
HETATM   22  C11 UNL     1      27.624  -1.034  52.833  1.00  0.00     0.118 A 
HETATM   23  F1  UNL     1      27.198  -2.296  52.607  1.00  0.00    -0.206 F 
HETATM   24  C12 UNL     1      26.910   0.093  52.484  1.00  0.00     0.071 A 
ENDBRANCH  16  18
ENDBRANCH  15  16
ENDBRANCH  14  15
ENDBRANCH  13  14
ENDBRANCH   1  13
TORSDOF 8
ENDMDL
MODEL 4
REMARK VINA RESULT:      -6.7      4.263      6.976
REMARK  8 active torsions:
REMARK  status: ('A' for Active; 'I' for Inactive)
REMARK    1  A    between atoms: O1_2  and  C2_3 
REMARK    2  A    between atoms: N1_6  and  N2_7 
REMARK    3  A    between atoms: N2_7  and  C5_8 
REMARK    4  A    between atoms: C5_8  and  N3_9 
REMARK    5  A    between atoms: N3_9  and  C6_10 
REMARK    6  A    between atoms: C6_10  and  N4_11 
REMARK    7  A    between atoms: N4_11  and  C7_12 
REMARK    8  A    between atoms: C15_21  and  O2_22 
ROOT
HETATM    1  N2  UNL     1      24.375   1.876  53.392  1.00  0.00    -0.085 NA
ENDROOT
BRANCH   1   2
HETATM    2  N1  UNL     1      25.641   2.448  53.558  1.00  0.00    -0.145 NA
HETATM    3  C4  UNL     1      26.644   1.632  53.574  1.00  0.00     0.064 A 
HETATM    4  C3  UNL     1      26.595   0.178  53.437  1.00  0.00     0.069 A 
HETATM    5  C13 UNL     1      27.933   2.373  53.757  1.00  0.00     0.091 A 
HETATM    6  C2  UNL     1      27.730  -0.518  53.476  1.00  0.00     0.102 A 
HETATM    7  C15 UNL     1      29.011   0.131  53.650  1.00  0.00     0.095 A 
HETATM    8  C14 UNL     1      29.083   1.443  53.776  1.00  0.00     0.019 A 
BRANCH   6   9
HETATM    9  O1  UNL     1      27.590  -1.884  53.339  1.00  0.00    -0.353 OA
HETATM   10  C1  UNL     1      26.942  -2.494  52.258  1.00  0.00     0.210 C 
ENDBRANCH   6   9
BRANCH   7  11
HETATM   11  O2  UNL     1      30.102  -0.719  53.671  1.00  0.00    -0.358 OA
HETATM   12  H15 UNL     1      30.424  -1.245  52.880  1.00  0.00     0.217 HD
ENDBRANCH   7  11
ENDBRANCH   1   2
BRANCH   1  13
HETATM   13  C5  UNL     1      23.571   2.400  52.558  1.00  0.00     0.119 C 
BRANCH  13  14
HETATM   14  N3  UNL     1      22.872   2.909  51.601  1.00  0.00    -0.209 NA
BRANCH  14  15
HETATM   15  C6  UNL     1      23.582   3.624  50.588  1.00  0.00     0.282 C 
BRANCH  15  16
HETATM   16  N4  UNL     1      24.978   3.341  50.491  1.00  0.00    -0.371 N 
HETATM   17  H7  UNL     1      25.504   2.523  50.870  1.00  0.00     0.161 HD
BRANCH  16  18
HETATM   18  C7  UNL     1      25.733   4.330  49.770  1.00  0.00     0.032 A 
HETATM   19  C8  UNL     1      25.230   5.595  49.559  1.00  0.00     0.029 A 
HETATM   20  C9  UNL     1      25.949   6.571  48.860  1.00  0.00     0.005 A 
HETATM   21  C10 UNL     1      27.200   6.271  48.362  1.00  0.00     0.042 A 
HETATM   22  C11 UNL     1      27.708   5.007  48.573  1.00  0.00     0.118 A 
HETATM   23  F1  UNL     1      28.937   4.791  48.056  1.00  0.00    -0.206 F 
HETATM   24  C12 UNL     1      26.986   4.057  49.263  1.00  0.00     0.071 A 
ENDBRANCH  16  18
ENDBRANCH  15  16
ENDBRANCH  14  15
ENDBRANCH  13  14
ENDBRANCH   1  13
TORSDOF 8
ENDMDL
MODEL 5
REMARK VINA RESULT:      -6.6     10.264     12.165
REMARK  8 active torsions:
REMARK  status: ('A' for Active; 'I' for Inactive)
REMARK    1  A    between atoms: O1_2  and  C2_3 
REMARK    2  A    between atoms: N1_6  and  N2_7 
REMARK    3  A    between atoms: N2_7  and  C5_8 
REMARK    4  A    between atoms: C5_8  and  N3_9 
REMARK    5  A    between atoms: N3_9  and  C6_10 
REMARK    6  A    between atoms: C6_10  and  N4_11 
REMARK    7  A    between atoms: N4_11  and  C7_12 
REMARK    8  A    between atoms: C15_21  and  O2_22 
ROOT
HETATM    1  N2  UNL     1      32.235   7.498  44.652  1.00  0.00    -0.085 NA
ENDROOT
BRANCH   1   2
HETATM    2  N1  UNL     1      33.014   7.639  45.806  1.00  0.00    -0.145 NA
HETATM    3  C4  UNL     1      32.557   7.081  46.880  1.00  0.00     0.064 A 
HETATM    4  C3  UNL     1      31.317   6.321  47.016  1.00  0.00     0.069 A 
HETATM    5  C13 UNL     1      33.484   7.308  48.036  1.00  0.00     0.091 A 
HETATM    6  C2  UNL     1      30.993   5.809  48.202  1.00  0.00     0.102 A 
HETATM    7  C15 UNL     1      31.840   5.989  49.361  1.00  0.00     0.095 A 
HETATM    8  C14 UNL     1      32.967   6.671  49.266  1.00  0.00     0.019 A 
BRANCH   6   9
HETATM    9  O1  UNL     1      29.806   5.107  48.238  1.00  0.00    -0.353 OA
HETATM   10  C1  UNL     1      28.546   5.714  48.308  1.00  0.00     0.210 C 
ENDBRANCH   6   9
BRANCH   7  11
HETATM   11  O2  UNL     1      31.376   5.402  50.524  1.00  0.00    -0.358 OA
HETATM   12  H15 UNL     1      31.370   4.414  50.696  1.00  0.00     0.217 HD
ENDBRANCH   7  11
ENDBRANCH   1   2
BRANCH   1  13
HETATM   13  C5  UNL     1      32.645   6.727  43.728  1.00  0.00     0.119 C 
BRANCH  13  14
HETATM   14  N3  UNL     1      33.208   5.965  42.853  1.00  0.00    -0.209 NA
BRANCH  14  15
HETATM   15  C6  UNL     1      34.044   4.917  43.347  1.00  0.00     0.282 C 
BRANCH  15  16
HETATM   16  N4  UNL     1      34.639   5.146  44.624  1.00  0.00    -0.371 N 
HETATM   17  H7  UNL     1      35.362   5.852  44.888  1.00  0.00     0.161 HD
BRANCH  16  18
HETATM   18  C7  UNL     1      34.162   4.276  45.664  1.00  0.00     0.032 A 
HETATM   19  C8  UNL     1      34.906   4.053  46.802  1.00  0.00     0.029 A 
HETATM   20  C9  UNL     1      34.459   3.209  47.825  1.00  0.00     0.005 A 
HETATM   21  C10 UNL     1      33.241   2.575  47.703  1.00  0.00     0.042 A 
HETATM   22  C11 UNL     1      32.493   2.795  46.567  1.00  0.00     0.118 A 
HETATM   23  F1  UNL     1      31.313   2.140  46.522  1.00  0.00    -0.206 F 
HETATM   24  C12 UNL     1      32.948   3.630  45.568  1.00  0.00     0.071 A 
ENDBRANCH  16  18
ENDBRANCH  15  16
ENDBRANCH  14  15
ENDBRANCH  13  14
ENDBRANCH   1  13
TORSDOF 8
ENDMDL
MODEL 6
REMARK VINA RESULT:      -6.4      4.465      7.225
REMARK  8 active torsions:
REMARK  status: ('A' for Active; 'I' for Inactive)
REMARK    1  A    between atoms: O1_2  and  C2_3 
REMARK    2  A    between atoms: N1_6  and  N2_7 
REMARK    3  A    between atoms: N2_7  and  C5_8 
REMARK    4  A    between atoms: C5_8  and  N3_9 
REMARK    5  A    between atoms: N3_9  and  C6_10 
REMARK    6  A    between atoms: C6_10  and  N4_11 
REMARK    7  A    between atoms: N4_11  and  C7_12 
REMARK    8  A    between atoms: C15_21  and  O2_22 
ROOT
HETATM    1  N2  UNL     1      26.791   2.748  50.363  1.00  0.00    -0.085 NA
ENDROOT
BRANCH   1   2
HETATM    2  N1  UNL     1      25.546   2.436  50.919  1.00  0.00    -0.145 NA
HETATM    3  C4  UNL     1      25.545   1.569  51.879  1.00  0.00     0.064 A 
HETATM    4  C3  UNL     1      26.705   0.883  52.443  1.00  0.00     0.069 A 
HETATM    5  C13 UNL     1      24.153   1.328  52.381  1.00  0.00     0.091 A 
HETATM    6  C2  UNL     1      26.527   0.013  53.437  1.00  0.00     0.102 A 
HETATM    7  C15 UNL     1      25.213  -0.269  53.970  1.00  0.00     0.095 A 
HETATM    8  C14 UNL     1      24.148   0.338  53.479  1.00  0.00     0.019 A 
BRANCH   6   9
HETATM    9  O1  UNL     1      27.677  -0.587  53.908  1.00  0.00    -0.353 OA
HETATM   10  C1  UNL     1      28.596   0.049  54.751  1.00  0.00     0.210 C 
ENDBRANCH   6   9
BRANCH   7  11
HETATM   11  O2  UNL     1      25.182  -1.193  54.999  1.00  0.00    -0.358 OA
HETATM   12  H15 UNL     1      24.366  -1.412  55.539  1.00  0.00     0.217 HD
ENDBRANCH   7  11
ENDBRANCH   1   2
BRANCH   1  13
HETATM   13  C5  UNL     1      26.882   3.757  49.595  1.00  0.00     0.119 C 
BRANCH  13  14
HETATM   14  N3  UNL     1      26.816   4.802  48.841  1.00  0.00    -0.209 NA
BRANCH  14  15
HETATM   15  C6  UNL     1      26.098   5.927  49.351  1.00  0.00     0.282 C 
BRANCH  15  16
HETATM   16  N4  UNL     1      25.529   5.763  50.650  1.00  0.00    -0.371 N 
HETATM   17  H7  UNL     1      25.988   5.425  51.524  1.00  0.00     0.161 HD
BRANCH  16  18
HETATM   18  C7  UNL     1      24.138   6.117  50.735  1.00  0.00     0.032 A 
HETATM   19  C8  UNL     1      23.698   7.370  50.368  1.00  0.00     0.029 A 
HETATM   20  C9  UNL     1      22.349   7.733  50.444  1.00  0.00     0.005 A 
HETATM   21  C10 UNL     1      21.421   6.820  50.898  1.00  0.00     0.042 A 
HETATM   22  C11 UNL     1      21.856   5.565  51.266  1.00  0.00     0.118 A 
HETATM   23  F1  UNL     1      20.888   4.728  51.699  1.00  0.00    -0.206 F 
HETATM   24  C12 UNL     1      23.189   5.223  51.185  1.00  0.00     0.071 A 
ENDBRANCH  16  18
ENDBRANCH  15  16
ENDBRANCH  14  15
ENDBRANCH  13  14
ENDBRANCH   1  13
TORSDOF 8
ENDMDL
MODEL 7
REMARK VINA RESULT:      -6.4      5.053      7.087
REMARK  8 active torsions:
REMARK  status: ('A' for Active; 'I' for Inactive)
REMARK    1  A    between atoms: O1_2  and  C2_3 
REMARK    2  A    between atoms: N1_6  and  N2_7 
REMARK    3  A    between atoms: N2_7  and  C5_8 
REMARK    4  A    between atoms: C5_8  and  N3_9 
REMARK    5  A    between atoms: N3_9  and  C6_10 
REMARK    6  A    between atoms: C6_10  and  N4_11 
REMARK    7  A    between atoms: N4_11  and  C7_12 
REMARK    8  A    between atoms: C15_21  and  O2_22 
ROOT
HETATM    1  N2  UNL     1      23.805   4.366  52.333  1.00  0.00    -0.085 NA
ENDROOT
BRANCH   1   2
HETATM    2  N1  UNL     1      23.328   3.053  52.414  1.00  0.00    -0.145 NA
HETATM    3  C4  UNL     1      24.134   2.178  52.920  1.00  0.00     0.064 A 
HETATM    4  C3  UNL     1      25.488   2.414  53.416  1.00  0.00     0.069 A 
HETATM    5  C13 UNL     1      23.500   0.820  52.947  1.00  0.00     0.091 A 
HETATM    6  C2  UNL     1      26.187   1.394  53.910  1.00  0.00     0.102 A 
HETATM    7  C15 UNL     1      25.639   0.057  53.967  1.00  0.00     0.095 A 
HETATM    8  C14 UNL     1      24.418  -0.184  53.526  1.00  0.00     0.019 A 
BRANCH   6   9
HETATM    9  O1  UNL     1      27.455   1.708  54.356  1.00  0.00    -0.353 OA
HETATM   10  C1  UNL     1      28.425   2.331  53.561  1.00  0.00     0.210 C 
ENDBRANCH   6   9
BRANCH   7  11
HETATM   11  O2  UNL     1      26.480  -0.901  54.505  1.00  0.00    -0.358 OA
HETATM   12  H15 UNL     1      26.824  -0.887  55.447  1.00  0.00     0.217 HD
ENDBRANCH   7  11
ENDBRANCH   1   2
BRANCH   1  13
HETATM   13  C5  UNL     1      23.145   5.217  51.658  1.00  0.00     0.119 C 
BRANCH  13  14
HETATM   14  N3  UNL     1      22.611   6.168  50.969  1.00  0.00    -0.209 NA
BRANCH  14  15
HETATM   15  C6  UNL     1      23.429   7.306  50.691  1.00  0.00     0.282 C 
BRANCH  15  16
HETATM   16  N4  UNL     1      24.763   7.250  51.195  1.00  0.00    -0.371 N 
HETATM   17  H7  UNL     1      25.088   7.317  52.185  1.00  0.00     0.161 HD
BRANCH  16  18
HETATM   18  C7  UNL     1      25.771   7.081  50.184  1.00  0.00     0.032 A 
HETATM   19  C8  UNL     1      25.927   5.880  49.529  1.00  0.00     0.029 A 
HETATM   20  C9  UNL     1      26.903   5.695  48.542  1.00  0.00     0.005 A 
HETATM   21  C10 UNL     1      27.739   6.738  48.207  1.00  0.00     0.042 A 
HETATM   22  C11 UNL     1      27.586   7.943  48.859  1.00  0.00     0.118 A 
HETATM   23  F1  UNL     1      28.442   8.915  48.475  1.00  0.00    -0.206 F 
HETATM   24  C12 UNL     1      26.620   8.108  49.829  1.00  0.00     0.071 A 
ENDBRANCH  16  18
ENDBRANCH  15  16
ENDBRANCH  14  15
ENDBRANCH  13  14
ENDBRANCH   1  13
TORSDOF 8
ENDMDL
MODEL 8
REMARK VINA RESULT:      -6.4      3.070      4.567
REMARK  8 active torsions:
REMARK  status: ('A' for Active; 'I' for Inactive)
REMARK    1  A    between atoms: O1_2  and  C2_3 
REMARK    2  A    between atoms: N1_6  and  N2_7 
REMARK    3  A    between atoms: N2_7  and  C5_8 
REMARK    4  A    between atoms: C5_8  and  N3_9 
REMARK    5  A    between atoms: N3_9  and  C6_10 
REMARK    6  A    between atoms: C6_10  and  N4_11 
REMARK    7  A    between atoms: N4_11  and  C7_12 
REMARK    8  A    between atoms: C15_21  and  O2_22 
ROOT
HETATM    1  N2  UNL     1      20.651   0.322  53.882  1.00  0.00    -0.085 NA
ENDROOT
BRANCH   1   2
HETATM    2  N1  UNL     1      20.648   0.154  52.493  1.00  0.00    -0.145 NA
HETATM    3  C4  UNL     1      21.401   0.957  51.815  1.00  0.00     0.064 A 
HETATM    4  C3  UNL     1      22.253   2.020  52.344  1.00  0.00     0.069 A 
HETATM    5  C13 UNL     1      21.305   0.669  50.348  1.00  0.00     0.091 A 
HETATM    6  C2  UNL     1      22.971   2.760  51.501  1.00  0.00     0.102 A 
HETATM    7  C15 UNL     1      22.926   2.538  50.073  1.00  0.00     0.095 A 
HETATM    8  C14 UNL     1      22.165   1.585  49.568  1.00  0.00     0.019 A 
BRANCH   6   9
HETATM    9  O1  UNL     1      23.745   3.739  52.088  1.00  0.00    -0.353 OA
HETATM   10  C1  UNL     1      23.244   4.976  52.513  1.00  0.00     0.210 C 
ENDBRANCH   6   9
BRANCH   7  11
HETATM   11  O2  UNL     1      23.723   3.383  49.322  1.00  0.00    -0.358 OA
HETATM   12  H15 UNL     1      24.723   3.428  49.390  1.00  0.00     0.217 HD
ENDBRANCH   7  11
ENDBRANCH   1   2
BRANCH   1  13
HETATM   13  C5  UNL     1      21.364  -0.455  54.592  1.00  0.00     0.119 C 
BRANCH  13  14
HETATM   14  N3  UNL     1      22.150  -1.109  55.377  1.00  0.00    -0.209 NA
BRANCH  14  15
HETATM   15  C6  UNL     1      23.521  -1.211  54.985  1.00  0.00     0.282 C 
BRANCH  15  16
HETATM   16  N4  UNL     1      23.822  -0.779  53.659  1.00  0.00    -0.371 N 
HETATM   17  H7  UNL     1      23.206  -0.789  52.815  1.00  0.00     0.161 HD
BRANCH  16  18
HETATM   18  C7  UNL     1      25.154  -0.267  53.492  1.00  0.00     0.032 A 
HETATM   19  C8  UNL     1      25.554   0.304  52.303  1.00  0.00     0.029 A 
HETATM   20  C9  UNL     1      26.847   0.807  52.120  1.00  0.00     0.005 A 
HETATM   21  C10 UNL     1      27.759   0.737  53.152  1.00  0.00     0.042 A 
HETATM   22  C11 UNL     1      27.363   0.168  54.344  1.00  0.00     0.118 A 
HETATM   23  F1  UNL     1      28.311   0.137  55.306  1.00  0.00    -0.206 F 
HETATM   24  C12 UNL     1      26.085  -0.324  54.507  1.00  0.00     0.071 A 
ENDBRANCH  16  18
ENDBRANCH  15  16
ENDBRANCH  14  15
ENDBRANCH  13  14
ENDBRANCH   1  13
TORSDOF 8
ENDMDL
MODEL 9
REMARK VINA RESULT:      -6.2      4.578      6.891
REMARK  8 active torsions:
REMARK  status: ('A' for Active; 'I' for Inactive)
REMARK    1  A    between atoms: O1_2  and  C2_3 
REMARK    2  A    between atoms: N1_6  and  N2_7 
REMARK    3  A    between atoms: N2_7  and  C5_8 
REMARK    4  A    between atoms: C5_8  and  N3_9 
REMARK    5  A    between atoms: N3_9  and  C6_10 
REMARK    6  A    between atoms: C6_10  and  N4_11 
REMARK    7  A    between atoms: N4_11  and  C7_12 
REMARK    8  A    between atoms: C15_21  and  O2_22 
ROOT
HETATM    1  N2  UNL     1      23.540   2.720  51.245  1.00  0.00    -0.085 NA
ENDROOT
BRANCH   1   2
HETATM    2  N1  UNL     1      23.489   1.439  51.805  1.00  0.00    -0.145 NA
HETATM    3  C4  UNL     1      24.441   1.130  52.624  1.00  0.00     0.064 A 
HETATM    4  C3  UNL     1      25.563   1.975  53.025  1.00  0.00     0.069 A 
HETATM    5  C13 UNL     1      24.265  -0.264  53.147  1.00  0.00     0.091 A 
HETATM    6  C2  UNL     1      26.462   1.499  53.885  1.00  0.00     0.102 A 
HETATM    7  C15 UNL     1      26.355   0.163  54.430  1.00  0.00     0.095 A 
HETATM    8  C14 UNL     1      25.351  -0.621  54.084  1.00  0.00     0.019 A 
BRANCH   6   9
HETATM    9  O1  UNL     1      27.487   2.365  54.208  1.00  0.00    -0.353 OA
HETATM   10  C1  UNL     1      28.667   2.483  53.464  1.00  0.00     0.210 C 
ENDBRANCH   6   9
BRANCH   7  11
HETATM   11  O2  UNL     1      27.361  -0.194  55.310  1.00  0.00    -0.358 OA
HETATM   12  H15 UNL     1      28.288  -0.459  55.032  1.00  0.00     0.217 HD
ENDBRANCH   7  11
ENDBRANCH   1   2
BRANCH   1  13
HETATM   13  C5  UNL     1      23.013   2.911  50.105  1.00  0.00     0.119 C 
BRANCH  13  14
HETATM   14  N3  UNL     1      22.622   3.162  48.901  1.00  0.00    -0.209 NA
BRANCH  14  15
HETATM   15  C6  UNL     1      22.926   4.457  48.377  1.00  0.00     0.282 C 
BRANCH  15  16
HETATM   16  N4  UNL     1      23.535   5.369  49.290  1.00  0.00    -0.371 N 
HETATM   17  H7  UNL     1      23.162   5.731  50.195  1.00  0.00     0.161 HD
BRANCH  16  18
HETATM   18  C7  UNL     1      24.834   5.834  48.884  1.00  0.00     0.032 A 
HETATM   19  C8  UNL     1      25.011   7.107  48.386  1.00  0.00     0.029 A 
HETATM   20  C9  UNL     1      26.266   7.577  47.985  1.00  0.00     0.005 A 
HETATM   21  C10 UNL     1      27.367   6.754  48.084  1.00  0.00     0.042 A 
HETATM   22  C11 UNL     1      27.195   5.480  48.582  1.00  0.00     0.118 A 
HETATM   23  F1  UNL     1      28.320   4.735  48.649  1.00  0.00    -0.206 F 
HETATM   24  C12 UNL     1      25.951   5.031  48.973  1.00  0.00     0.071 A 
ENDBRANCH  16  18
ENDBRANCH  15  16
ENDBRANCH  14  15
ENDBRANCH  13  14
ENDBRANCH   1  13
TORSDOF 8
ENDMDL
