MODEL 1
REMARK VINA RESULT:      -7.3      0.000      0.000
REMARK  8 active torsions:
REMARK  status: ('A' for Active; 'I' for Inactive)
REMARK    1  A    between atoms: C2_2  and  O1_3 
REMARK    2  A    between atoms: O1_3  and  C3_4 
REMARK    3  A    between atoms: C16_20  and  C17_21 
REMARK    4  A    between atoms: C16_20  and  O4_27 
REMARK    5  A    between atoms: C17_21  and  O2_22 
REMARK    6  A    between atoms: O2_22  and  C18_23 
REMARK    7  A    between atoms: C18_23  and  C19_24 
REMARK    8  A    between atoms: C19_24  and  O3_25 
ROOT
HETATM    1  C3  UNL     1      21.480   0.513  52.387  1.00  0.00     0.167 C 
HETATM    2  C4  UNL     1      22.725   0.789  52.691  1.00  0.00     0.092 C 
HETATM    3  N1  UNL     1      22.507   0.006  53.813  1.00  0.00    -0.242 NA
HETATM    4  C5  UNL     1      23.300  -0.832  54.401  1.00  0.00     0.205 C 
HETATM    5  N2  UNL     1      24.611  -1.016  53.848  1.00  0.00    -0.355 N 
HETATM    6  C6  UNL     1      25.993  -0.769  53.691  1.00  0.00     0.326 C 
HETATM    7  C7  UNL     1      26.463  -1.538  52.436  1.00  0.00     0.084 C 
HETATM    8  C8  UNL     1      27.871  -1.960  52.582  1.00  0.00    -0.023 C 
HETATM    9  C9  UNL     1      28.975  -1.608  53.227  1.00  0.00    -0.004 C 
HETATM   10  C10 UNL     1      29.230  -0.514  54.161  1.00  0.00    -0.003 C 
HETATM   11  C11 UNL     1      28.575   0.462  54.778  1.00  0.00     0.003 C 
HETATM   12  C12 UNL     1      27.178   0.969  54.840  1.00  0.00     0.303 C 
HETATM   13  N3  UNL     1      26.479   0.596  53.631  1.00  0.00     0.118 NA
HETATM   14  C13 UNL     1      25.430   1.377  53.380  1.00  0.00     0.304 C 
HETATM   15  C14 UNL     1      24.777   1.851  52.196  1.00  0.00     0.020 C 
HETATM   16  C15 UNL     1      23.527   1.621  51.814  1.00  0.00     0.026 C 
HETATM   17  C16 UNL     1      22.873   2.094  50.631  1.00  0.00     0.080 C 
HETATM   18  H8  UNL     1      24.173  -1.790  53.250  1.00  0.00     0.162 HD
ENDROOT
BRANCH  17  19
HETATM   19  C17 UNL     1      23.572   2.832  49.828  1.00  0.00     0.040 C 
BRANCH  19  20
HETATM   20  O2  UNL     1      24.205   3.761  49.060  1.00  0.00     0.000 OA
BRANCH  20  21
HETATM   21  C18 UNL     1      25.364   4.412  49.601  1.00  0.00     0.028 C 
BRANCH  21  22
HETATM   22  C19 UNL     1      26.531   3.475  49.404  1.00  0.00     0.167 C 
BRANCH  22  23
HETATM   23  O3  UNL     1      27.639   4.291  49.141  1.00  0.00    -0.396 OA
HETATM   24  C20 UNL     1      27.197   5.497  48.654  1.00  0.00     0.201 C 
ENDBRANCH  22  23
ENDBRANCH  21  22
ENDBRANCH  20  21
ENDBRANCH  19  20
ENDBRANCH  17  19
BRANCH  17  25
HETATM   25  O4  UNL     1      21.630   1.950  50.117  1.00  0.00    -0.355 OA
HETATM   26  C21 UNL     1      20.796   3.001  49.648  1.00  0.00     0.210 C 
ENDBRANCH  17  25
BRANCH   1  27
HETATM   27  O1  UNL     1      20.290  -0.096  52.649  1.00  0.00    -0.361 OA
BRANCH  27  28
HETATM   28  C2  UNL     1      19.142  -0.082  51.806  1.00  0.00     0.170 C 
HETATM   29  C1  UNL     1      17.967  -0.647  52.566  1.00  0.00     0.034 C 
ENDBRANCH  27  28
ENDBRANCH   1  27
TORSDOF 8
ENDMDL
MODEL 2
REMARK VINA RESULT:      -7.1      3.020      6.318
REMARK  8 active torsions:
REMARK  status: ('A' for Active; 'I' for Inactive)
REMARK    1  A    between atoms: C2_2  and  O1_3 
REMARK    2  A    between atoms: O1_3  and  C3_4 
REMARK    3  A    between atoms: C16_20  and  C17_21 
REMARK    4  A    between atoms: C16_20  and  O4_27 
REMARK    5  A    between atoms: C17_21  and  O2_22 
REMARK    6  A    between atoms: O2_22  and  C18_23 
REMARK    7  A    between atoms: C18_23  and  C19_24 
REMARK    8  A    between atoms: C19_24  and  O3_25 
ROOT
HETATM    1  C3  UNL     1      22.678   1.393  51.001  1.00  0.00     0.167 C 
HETATM    2  C4  UNL     1      23.751   2.087  50.707  1.00  0.00     0.092 C 
HETATM    3  N1  UNL     1      23.098   2.383  49.521  1.00  0.00    -0.242 NA
HETATM    4  C5  UNL     1      23.069   3.489  48.849  1.00  0.00     0.205 C 
HETATM    5  N2  UNL     1      23.805   4.607  49.365  1.00  0.00    -0.355 N 
HETATM    6  C6  UNL     1      24.924   5.454  49.526  1.00  0.00     0.326 C 
HETATM    7  C7  UNL     1      24.617   6.412  50.700  1.00  0.00     0.084 C 
HETATM    8  C8  UNL     1      25.287   7.712  50.497  1.00  0.00    -0.023 C 
HETATM    9  C9  UNL     1      26.338   8.228  49.873  1.00  0.00    -0.004 C 
HETATM   10  C10 UNL     1      27.359   7.599  49.039  1.00  0.00    -0.003 C 
HETATM   11  C11 UNL     1      27.651   6.412  48.522  1.00  0.00     0.003 C 
HETATM   12  C12 UNL     1      27.063   5.045  48.525  1.00  0.00     0.303 C 
HETATM   13  N3  UNL     1      26.243   4.879  49.704  1.00  0.00     0.118 NA
HETATM   14  C13 UNL     1      26.075   3.602  50.039  1.00  0.00     0.304 C 
HETATM   15  C14 UNL     1      25.901   2.889  51.270  1.00  0.00     0.020 C 
HETATM   16  C15 UNL     1      24.854   2.165  51.646  1.00  0.00     0.026 C 
HETATM   17  C16 UNL     1      24.679   1.452  52.875  1.00  0.00     0.080 C 
HETATM   18  H8  UNL     1      22.909   4.861  49.896  1.00  0.00     0.162 HD
ENDROOT
BRANCH  17  19
HETATM   19  C17 UNL     1      25.649   1.513  53.733  1.00  0.00     0.040 C 
BRANCH  19  20
HETATM   20  O2  UNL     1      26.763   1.454  54.512  1.00  0.00     0.000 OA
BRANCH  20  21
HETATM   21  C18 UNL     1      28.045   1.526  53.870  1.00  0.00     0.028 C 
BRANCH  21  22
HETATM   22  C19 UNL     1      28.976   0.618  54.635  1.00  0.00     0.167 C 
BRANCH  22  23
HETATM   23  O3  UNL     1      28.469  -0.678  54.472  1.00  0.00    -0.396 OA
HETATM   24  C20 UNL     1      29.117  -1.279  53.421  1.00  0.00     0.201 C 
ENDBRANCH  22  23
ENDBRANCH  21  22
ENDBRANCH  20  21
ENDBRANCH  19  20
ENDBRANCH  17  19
BRANCH  17  25
HETATM   25  O4  UNL     1      23.693   0.684  53.390  1.00  0.00    -0.355 OA
HETATM   26  C21 UNL     1      23.858  -0.595  53.986  1.00  0.00     0.210 C 
ENDBRANCH  17  25
BRANCH   1  27
HETATM   27  O1  UNL     1      21.435   0.926  50.700  1.00  0.00    -0.361 OA
BRANCH  27  28
HETATM   28  C2  UNL     1      20.369   0.734  51.625  1.00  0.00     0.170 C 
HETATM   29  C1  UNL     1      20.431   1.817  52.676  1.00  0.00     0.034 C 
ENDBRANCH  27  28
ENDBRANCH   1  27
TORSDOF 8
ENDMDL
MODEL 3
REMARK VINA RESULT:      -7.0      2.818      5.977
REMARK  8 active torsions:
REMARK  status: ('A' for Active; 'I' for Inactive)
REMARK    1  A    between atoms: C2_2  and  O1_3 
REMARK    2  A    between atoms: O1_3  and  C3_4 
REMARK    3  A    between atoms: C16_20  and  C17_21 
REMARK    4  A    between atoms: C16_20  and  O4_27 
REMARK    5  A    between atoms: C17_21  and  O2_22 
REMARK    6  A    between atoms: O2_22  and  C18_23 
REMARK    7  A    between atoms: C18_23  and  C19_24 
REMARK    8  A    between atoms: C19_24  and  O3_25 
ROOT
HETATM    1  C3  UNL     1      20.853   0.265  53.114  1.00  0.00     0.167 C 
HETATM    2  C4  UNL     1      21.705   0.897  52.343  1.00  0.00     0.092 C 
HETATM    3  N1  UNL     1      20.584   1.483  51.777  1.00  0.00    -0.242 NA
HETATM    4  C5  UNL     1      20.407   2.698  51.367  1.00  0.00     0.205 C 
HETATM    5  N2  UNL     1      21.503   3.616  51.495  1.00  0.00    -0.355 N 
HETATM    6  C6  UNL     1      22.667   4.303  51.086  1.00  0.00     0.326 C 
HETATM    7  C7  UNL     1      23.235   5.033  52.323  1.00  0.00     0.084 C 
HETATM    8  C8  UNL     1      23.922   6.278  51.922  1.00  0.00    -0.023 C 
HETATM    9  C9  UNL     1      24.541   6.804  50.874  1.00  0.00    -0.004 C 
HETATM   10  C10 UNL     1      24.805   6.258  49.545  1.00  0.00    -0.003 C 
HETATM   11  C11 UNL     1      24.538   5.175  48.826  1.00  0.00     0.003 C 
HETATM   12  C12 UNL     1      23.797   3.897  49.011  1.00  0.00     0.303 C 
HETATM   13  N3  UNL     1      23.734   3.580  50.419  1.00  0.00     0.118 NA
HETATM   14  C13 UNL     1      23.533   2.284  50.648  1.00  0.00     0.304 C 
HETATM   15  C14 UNL     1      23.923   1.361  51.672  1.00  0.00     0.020 C 
HETATM   16  C15 UNL     1      23.132   0.681  52.493  1.00  0.00     0.026 C 
HETATM   17  C16 UNL     1      23.519  -0.242  53.517  1.00  0.00     0.080 C 
HETATM   18  H8  UNL     1      21.106   3.844  52.464  1.00  0.00     0.162 HD
ENDROOT
BRANCH  17  19
HETATM   19  C17 UNL     1      24.789  -0.446  53.675  1.00  0.00     0.040 C 
BRANCH  19  20
HETATM   20  O2  UNL     1      26.146  -0.473  53.778  1.00  0.00     0.000 OA
BRANCH  20  21
HETATM   21  C18 UNL     1      26.805   0.661  54.362  1.00  0.00     0.028 C 
BRANCH  21  22
HETATM   22  C19 UNL     1      28.155   0.189  54.843  1.00  0.00     0.167 C 
BRANCH  22  23
HETATM   23  O3  UNL     1      28.440  -0.972  54.112  1.00  0.00    -0.396 OA
HETATM   24  C20 UNL     1      29.697  -0.858  53.571  1.00  0.00     0.201 C 
ENDBRANCH  22  23
ENDBRANCH  21  22
ENDBRANCH  20  21
ENDBRANCH  19  20
ENDBRANCH  17  19
BRANCH  17  25
HETATM   25  O4  UNL     1      22.844  -0.999  54.411  1.00  0.00    -0.355 OA
HETATM   26  C21 UNL     1      23.361  -1.502  55.635  1.00  0.00     0.210 C 
ENDBRANCH  17  25
BRANCH   1  27
HETATM   27  O1  UNL     1      19.584  -0.012  53.521  1.00  0.00    -0.361 OA
BRANCH  27  28
HETATM   28  C2  UNL     1      18.971  -1.298  53.521  1.00  0.00     0.170 C 
HETATM   29  C1  UNL     1      17.585  -1.181  52.933  1.00  0.00     0.034 C 
ENDBRANCH  27  28
ENDBRANCH   1  27
TORSDOF 8
ENDMDL
MODEL 4
REMARK VINA RESULT:      -7.0      3.124      6.634
REMARK  8 active torsions:
REMARK  status: ('A' for Active; 'I' for Inactive)
REMARK    1  A    between atoms: C2_2  and  O1_3 
REMARK    2  A    between atoms: O1_3  and  C3_4 
REMARK    3  A    between atoms: C16_20  and  C17_21 
REMARK    4  A    between atoms: C16_20  and  O4_27 
REMARK    5  A    between atoms: C17_21  and  O2_22 
REMARK    6  A    between atoms: O2_22  and  C18_23 
REMARK    7  A    between atoms: C18_23  and  C19_24 
REMARK    8  A    between atoms: C19_24  and  O3_25 
ROOT
HETATM    1  C3  UNL     1      22.604   0.678  52.416  1.00  0.00     0.167 C 
HETATM    2  C4  UNL     1      22.951   1.555  51.504  1.00  0.00     0.092 C 
HETATM    3  N1  UNL     1      21.602   1.590  51.187  1.00  0.00    -0.242 NA
HETATM    4  C5  UNL     1      20.861   2.595  50.847  1.00  0.00     0.205 C 
HETATM    5  N2  UNL     1      21.476   3.889  50.774  1.00  0.00    -0.355 N 
HETATM    6  C6  UNL     1      22.148   4.967  50.156  1.00  0.00     0.326 C 
HETATM    7  C7  UNL     1      22.584   5.944  51.271  1.00  0.00     0.084 C 
HETATM    8  C8  UNL     1      22.600   7.333  50.768  1.00  0.00    -0.023 C 
HETATM    9  C9  UNL     1      22.731   8.000  49.629  1.00  0.00    -0.004 C 
HETATM   10  C10 UNL     1      22.940   7.528  48.262  1.00  0.00    -0.003 C 
HETATM   11  C11 UNL     1      23.016   6.387  47.588  1.00  0.00     0.003 C 
HETATM   12  C12 UNL     1      22.925   4.933  47.889  1.00  0.00     0.303 C 
HETATM   13  N3  UNL     1      23.269   4.708  49.274  1.00  0.00     0.118 NA
HETATM   14  C13 UNL     1      23.675   3.461  49.509  1.00  0.00     0.304 C 
HETATM   15  C14 UNL     1      24.601   2.848  50.414  1.00  0.00     0.020 C 
HETATM   16  C15 UNL     1      24.338   1.956  51.361  1.00  0.00     0.026 C 
HETATM   17  C16 UNL     1      25.262   1.342  52.266  1.00  0.00     0.080 C 
HETATM   18  H8  UNL     1      21.213   3.994  51.808  1.00  0.00     0.162 HD
ENDROOT
BRANCH  17  19
HETATM   19  C17 UNL     1      26.505   1.691  52.162  1.00  0.00     0.040 C 
BRANCH  19  20
HETATM   20  O2  UNL     1      27.791   2.131  52.235  1.00  0.00     0.000 OA
BRANCH  20  21
HETATM   21  C18 UNL     1      28.354   2.368  53.534  1.00  0.00     0.028 C 
BRANCH  21  22
HETATM   22  C19 UNL     1      28.592   1.019  54.167  1.00  0.00     0.167 C 
BRANCH  22  23
HETATM   23  O3  UNL     1      29.764   0.522  53.583  1.00  0.00    -0.396 OA
HETATM   24  C20 UNL     1      29.692  -0.850  53.543  1.00  0.00     0.201 C 
ENDBRANCH  22  23
ENDBRANCH  21  22
ENDBRANCH  20  21
ENDBRANCH  19  20
ENDBRANCH  17  19
BRANCH  17  25
HETATM   25  O4  UNL     1      25.147   0.433  53.261  1.00  0.00    -0.355 OA
HETATM   26  C21 UNL     1      25.692  -0.880  53.256  1.00  0.00     0.210 C 
ENDBRANCH  17  25
BRANCH   1  27
HETATM   27  O1  UNL     1      21.669  -0.071  53.061  1.00  0.00    -0.361 OA
BRANCH  27  28
HETATM   28  C2  UNL     1      21.492  -0.149  54.473  1.00  0.00     0.170 C 
HETATM   29  C1  UNL     1      22.448  -1.176  55.031  1.00  0.00     0.034 C 
ENDBRANCH  27  28
ENDBRANCH   1  27
TORSDOF 8
ENDMDL
MODEL 5
REMARK VINA RESULT:      -6.8      2.602      7.203
REMARK  8 active torsions:
REMARK  status: ('A' for Active; 'I' for Inactive)
REMARK    1  A    between atoms: C2_2  and  O1_3 
REMARK    2  A    between atoms: O1_3  and  C3_4 
REMARK    3  A    between atoms: C16_20  and  C17_21 
REMARK    4  A    between atoms: C16_20  and  O4_27 
REMARK    5  A    between atoms: C17_21  and  O2_22 
REMARK    6  A    between atoms: O2_22  and  C18_23 
REMARK    7  A    between atoms: C18_23  and  C19_24 
REMARK    8  A    between atoms: C19_24  and  O3_25 
ROOT
HETATM    1  C3  UNL     1      26.191   0.549  52.746  1.00  0.00     0.167 C 
HETATM    2  C4  UNL     1      25.415   1.578  52.506  1.00  0.00     0.092 C 
HETATM    3  N1  UNL     1      26.534   2.141  51.914  1.00  0.00    -0.242 NA
HETATM    4  C5  UNL     1      26.625   2.869  50.847  1.00  0.00     0.205 C 
HETATM    5  N2  UNL     1      25.417   3.165  50.132  1.00  0.00    -0.355 N 
HETATM    6  C6  UNL     1      24.265   3.909  49.795  1.00  0.00     0.326 C 
HETATM    7  C7  UNL     1      23.401   3.032  48.861  1.00  0.00     0.084 C 
HETATM    8  C8  UNL     1      22.643   3.873  47.912  1.00  0.00    -0.023 C 
HETATM    9  C9  UNL     1      22.155   5.102  47.810  1.00  0.00    -0.004 C 
HETATM   10  C10 UNL     1      22.199   6.230  48.737  1.00  0.00    -0.003 C 
HETATM   11  C11 UNL     1      22.723   6.551  49.914  1.00  0.00     0.003 C 
HETATM   12  C12 UNL     1      23.576   5.897  50.944  1.00  0.00     0.303 C 
HETATM   13  N3  UNL     1      23.431   4.463  50.846  1.00  0.00     0.118 NA
HETATM   14  C13 UNL     1      23.751   3.834  51.975  1.00  0.00     0.304 C 
HETATM   15  C14 UNL     1      23.308   2.640  52.633  1.00  0.00     0.020 C 
HETATM   16  C15 UNL     1      24.023   1.558  52.914  1.00  0.00     0.026 C 
HETATM   17  C16 UNL     1      23.582   0.365  53.572  1.00  0.00     0.080 C 
HETATM   18  H8  UNL     1      25.606   2.265  49.582  1.00  0.00     0.162 HD
ENDROOT
BRANCH  17  19
HETATM   19  C17 UNL     1      22.340   0.321  53.940  1.00  0.00     0.040 C 
BRANCH  19  20
HETATM   20  O2  UNL     1      21.084   0.107  54.417  1.00  0.00     0.000 OA
BRANCH  20  21
HETATM   21  C18 UNL     1      20.054  -0.250  53.483  1.00  0.00     0.028 C 
BRANCH  21  22
HETATM   22  C19 UNL     1      19.987   0.853  52.456  1.00  0.00     0.167 C 
BRANCH  22  23
HETATM   23  O3  UNL     1      19.947   0.216  51.208  1.00  0.00    -0.396 OA
HETATM   24  C20 UNL     1      21.041   0.605  50.475  1.00  0.00     0.201 C 
ENDBRANCH  22  23
ENDBRANCH  21  22
ENDBRANCH  20  21
ENDBRANCH  19  20
ENDBRANCH  17  19
BRANCH  17  25
HETATM   25  O4  UNL     1      24.181  -0.795  53.926  1.00  0.00    -0.355 OA
HETATM   26  C21 UNL     1      24.431  -1.232  55.255  1.00  0.00     0.210 C 
ENDBRANCH  17  25
BRANCH   1  27
HETATM   27  O1  UNL     1      27.394  -0.084  52.678  1.00  0.00    -0.361 OA
BRANCH  27  28
HETATM   28  C2  UNL     1      28.191  -0.483  53.790  1.00  0.00     0.170 C 
HETATM   29  C1  UNL     1      29.638  -0.168  53.495  1.00  0.00     0.034 C 
ENDBRANCH  27  28
ENDBRANCH   1  27
TORSDOF 8
ENDMDL
MODEL 6
REMARK VINA RESULT:      -6.5      2.631      7.794
REMARK  8 active torsions:
REMARK  status: ('A' for Active; 'I' for Inactive)
REMARK    1  A    between atoms: C2_2  and  O1_3 
REMARK    2  A    between atoms: O1_3  and  C3_4 
REMARK    3  A    between atoms: C16_20  and  C17_21 
REMARK    4  A    between atoms: C16_20  and  O4_27 
REMARK    5  A    between atoms: C17_21  and  O2_22 
REMARK    6  A    between atoms: O2_22  and  C18_23 
REMARK    7  A    between atoms: C18_23  and  C19_24 
REMARK    8  A    between atoms: C19_24  and  O3_25 
ROOT
HETATM    1  C3  UNL     1      24.942   0.565  53.192  1.00  0.00     0.167 C 
HETATM    2  C4  UNL     1      24.102   1.443  52.700  1.00  0.00     0.092 C 
HETATM    3  N1  UNL     1      25.234   2.157  52.342  1.00  0.00    -0.242 NA
HETATM    4  C5  UNL     1      25.471   2.846  51.271  1.00  0.00     0.205 C 
HETATM    5  N2  UNL     1      24.441   2.913  50.275  1.00  0.00    -0.355 N 
HETATM    6  C6  UNL     1      23.306   3.445  49.623  1.00  0.00     0.326 C 
HETATM    7  C7  UNL     1      22.834   2.402  48.586  1.00  0.00     0.084 C 
HETATM    8  C8  UNL     1      22.211   3.069  47.424  1.00  0.00    -0.023 C 
HETATM    9  C9  UNL     1      21.585   4.198  47.116  1.00  0.00    -0.004 C 
HETATM   10  C10 UNL     1      21.236   5.354  47.938  1.00  0.00    -0.003 C 
HETATM   11  C11 UNL     1      21.407   5.803  49.175  1.00  0.00     0.003 C 
HETATM   12  C12 UNL     1      22.073   5.339  50.422  1.00  0.00     0.303 C 
HETATM   13  N3  UNL     1      22.171   3.897  50.405  1.00  0.00     0.118 NA
HETATM   14  C13 UNL     1      22.299   3.375  51.623  1.00  0.00     0.304 C 
HETATM   15  C14 UNL     1      21.893   2.153  52.252  1.00  0.00     0.020 C 
HETATM   16  C15 UNL     1      22.671   1.214  52.774  1.00  0.00     0.026 C 
HETATM   17  C16 UNL     1      22.267  -0.008  53.403  1.00  0.00     0.080 C 
HETATM   18  H8  UNL     1      24.889   2.035  49.855  1.00  0.00     0.162 HD
ENDROOT
BRANCH  17  19
HETATM   19  C17 UNL     1      20.994  -0.239  53.475  1.00  0.00     0.040 C 
BRANCH  19  20
HETATM   20  O2  UNL     1      19.660  -0.367  53.712  1.00  0.00     0.000 OA
BRANCH  20  21
HETATM   21  C18 UNL     1      18.781  -0.506  52.585  1.00  0.00     0.028 C 
BRANCH  21  22
HETATM   22  C19 UNL     1      17.574  -1.277  53.058  1.00  0.00     0.167 C 
BRANCH  22  23
HETATM   23  O3  UNL     1      18.072  -2.339  53.824  1.00  0.00    -0.396 OA
HETATM   24  C20 UNL     1      17.305  -3.454  53.589  1.00  0.00     0.201 C 
ENDBRANCH  22  23
ENDBRANCH  21  22
ENDBRANCH  20  21
ENDBRANCH  19  20
ENDBRANCH  17  19
BRANCH  17  25
HETATM   25  O4  UNL     1      22.928  -1.040  53.975  1.00  0.00    -0.355 OA
HETATM   26  C21 UNL     1      22.812  -1.455  55.329  1.00  0.00     0.210 C 
ENDBRANCH  17  25
BRANCH   1  27
HETATM   27  O1  UNL     1      26.206   0.134  53.455  1.00  0.00    -0.361 OA
BRANCH  27  28
HETATM   28  C2  UNL     1      26.898  -0.895  52.754  1.00  0.00     0.170 C 
HETATM   29  C1  UNL     1      28.334  -0.926  53.220  1.00  0.00     0.034 C 
ENDBRANCH  27  28
ENDBRANCH   1  27
TORSDOF 8
ENDMDL
MODEL 7
REMARK VINA RESULT:      -6.2      3.513      7.321
REMARK  8 active torsions:
REMARK  status: ('A' for Active; 'I' for Inactive)
REMARK    1  A    between atoms: C2_2  and  O1_3 
REMARK    2  A    between atoms: O1_3  and  C3_4 
REMARK    3  A    between atoms: C16_20  and  C17_21 
REMARK    4  A    between atoms: C16_20  and  O4_27 
REMARK    5  A    between atoms: C17_21  and  O2_22 
REMARK    6  A    between atoms: O2_22  and  C18_23 
REMARK    7  A    between atoms: C18_23  and  C19_24 
REMARK    8  A    between atoms: C19_24  and  O3_25 
ROOT
HETATM    1  C3  UNL     1      22.493   1.122  52.571  1.00  0.00     0.167 C 
HETATM    2  C4  UNL     1      22.533   2.412  52.339  1.00  0.00     0.092 C 
HETATM    3  N1  UNL     1      23.907   2.277  52.459  1.00  0.00    -0.242 NA
HETATM    4  C5  UNL     1      24.854   2.850  51.789  1.00  0.00     0.205 C 
HETATM    5  N2  UNL     1      24.481   3.772  50.755  1.00  0.00    -0.355 N 
HETATM    6  C6  UNL     1      24.165   5.031  50.199  1.00  0.00     0.326 C 
HETATM    7  C7  UNL     1      23.604   4.786  48.780  1.00  0.00     0.084 C 
HETATM    8  C8  UNL     1      23.930   5.919  47.890  1.00  0.00    -0.023 C 
HETATM    9  C9  UNL     1      24.203   7.216  47.954  1.00  0.00    -0.004 C 
HETATM   10  C10 UNL     1      24.291   8.120  49.097  1.00  0.00    -0.003 C 
HETATM   11  C11 UNL     1      24.222   8.083  50.422  1.00  0.00     0.003 C 
HETATM   12  C12 UNL     1      24.011   7.054  51.476  1.00  0.00     0.303 C 
HETATM   13  N3  UNL     1      23.287   5.936  50.916  1.00  0.00     0.118 NA
HETATM   14  C13 UNL     1      22.651   5.218  51.840  1.00  0.00     0.304 C 
HETATM   15  C14 UNL     1      21.440   4.454  51.876  1.00  0.00     0.020 C 
HETATM   16  C15 UNL     1      21.309   3.154  52.104  1.00  0.00     0.026 C 
HETATM   17  C16 UNL     1      20.098   2.389  52.141  1.00  0.00     0.080 C 
HETATM   18  H8  UNL     1      24.478   2.924  50.099  1.00  0.00     0.162 HD
ENDROOT
BRANCH  17  19
HETATM   19  C17 UNL     1      18.992   3.029  51.926  1.00  0.00     0.040 C 
BRANCH  19  20
HETATM   20  O2  UNL     1      17.806   3.696  51.897  1.00  0.00     0.000 OA
BRANCH  20  21
HETATM   21  C18 UNL     1      16.612   2.944  51.633  1.00  0.00     0.028 C 
BRANCH  21  22
HETATM   22  C19 UNL     1      15.444   3.866  51.883  1.00  0.00     0.167 C 
BRANCH  22  23
HETATM   23  O3  UNL     1      15.624   4.372  53.177  1.00  0.00    -0.396 OA
HETATM   24  C20 UNL     1      14.400   4.455  53.795  1.00  0.00     0.201 C 
ENDBRANCH  22  23
ENDBRANCH  21  22
ENDBRANCH  20  21
ENDBRANCH  19  20
ENDBRANCH  17  19
BRANCH  17  25
HETATM   25  O4  UNL     1      19.811   1.086  52.359  1.00  0.00    -0.355 OA
HETATM   26  C21 UNL     1      19.142   0.217  51.455  1.00  0.00     0.210 C 
ENDBRANCH  17  25
BRANCH   1  27
HETATM   27  O1  UNL     1      23.103  -0.067  52.831  1.00  0.00    -0.361 OA
BRANCH  27  28
HETATM   28  C2  UNL     1      23.102  -0.749  54.083  1.00  0.00     0.170 C 
HETATM   29  C1  UNL     1      21.675  -1.039  54.482  1.00  0.00     0.034 C 
ENDBRANCH  27  28
ENDBRANCH   1  27
TORSDOF 8
ENDMDL
MODEL 8
REMARK VINA RESULT:      -6.2      1.463      2.013
REMARK  8 active torsions:
REMARK  status: ('A' for Active; 'I' for Inactive)
REMARK    1  A    between atoms: C2_2  and  O1_3 
REMARK    2  A    between atoms: O1_3  and  C3_4 
REMARK    3  A    between atoms: C16_20  and  C17_21 
REMARK    4  A    between atoms: C16_20  and  O4_27 
REMARK    5  A    between atoms: C17_21  and  O2_22 
REMARK    6  A    between atoms: O2_22  and  C18_23 
REMARK    7  A    between atoms: C18_23  and  C19_24 
REMARK    8  A    between atoms: C19_24  and  O3_25 
ROOT
HETATM    1  C3  UNL     1      22.420   2.126  51.379  1.00  0.00     0.167 C 
HETATM    2  C4  UNL     1      23.610   2.070  51.927  1.00  0.00     0.092 C 
HETATM    3  N1  UNL     1      23.006   1.274  52.888  1.00  0.00    -0.242 NA
HETATM    4  C5  UNL     1      23.461   0.226  53.496  1.00  0.00     0.205 C 
HETATM    5  N2  UNL     1      24.783  -0.222  53.162  1.00  0.00    -0.355 N 
HETATM    6  C6  UNL     1      26.188  -0.303  53.280  1.00  0.00     0.326 C 
HETATM    7  C7  UNL     1      26.717  -1.058  52.041  1.00  0.00     0.084 C 
HETATM    8  C8  UNL     1      27.940  -1.816  52.377  1.00  0.00    -0.023 C 
HETATM    9  C9  UNL     1      28.943  -1.793  53.244  1.00  0.00    -0.004 C 
HETATM   10  C10 UNL     1      29.242  -0.872  54.337  1.00  0.00    -0.003 C 
HETATM   11  C11 UNL     1      28.709   0.180  54.947  1.00  0.00     0.003 C 
HETATM   12  C12 UNL     1      27.474   1.001  54.826  1.00  0.00     0.303 C 
HETATM   13  N3  UNL     1      26.965   0.906  53.478  1.00  0.00     0.118 NA
HETATM   14  C13 UNL     1      26.186   1.934  53.146  1.00  0.00     0.304 C 
HETATM   15  C14 UNL     1      25.902   2.644  51.935  1.00  0.00     0.020 C 
HETATM   16  C15 UNL     1      24.734   2.752  51.315  1.00  0.00     0.026 C 
HETATM   17  C16 UNL     1      24.448   3.462  50.104  1.00  0.00     0.080 C 
HETATM   18  H8  UNL     1      24.313  -0.818  52.405  1.00  0.00     0.162 HD
ENDROOT
BRANCH  17  19
HETATM   19  C17 UNL     1      25.438   4.074  49.534  1.00  0.00     0.040 C 
BRANCH  19  20
HETATM   20  O2  UNL     1      26.387   4.674  48.765  1.00  0.00     0.000 OA
BRANCH  20  21
HETATM   21  C18 UNL     1      26.508   6.103  48.827  1.00  0.00     0.028 C 
BRANCH  21  22
HETATM   22  C19 UNL     1      27.819   6.465  48.176  1.00  0.00     0.167 C 
BRANCH  22  23
HETATM   23  O3  UNL     1      28.617   5.315  48.251  1.00  0.00    -0.396 OA
HETATM   24  C20 UNL     1      29.932   5.695  48.372  1.00  0.00     0.201 C 
ENDBRANCH  22  23
ENDBRANCH  21  22
ENDBRANCH  20  21
ENDBRANCH  19  20
ENDBRANCH  17  19
BRANCH  17  25
HETATM   25  O4  UNL     1      23.332   3.663  49.368  1.00  0.00    -0.355 OA
HETATM   26  C21 UNL     1      22.830   4.923  48.943  1.00  0.00     0.210 C 
ENDBRANCH  17  25
BRANCH   1  27
HETATM   27  O1  UNL     1      21.098   1.801  51.351  1.00  0.00    -0.361 OA
BRANCH  27  28
HETATM   28  C2  UNL     1      20.087   2.485  50.616  1.00  0.00     0.170 C 
HETATM   29  C1  UNL     1      19.883   1.784  49.295  1.00  0.00     0.034 C 
ENDBRANCH  27  28
ENDBRANCH   1  27
TORSDOF 8
ENDMDL
MODEL 9
REMARK VINA RESULT:      -6.1      3.416      5.843
REMARK  8 active torsions:
REMARK  status: ('A' for Active; 'I' for Inactive)
REMARK    1  A    between atoms: C2_2  and  O1_3 
REMARK    2  A    between atoms: O1_3  and  C3_4 
REMARK    3  A    between atoms: C16_20  and  C17_21 
REMARK    4  A    between atoms: C16_20  and  O4_27 
REMARK    5  A    between atoms: C17_21  and  O2_22 
REMARK    6  A    between atoms: O2_22  and  C18_23 
REMARK    7  A    between atoms: C18_23  and  C19_24 
REMARK    8  A    between atoms: C19_24  and  O3_25 
ROOT
HETATM    1  C3  UNL     1      22.325   1.079  52.722  1.00  0.00     0.167 C 
HETATM    2  C4  UNL     1      22.656   2.171  52.075  1.00  0.00     0.092 C 
HETATM    3  N1  UNL     1      23.509   2.409  53.142  1.00  0.00    -0.242 NA
HETATM    4  C5  UNL     1      24.705   2.905  53.147  1.00  0.00     0.205 C 
HETATM    5  N2  UNL     1      25.282   3.279  51.889  1.00  0.00    -0.355 N 
HETATM    6  C6  UNL     1      25.594   4.144  50.816  1.00  0.00     0.326 C 
HETATM    7  C7  UNL     1      26.190   3.282  49.681  1.00  0.00     0.084 C 
HETATM    8  C8  UNL     1      27.172   4.061  48.898  1.00  0.00    -0.023 C 
HETATM    9  C9  UNL     1      27.454   5.318  48.586  1.00  0.00    -0.004 C 
HETATM   10  C10 UNL     1      26.796   6.568  48.959  1.00  0.00    -0.003 C 
HETATM   11  C11 UNL     1      25.801   6.996  49.726  1.00  0.00     0.003 C 
HETATM   12  C12 UNL     1      24.793   6.397  50.643  1.00  0.00     0.303 C 
HETATM   13  N3  UNL     1      24.571   5.018  50.274  1.00  0.00     0.118 NA
HETATM   14  C13 UNL     1      23.395   4.555  50.693  1.00  0.00     0.304 C 
HETATM   15  C14 UNL     1      22.447   3.598  50.204  1.00  0.00     0.020 C 
HETATM   16  C15 UNL     1      22.055   2.474  50.791  1.00  0.00     0.026 C 
HETATM   17  C16 UNL     1      21.107   1.517  50.304  1.00  0.00     0.080 C 
HETATM   18  H8  UNL     1      25.656   2.276  51.842  1.00  0.00     0.162 HD
ENDROOT
BRANCH  17  19
HETATM   19  C17 UNL     1      20.562   1.763  49.154  1.00  0.00     0.040 C 
BRANCH  19  20
HETATM   20  O2  UNL     1      20.122   2.167  47.931  1.00  0.00     0.000 OA
BRANCH  20  21
HETATM   21  C18 UNL     1      19.210   3.273  47.870  1.00  0.00     0.028 C 
BRANCH  21  22
HETATM   22  C19 UNL     1      18.017   2.912  48.720  1.00  0.00     0.167 C 
BRANCH  22  23
HETATM   23  O3  UNL     1      17.055   3.901  48.474  1.00  0.00    -0.396 OA
HETATM   24  C20 UNL     1      16.212   3.979  49.556  1.00  0.00     0.201 C 
ENDBRANCH  22  23
ENDBRANCH  21  22
ENDBRANCH  20  21
ENDBRANCH  19  20
ENDBRANCH  17  19
BRANCH  17  25
HETATM   25  O4  UNL     1      20.613   0.352  50.779  1.00  0.00    -0.355 OA
HETATM   26  C21 UNL     1      19.284   0.135  51.234  1.00  0.00     0.210 C 
ENDBRANCH  17  25
BRANCH   1  27
HETATM   27  O1  UNL     1      22.435   0.240  53.788  1.00  0.00    -0.361 OA
BRANCH  27  28
HETATM   28  C2  UNL     1      21.358  -0.236  54.590  1.00  0.00     0.170 C 
HETATM   29  C1  UNL     1      21.020  -1.647  54.172  1.00  0.00     0.034 C 
ENDBRANCH  27  28
ENDBRANCH   1  27
TORSDOF 8
ENDMDL
