MODEL 1
REMARK VINA RESULT:      -9.5      0.000      0.000
REMARK  6 active torsions:
REMARK  status: ('A' for Active; 'I' for Inactive)
REMARK    1  A    between atoms: C7_7  and  N1_8 
REMARK    2  A    between atoms: N1_8  and  C8_9 
REMARK    3  A    between atoms: N4_19  and  C16_20 
REMARK    4  A    between atoms: C16_20  and  C17_21 
REMARK    5  A    between atoms: C17_21  and  C18_22 
REMARK    6  A    between atoms: C18_22  and  N5_23 
ROOT
HETATM    1  C1  UNL     1      29.830  -2.155  53.461  1.00  0.00     0.018 C 
HETATM    2  C2  UNL     1      29.081  -1.222  53.389  1.00  0.00    -0.078 C 
HETATM    3  C3  UNL     1      28.179  -0.119  53.316  1.00  0.00     0.019 A 
HETATM    4  C4  UNL     1      28.633   1.155  53.531  1.00  0.00     0.021 A 
HETATM    5  C5  UNL     1      27.727   2.177  53.453  1.00  0.00     0.004 A 
HETATM    6  C6  UNL     1      26.403   1.928  53.166  1.00  0.00     0.029 A 
HETATM    7  C7  UNL     1      25.897   0.678  52.943  1.00  0.00     0.035 A 
HETATM    8  C26 UNL     1      26.847  -0.302  53.035  1.00  0.00     0.050 A 
ENDROOT
BRANCH   7   9
HETATM    9  N1  UNL     1      24.530   0.447  52.647  1.00  0.00    -0.340 N 
HETATM   10  H5  UNL     1      24.319   0.804  51.696  1.00  0.00     0.167 HD
BRANCH   9  11
HETATM   11  C8  UNL     1      23.547  -0.154  53.432  1.00  0.00     0.142 A 
HETATM   12  N2  UNL     1      23.785  -0.788  54.584  1.00  0.00    -0.224 NA
HETATM   13  C9  UNL     1      22.863  -1.371  55.351  1.00  0.00     0.236 A 
HETATM   14  N3  UNL     1      21.575  -1.335  54.962  1.00  0.00    -0.241 NA
HETATM   15  C10 UNL     1      21.249  -0.703  53.795  1.00  0.00     0.075 A 
HETATM   16  C11 UNL     1      19.911  -0.723  53.486  1.00  0.00     0.071 A 
HETATM   17  C15 UNL     1      22.229  -0.119  53.039  1.00  0.00     0.041 A 
HETATM   18  C12 UNL     1      19.565  -0.094  52.315  1.00  0.00     0.098 A 
HETATM   19  C13 UNL     1      20.466   0.544  51.448  1.00  0.00     0.071 A 
HETATM   20  O2  UNL     1      18.207  -0.096  51.961  1.00  0.00    -0.340 OA
HETATM   21  C14 UNL     1      21.770   0.481  51.890  1.00  0.00     0.050 A 
HETATM   22  N4  UNL     1      20.056   1.226  50.232  1.00  0.00    -0.314 N 
HETATM   23  C24 UNL     1      18.633   1.185  50.006  1.00  0.00     0.248 C 
HETATM   24  O1  UNL     1      18.205   2.161  49.339  1.00  0.00    -0.271 OA
HETATM   25  C25 UNL     1      17.861   0.041  50.569  1.00  0.00     0.279 C 
BRANCH  22  26
HETATM   26  C16 UNL     1      21.085   1.807  49.406  1.00  0.00     0.134 C 
BRANCH  26  27
HETATM   27  C17 UNL     1      21.155   3.289  49.391  1.00  0.00     0.040 C 
BRANCH  27  28
HETATM   28  C18 UNL     1      21.682   4.056  50.512  1.00  0.00     0.118 C 
BRANCH  28  29
HETATM   29  N5  UNL     1      22.947   4.595  50.584  1.00  0.00    -0.412 N 
HETATM   30  C19 UNL     1      23.516   5.543  49.761  1.00  0.00     0.117 C 
HETATM   31  C20 UNL     1      25.044   5.601  49.965  1.00  0.00     0.019 C 
HETATM   32  C21 UNL     1      25.626   4.298  49.463  1.00  0.00     0.003 C 
HETATM   33  C22 UNL     1      24.861   3.182  50.145  1.00  0.00     0.019 C 
HETATM   34  C23 UNL     1      23.951   3.740  51.195  1.00  0.00     0.117 C 
ENDBRANCH  28  29
ENDBRANCH  27  28
ENDBRANCH  26  27
ENDBRANCH  22  26
ENDBRANCH   9  11
ENDBRANCH   7   9
TORSDOF 6
ENDMDL
MODEL 2
REMARK VINA RESULT:      -9.4      2.191      5.705
REMARK  6 active torsions:
REMARK  status: ('A' for Active; 'I' for Inactive)
REMARK    1  A    between atoms: C7_7  and  N1_8 
REMARK    2  A    between atoms: N1_8  and  C8_9 
REMARK    3  A    between atoms: N4_19  and  C16_20 
REMARK    4  A    between atoms: C16_20  and  C17_21 
REMARK    5  A    between atoms: C17_21  and  C18_22 
REMARK    6  A    between atoms: C18_22  and  N5_23 
ROOT
HETATM    1  C1  UNL     1      23.229   7.385  50.820  1.00  0.00     0.018 C 
HETATM    2  C2  UNL     1      24.103   6.646  50.464  1.00  0.00    -0.078 C 
HETATM    3  C3  UNL     1      25.131   5.753  50.036  1.00  0.00     0.019 A 
HETATM    4  C4  UNL     1      26.016   6.140  49.066  1.00  0.00     0.021 A 
HETATM    5  C5  UNL     1      26.982   5.246  48.689  1.00  0.00     0.004 A 
HETATM    6  C6  UNL     1      27.056   4.000  49.269  1.00  0.00     0.029 A 
HETATM    7  C7  UNL     1      26.199   3.562  50.240  1.00  0.00     0.035 A 
HETATM    8  C26 UNL     1      25.257   4.497  50.575  1.00  0.00     0.050 A 
ENDROOT
BRANCH   7   9
HETATM    9  N1  UNL     1      26.296   2.274  50.825  1.00  0.00    -0.340 N 
HETATM   10  H5  UNL     1      25.880   1.574  50.183  1.00  0.00     0.167 HD
BRANCH   9  11
HETATM   11  C8  UNL     1      26.843   1.902  52.051  1.00  0.00     0.142 A 
HETATM   12  N2  UNL     1      28.068   2.240  52.465  1.00  0.00    -0.224 NA
HETATM   13  C9  UNL     1      28.613   1.895  53.632  1.00  0.00     0.236 A 
HETATM   14  N3  UNL     1      27.898   1.144  54.488  1.00  0.00    -0.241 NA
HETATM   15  C10 UNL     1      26.634   0.757  54.139  1.00  0.00     0.075 A 
HETATM   16  C11 UNL     1      25.988  -0.007  55.079  1.00  0.00     0.071 A 
HETATM   17  C15 UNL     1      26.115   1.134  52.931  1.00  0.00     0.041 A 
HETATM   18  C12 UNL     1      24.716  -0.406  54.745  1.00  0.00     0.098 A 
HETATM   19  C13 UNL     1      24.065  -0.090  53.543  1.00  0.00     0.071 A 
HETATM   20  O2  UNL     1      24.024  -1.193  55.678  1.00  0.00    -0.340 OA
HETATM   21  C14 UNL     1      24.838   0.680  52.701  1.00  0.00     0.050 A 
HETATM   22  N4  UNL     1      22.706  -0.507  53.239  1.00  0.00    -0.314 N 
HETATM   23  C24 UNL     1      22.094  -1.273  54.295  1.00  0.00     0.248 C 
HETATM   24  O1  UNL     1      20.841  -1.173  54.322  1.00  0.00    -0.271 OA
HETATM   25  C25 UNL     1      22.977  -2.061  55.200  1.00  0.00     0.279 C 
BRANCH  22  26
HETATM   26  C16 UNL     1      22.165  -0.152  51.950  1.00  0.00     0.134 C 
BRANCH  26  27
HETATM   27  C17 UNL     1      21.303   1.055  51.911  1.00  0.00     0.040 C 
BRANCH  27  28
HETATM   28  C18 UNL     1      20.370   1.312  50.822  1.00  0.00     0.118 C 
BRANCH  28  29
HETATM   29  N5  UNL     1      20.711   1.789  49.576  1.00  0.00    -0.412 N 
HETATM   30  C19 UNL     1      21.678   1.312  48.717  1.00  0.00     0.117 C 
HETATM   31  C20 UNL     1      21.977   2.336  47.603  1.00  0.00     0.019 C 
HETATM   32  C21 UNL     1      22.634   3.537  48.245  1.00  0.00     0.003 C 
HETATM   33  C22 UNL     1      21.738   3.972  49.387  1.00  0.00     0.019 C 
HETATM   34  C23 UNL     1      20.453   3.204  49.362  1.00  0.00     0.117 C 
ENDBRANCH  28  29
ENDBRANCH  27  28
ENDBRANCH  26  27
ENDBRANCH  22  26
ENDBRANCH   9  11
ENDBRANCH   7   9
TORSDOF 6
ENDMDL
MODEL 3
REMARK VINA RESULT:      -9.2      2.241      5.153
REMARK  6 active torsions:
REMARK  status: ('A' for Active; 'I' for Inactive)
REMARK    1  A    between atoms: C7_7  and  N1_8 
REMARK    2  A    between atoms: N1_8  and  C8_9 
REMARK    3  A    between atoms: N4_19  and  C16_20 
REMARK    4  A    between atoms: C16_20  and  C17_21 
REMARK    5  A    between atoms: C17_21  and  C18_22 
REMARK    6  A    between atoms: C18_22  and  N5_23 
ROOT
HETATM    1  C1  UNL     1      30.141   5.467  47.855  1.00  0.00     0.018 C 
HETATM    2  C2  UNL     1      28.990   5.479  48.186  1.00  0.00    -0.078 C 
HETATM    3  C3  UNL     1      27.624   5.491  48.599  1.00  0.00     0.019 A 
HETATM    4  C4  UNL     1      26.838   6.582  48.341  1.00  0.00     0.021 A 
HETATM    5  C5  UNL     1      25.535   6.544  48.759  1.00  0.00     0.004 A 
HETATM    6  C6  UNL     1      25.036   5.442  49.416  1.00  0.00     0.029 A 
HETATM    7  C7  UNL     1      25.775   4.327  49.700  1.00  0.00     0.035 A 
HETATM    8  C26 UNL     1      27.067   4.423  49.259  1.00  0.00     0.050 A 
ENDROOT
BRANCH   7   9
HETATM    9  N1  UNL     1      25.238   3.203  50.377  1.00  0.00    -0.340 N 
HETATM   10  H5  UNL     1      24.280   3.017  50.026  1.00  0.00     0.167 HD
BRANCH   9  11
HETATM   11  C8  UNL     1      25.818   2.409  51.364  1.00  0.00     0.142 A 
HETATM   12  N2  UNL     1      27.121   2.402  51.658  1.00  0.00    -0.224 NA
HETATM   13  C9  UNL     1      27.699   1.651  52.596  1.00  0.00     0.236 A 
HETATM   14  N3  UNL     1      26.934   0.819  53.327  1.00  0.00    -0.241 NA
HETATM   15  C10 UNL     1      25.589   0.768  53.088  1.00  0.00     0.075 A 
HETATM   16  C11 UNL     1      24.898  -0.111  53.884  1.00  0.00     0.071 A 
HETATM   17  C15 UNL     1      25.040   1.557  52.114  1.00  0.00     0.041 A 
HETATM   18  C12 UNL     1      23.545  -0.177  53.657  1.00  0.00     0.098 A 
HETATM   19  C13 UNL     1      22.854   0.575  52.694  1.00  0.00     0.071 A 
HETATM   20  O2  UNL     1      22.803  -1.068  54.447  1.00  0.00    -0.340 OA
HETATM   21  C14 UNL     1      23.680   1.411  51.974  1.00  0.00     0.050 A 
HETATM   22  N4  UNL     1      21.415   0.499  52.505  1.00  0.00    -0.314 N 
HETATM   23  C24 UNL     1      20.768  -0.421  53.405  1.00  0.00     0.248 C 
HETATM   24  O1  UNL     1      19.572  -0.121  53.650  1.00  0.00    -0.271 OA
HETATM   25  C25 UNL     1      21.557  -1.572  53.926  1.00  0.00     0.279 C 
BRANCH  22  26
HETATM   26  C16 UNL     1      20.831   1.295  51.452  1.00  0.00     0.134 C 
BRANCH  26  27
HETATM   27  C17 UNL     1      20.598   0.603  50.161  1.00  0.00     0.040 C 
BRANCH  27  28
HETATM   28  C18 UNL     1      21.471   0.788  49.008  1.00  0.00     0.118 C 
BRANCH  28  29
HETATM   29  N5  UNL     1      21.536   1.923  48.232  1.00  0.00    -0.412 N 
HETATM   30  C19 UNL     1      22.625   2.737  48.004  1.00  0.00     0.117 C 
HETATM   31  C20 UNL     1      22.188   4.077  47.380  1.00  0.00     0.019 C 
HETATM   32  C21 UNL     1      21.391   4.833  48.420  1.00  0.00     0.003 C 
HETATM   33  C22 UNL     1      20.310   3.894  48.914  1.00  0.00     0.019 C 
HETATM   34  C23 UNL     1      20.284   2.647  48.086  1.00  0.00     0.117 C 
ENDBRANCH  28  29
ENDBRANCH  27  28
ENDBRANCH  26  27
ENDBRANCH  22  26
ENDBRANCH   9  11
ENDBRANCH   7   9
TORSDOF 6
ENDMDL
MODEL 4
REMARK VINA RESULT:      -9.2      1.907      6.306
REMARK  6 active torsions:
REMARK  status: ('A' for Active; 'I' for Inactive)
REMARK    1  A    between atoms: C7_7  and  N1_8 
REMARK    2  A    between atoms: N1_8  and  C8_9 
REMARK    3  A    between atoms: N4_19  and  C16_20 
REMARK    4  A    between atoms: C16_20  and  C17_21 
REMARK    5  A    between atoms: C17_21  and  C18_22 
REMARK    6  A    between atoms: C18_22  and  N5_23 
ROOT
HETATM    1  C1  UNL     1      24.691   8.536  48.245  1.00  0.00     0.018 C 
HETATM    2  C2  UNL     1      25.183   7.467  48.474  1.00  0.00    -0.078 C 
HETATM    3  C3  UNL     1      25.757   6.187  48.734  1.00  0.00     0.019 A 
HETATM    4  C4  UNL     1      27.093   5.977  48.516  1.00  0.00     0.021 A 
HETATM    5  C5  UNL     1      27.594   4.730  48.778  1.00  0.00     0.004 A 
HETATM    6  C6  UNL     1      26.779   3.725  49.247  1.00  0.00     0.029 A 
HETATM    7  C7  UNL     1      25.440   3.880  49.482  1.00  0.00     0.035 A 
HETATM    8  C26 UNL     1      24.997   5.144  49.202  1.00  0.00     0.050 A 
ENDROOT
BRANCH   7   9
HETATM    9  N1  UNL     1      24.621   2.830  49.967  1.00  0.00    -0.340 N 
HETATM   10  H5  UNL     1      25.148   2.281  50.672  1.00  0.00     0.167 HD
BRANCH   9  11
HETATM   11  C8  UNL     1      23.312   2.503  49.622  1.00  0.00     0.142 A 
HETATM   12  N2  UNL     1      22.706   2.897  48.498  1.00  0.00    -0.224 NA
HETATM   13  C9  UNL     1      21.455   2.598  48.147  1.00  0.00     0.236 A 
HETATM   14  N3  UNL     1      20.712   1.836  48.969  1.00  0.00    -0.241 NA
HETATM   15  C10 UNL     1      21.259   1.391  50.140  1.00  0.00     0.075 A 
HETATM   16  C11 UNL     1      20.421   0.622  50.909  1.00  0.00     0.071 A 
HETATM   17  C15 UNL     1      22.548   1.722  50.460  1.00  0.00     0.041 A 
HETATM   18  C12 UNL     1      20.954   0.166  52.091  1.00  0.00     0.098 A 
HETATM   19  C13 UNL     1      22.257   0.430  52.539  1.00  0.00     0.071 A 
HETATM   20  O2  UNL     1      20.127  -0.619  52.908  1.00  0.00    -0.340 OA
HETATM   21  C14 UNL     1      22.977   1.213  51.662  1.00  0.00     0.050 A 
HETATM   22  N4  UNL     1      22.795  -0.097  53.782  1.00  0.00    -0.314 N 
HETATM   23  C24 UNL     1      21.859  -0.919  54.506  1.00  0.00     0.248 C 
HETATM   24  O1  UNL     1      22.412  -1.787  55.228  1.00  0.00    -0.271 OA
HETATM   25  C25 UNL     1      20.403  -0.662  54.322  1.00  0.00     0.279 C 
BRANCH  22  26
HETATM   26  C16 UNL     1      24.137   0.283  54.150  1.00  0.00     0.134 C 
BRANCH  26  27
HETATM   27  C17 UNL     1      25.186  -0.748  53.958  1.00  0.00     0.040 C 
BRANCH  27  28
HETATM   28  C18 UNL     1      26.092  -0.736  52.817  1.00  0.00     0.118 C 
BRANCH  28  29
HETATM   29  N5  UNL     1      27.350  -0.178  52.805  1.00  0.00    -0.412 N 
HETATM   30  C19 UNL     1      28.442  -0.524  53.572  1.00  0.00     0.117 C 
HETATM   31  C20 UNL     1      29.529   0.569  53.505  1.00  0.00     0.019 C 
HETATM   32  C21 UNL     1      28.987   1.801  54.195  1.00  0.00     0.003 C 
HETATM   33  C22 UNL     1      27.641   2.100  53.569  1.00  0.00     0.019 C 
HETATM   34  C23 UNL     1      27.408   1.213  52.385  1.00  0.00     0.117 C 
ENDBRANCH  28  29
ENDBRANCH  27  28
ENDBRANCH  26  27
ENDBRANCH  22  26
ENDBRANCH   9  11
ENDBRANCH   7   9
TORSDOF 6
ENDMDL
MODEL 5
REMARK VINA RESULT:      -8.9      2.445      4.913
REMARK  6 active torsions:
REMARK  status: ('A' for Active; 'I' for Inactive)
REMARK    1  A    between atoms: C7_7  and  N1_8 
REMARK    2  A    between atoms: N1_8  and  C8_9 
REMARK    3  A    between atoms: N4_19  and  C16_20 
REMARK    4  A    between atoms: C16_20  and  C17_21 
REMARK    5  A    between atoms: C17_21  and  C18_22 
REMARK    6  A    between atoms: C18_22  and  N5_23 
ROOT
HETATM    1  C1  UNL     1      30.865   6.492  47.411  1.00  0.00     0.018 C 
HETATM    2  C2  UNL     1      29.740   6.255  47.750  1.00  0.00    -0.078 C 
HETATM    3  C3  UNL     1      28.408   5.969  48.171  1.00  0.00     0.019 A 
HETATM    4  C4  UNL     1      27.443   6.938  48.105  1.00  0.00     0.021 A 
HETATM    5  C5  UNL     1      26.181   6.614  48.523  1.00  0.00     0.004 A 
HETATM    6  C6  UNL     1      25.895   5.352  48.993  1.00  0.00     0.029 A 
HETATM    7  C7  UNL     1      26.819   4.347  49.080  1.00  0.00     0.035 A 
HETATM    8  C26 UNL     1      28.060   4.729  48.650  1.00  0.00     0.050 A 
ENDROOT
BRANCH   7   9
HETATM    9  N1  UNL     1      26.500   3.053  49.566  1.00  0.00    -0.340 N 
HETATM   10  H5  UNL     1      26.377   2.406  48.764  1.00  0.00     0.167 HD
BRANCH   9  11
HETATM   11  C8  UNL     1      26.354   2.616  50.880  1.00  0.00     0.142 A 
HETATM   12  N2  UNL     1      27.344   2.577  51.777  1.00  0.00    -0.224 NA
HETATM   13  C9  UNL     1      27.229   2.162  53.039  1.00  0.00     0.236 A 
HETATM   14  N3  UNL     1      26.029   1.742  53.480  1.00  0.00    -0.241 NA
HETATM   15  C10 UNL     1      24.964   1.752  52.624  1.00  0.00     0.075 A 
HETATM   16  C11 UNL     1      23.786   1.305  53.168  1.00  0.00     0.071 A 
HETATM   17  C15 UNL     1      25.128   2.187  51.336  1.00  0.00     0.041 A 
HETATM   18  C12 UNL     1      22.704   1.307  52.321  1.00  0.00     0.098 A 
HETATM   19  C13 UNL     1      22.733   1.726  50.982  1.00  0.00     0.071 A 
HETATM   20  O2  UNL     1      21.482   0.851  52.838  1.00  0.00    -0.340 OA
HETATM   21  C14 UNL     1      23.982   2.146  50.579  1.00  0.00     0.050 A 
HETATM   22  N4  UNL     1      21.558   1.742  50.126  1.00  0.00    -0.314 N 
HETATM   23  C24 UNL     1      20.362   1.289  50.790  1.00  0.00     0.248 C 
HETATM   24  O1  UNL     1      19.309   1.784  50.313  1.00  0.00    -0.271 OA
HETATM   25  C25 UNL     1      20.501   0.329  51.921  1.00  0.00     0.279 C 
BRANCH  22  26
HETATM   26  C16 UNL     1      21.730   2.156  48.755  1.00  0.00     0.134 C 
BRANCH  26  27
HETATM   27  C17 UNL     1      21.270   3.526  48.422  1.00  0.00     0.040 C 
BRANCH  27  28
HETATM   28  C18 UNL     1      22.177   4.666  48.384  1.00  0.00     0.118 C 
BRANCH  28  29
HETATM   29  N5  UNL     1      22.097   5.776  49.193  1.00  0.00    -0.412 N 
HETATM   30  C19 UNL     1      22.598   7.039  48.957  1.00  0.00     0.117 C 
HETATM   31  C20 UNL     1      22.607   7.877  50.251  1.00  0.00     0.019 C 
HETATM   32  C21 UNL     1      23.619   7.264  51.192  1.00  0.00     0.003 C 
HETATM   33  C22 UNL     1      23.282   5.791  51.303  1.00  0.00     0.019 C 
HETATM   34  C23 UNL     1      21.983   5.501  50.615  1.00  0.00     0.117 C 
ENDBRANCH  28  29
ENDBRANCH  27  28
ENDBRANCH  26  27
ENDBRANCH  22  26
ENDBRANCH   9  11
ENDBRANCH   7   9
TORSDOF 6
ENDMDL
MODEL 6
REMARK VINA RESULT:      -8.7      2.900      6.549
REMARK  6 active torsions:
REMARK  status: ('A' for Active; 'I' for Inactive)
REMARK    1  A    between atoms: C7_7  and  N1_8 
REMARK    2  A    between atoms: N1_8  and  C8_9 
REMARK    3  A    between atoms: N4_19  and  C16_20 
REMARK    4  A    between atoms: C16_20  and  C17_21 
REMARK    5  A    between atoms: C17_21  and  C18_22 
REMARK    6  A    between atoms: C18_22  and  N5_23 
ROOT
HETATM    1  C1  UNL     1      18.433   4.883  48.163  1.00  0.00     0.018 C 
HETATM    2  C2  UNL     1      19.185   4.052  48.588  1.00  0.00    -0.078 C 
HETATM    3  C3  UNL     1      20.066   3.056  49.104  1.00  0.00     0.019 A 
HETATM    4  C4  UNL     1      20.765   2.248  48.248  1.00  0.00     0.021 A 
HETATM    5  C5  UNL     1      21.595   1.306  48.793  1.00  0.00     0.004 A 
HETATM    6  C6  UNL     1      21.721   1.180  50.158  1.00  0.00     0.029 A 
HETATM    7  C7  UNL     1      21.047   1.959  51.058  1.00  0.00     0.035 A 
HETATM    8  C26 UNL     1      20.234   2.880  50.456  1.00  0.00     0.050 A 
ENDROOT
BRANCH   7   9
HETATM    9  N1  UNL     1      21.194   1.811  52.460  1.00  0.00    -0.340 N 
HETATM   10  H5  UNL     1      21.081   2.736  52.916  1.00  0.00     0.167 HD
BRANCH   9  11
HETATM   11  C8  UNL     1      21.449   0.661  53.204  1.00  0.00     0.142 A 
HETATM   12  N2  UNL     1      20.506  -0.183  53.635  1.00  0.00    -0.224 NA
HETATM   13  C9  UNL     1      20.724  -1.288  54.349  1.00  0.00     0.236 A 
HETATM   14  N3  UNL     1      21.988  -1.611  54.679  1.00  0.00    -0.241 NA
HETATM   15  C10 UNL     1      23.011  -0.799  54.274  1.00  0.00     0.075 A 
HETATM   16  C11 UNL     1      24.260  -1.215  54.661  1.00  0.00     0.071 A 
HETATM   17  C15 UNL     1      22.740   0.326  53.543  1.00  0.00     0.041 A 
HETATM   18  C12 UNL     1      25.301  -0.410  54.264  1.00  0.00     0.098 A 
HETATM   19  C13 UNL     1      25.165   0.768  53.513  1.00  0.00     0.071 A 
HETATM   20  O2  UNL     1      26.595  -0.797  54.645  1.00  0.00    -0.340 OA
HETATM   21  C14 UNL     1      23.854   1.055  53.200  1.00  0.00     0.050 A 
HETATM   22  N4  UNL     1      26.294   1.576  53.086  1.00  0.00    -0.314 N 
HETATM   23  C24 UNL     1      27.567   1.048  53.507  1.00  0.00     0.248 C 
HETATM   24  O1  UNL     1      28.515   1.364  52.744  1.00  0.00    -0.271 OA
HETATM   25  C25 UNL     1      27.613   0.218  54.744  1.00  0.00     0.279 C 
BRANCH  22  26
HETATM   26  C16 UNL     1      26.017   2.787  52.353  1.00  0.00     0.134 C 
BRANCH  26  27
HETATM   27  C17 UNL     1      25.981   2.665  50.875  1.00  0.00     0.040 C 
BRANCH  27  28
HETATM   28  C18 UNL     1      24.872   3.172  50.077  1.00  0.00     0.118 C 
BRANCH  28  29
HETATM   29  N5  UNL     1      24.352   4.444  50.153  1.00  0.00    -0.412 N 
HETATM   30  C19 UNL     1      23.332   4.899  50.963  1.00  0.00     0.117 C 
HETATM   31  C20 UNL     1      22.824   6.275  50.485  1.00  0.00     0.019 C 
HETATM   32  C21 UNL     1      22.152   6.078  49.145  1.00  0.00     0.003 C 
HETATM   33  C22 UNL     1      23.138   5.340  48.261  1.00  0.00     0.019 C 
HETATM   34  C23 UNL     1      24.469   5.236  48.940  1.00  0.00     0.117 C 
ENDBRANCH  28  29
ENDBRANCH  27  28
ENDBRANCH  26  27
ENDBRANCH  22  26
ENDBRANCH   9  11
ENDBRANCH   7   9
TORSDOF 6
ENDMDL
MODEL 7
REMARK VINA RESULT:      -8.5      5.920      9.088
REMARK  6 active torsions:
REMARK  status: ('A' for Active; 'I' for Inactive)
REMARK    1  A    between atoms: C7_7  and  N1_8 
REMARK    2  A    between atoms: N1_8  and  C8_9 
REMARK    3  A    between atoms: N4_19  and  C16_20 
REMARK    4  A    between atoms: C16_20  and  C17_21 
REMARK    5  A    between atoms: C17_21  and  C18_22 
REMARK    6  A    between atoms: C18_22  and  N5_23 
ROOT
HETATM    1  C1  UNL     1      29.146  -0.706  53.899  1.00  0.00     0.018 C 
HETATM    2  C2  UNL     1      28.192  -0.135  53.451  1.00  0.00    -0.078 C 
HETATM    3  C3  UNL     1      27.063   0.541  52.900  1.00  0.00     0.019 A 
HETATM    4  C4  UNL     1      25.796   0.107  53.186  1.00  0.00     0.021 A 
HETATM    5  C5  UNL     1      24.747   0.789  52.631  1.00  0.00     0.004 A 
HETATM    6  C6  UNL     1      24.964   1.875  51.813  1.00  0.00     0.029 A 
HETATM    7  C7  UNL     1      26.206   2.350  51.494  1.00  0.00     0.035 A 
HETATM    8  C26 UNL     1      27.213   1.630  52.077  1.00  0.00     0.050 A 
ENDROOT
BRANCH   7   9
HETATM    9  N1  UNL     1      26.404   3.472  50.651  1.00  0.00    -0.340 N 
HETATM   10  H5  UNL     1      27.421   3.609  50.495  1.00  0.00     0.167 HD
BRANCH   9  11
HETATM   11  C8  UNL     1      25.460   4.318  50.073  1.00  0.00     0.142 A 
HETATM   12  N2  UNL     1      24.140   4.209  50.250  1.00  0.00    -0.224 NA
HETATM   13  C9  UNL     1      23.218   5.005  49.707  1.00  0.00     0.236 A 
HETATM   14  N3  UNL     1      23.616   6.013  48.909  1.00  0.00    -0.241 NA
HETATM   15  C10 UNL     1      24.951   6.193  48.679  1.00  0.00     0.075 A 
HETATM   16  C11 UNL     1      25.253   7.246  47.852  1.00  0.00     0.071 A 
HETATM   17  C15 UNL     1      25.862   5.351  49.257  1.00  0.00     0.041 A 
HETATM   18  C12 UNL     1      26.591   7.441  47.607  1.00  0.00     0.098 A 
HETATM   19  C13 UNL     1      27.627   6.656  48.135  1.00  0.00     0.071 A 
HETATM   20  O2  UNL     1      26.941   8.505  46.762  1.00  0.00    -0.340 OA
HETATM   21  C14 UNL     1      27.169   5.639  48.945  1.00  0.00     0.050 A 
HETATM   22  N4  UNL     1      29.034   6.914  47.877  1.00  0.00    -0.314 N 
HETATM   23  C24 UNL     1      29.259   8.057  47.029  1.00  0.00     0.248 C 
HETATM   24  O1  UNL     1      30.368   8.616  47.228  1.00  0.00    -0.271 OA
HETATM   25  C25 UNL     1      28.196   8.435  46.056  1.00  0.00     0.279 C 
BRANCH  22  26
HETATM   26  C16 UNL     1      30.001   6.007  48.446  1.00  0.00     0.134 C 
BRANCH  26  27
HETATM   27  C17 UNL     1      31.022   5.469  47.514  1.00  0.00     0.040 C 
BRANCH  27  28
HETATM   28  C18 UNL     1      32.321   4.991  47.972  1.00  0.00     0.118 C 
BRANCH  28  29
HETATM   29  N5  UNL     1      33.159   4.160  47.264  1.00  0.00    -0.412 N 
HETATM   30  C19 UNL     1      34.528   4.040  47.371  1.00  0.00     0.117 C 
HETATM   31  C20 UNL     1      35.108   3.272  46.166  1.00  0.00     0.019 C 
HETATM   32  C21 UNL     1      34.922   4.134  44.936  1.00  0.00     0.003 C 
HETATM   33  C22 UNL     1      33.460   4.526  44.891  1.00  0.00     0.019 C 
HETATM   34  C23 UNL     1      32.689   3.786  45.940  1.00  0.00     0.117 C 
ENDBRANCH  28  29
ENDBRANCH  27  28
ENDBRANCH  26  27
ENDBRANCH  22  26
ENDBRANCH   9  11
ENDBRANCH   7   9
TORSDOF 6
ENDMDL
MODEL 8
REMARK VINA RESULT:      -8.3      2.782      7.044
REMARK  6 active torsions:
REMARK  status: ('A' for Active; 'I' for Inactive)
REMARK    1  A    between atoms: C7_7  and  N1_8 
REMARK    2  A    between atoms: N1_8  and  C8_9 
REMARK    3  A    between atoms: N4_19  and  C16_20 
REMARK    4  A    between atoms: C16_20  and  C17_21 
REMARK    5  A    between atoms: C17_21  and  C18_22 
REMARK    6  A    between atoms: C18_22  and  N5_23 
ROOT
HETATM    1  C1  UNL     1      16.068  -1.239  49.022  1.00  0.00     0.018 C 
HETATM    2  C2  UNL     1      16.574  -0.329  49.615  1.00  0.00    -0.078 C 
HETATM    3  C3  UNL     1      17.192   0.753  50.310  1.00  0.00     0.019 A 
HETATM    4  C4  UNL     1      16.544   1.954  50.425  1.00  0.00     0.021 A 
HETATM    5  C5  UNL     1      17.180   2.961  51.099  1.00  0.00     0.004 A 
HETATM    6  C6  UNL     1      18.430   2.768  51.641  1.00  0.00     0.029 A 
HETATM    7  C7  UNL     1      19.122   1.592  51.556  1.00  0.00     0.035 A 
HETATM    8  C26 UNL     1      18.438   0.624  50.873  1.00  0.00     0.050 A 
ENDROOT
BRANCH   7   9
HETATM    9  N1  UNL     1      20.409   1.416  52.125  1.00  0.00    -0.340 N 
HETATM   10  H5  UNL     1      21.017   2.211  51.851  1.00  0.00     0.167 HD
BRANCH   9  11
HETATM   11  C8  UNL     1      20.881   0.385  52.934  1.00  0.00     0.142 A 
HETATM   12  N2  UNL     1      20.112  -0.567  53.469  1.00  0.00    -0.224 NA
HETATM   13  C9  UNL     1      20.540  -1.562  54.247  1.00  0.00     0.236 A 
HETATM   14  N3  UNL     1      21.852  -1.644  54.537  1.00  0.00    -0.241 NA
HETATM   15  C10 UNL     1      22.706  -0.707  54.027  1.00  0.00     0.075 A 
HETATM   16  C11 UNL     1      24.021  -0.877  54.382  1.00  0.00     0.071 A 
HETATM   17  C15 UNL     1      22.222   0.297  53.233  1.00  0.00     0.041 A 
HETATM   18  C12 UNL     1      24.895   0.057  53.879  1.00  0.00     0.098 A 
HETATM   19  C13 UNL     1      24.534   1.133  53.055  1.00  0.00     0.071 A 
HETATM   20  O2  UNL     1      26.249  -0.079  54.222  1.00  0.00    -0.340 OA
HETATM   21  C14 UNL     1      23.183   1.173  52.787  1.00  0.00     0.050 A 
HETATM   22  N4  UNL     1      25.493   2.084  52.518  1.00  0.00    -0.314 N 
HETATM   23  C24 UNL     1      26.852   1.808  52.912  1.00  0.00     0.248 C 
HETATM   24  O1  UNL     1      27.705   2.218  52.084  1.00  0.00    -0.271 OA
HETATM   25  C25 UNL     1      27.083   1.096  54.200  1.00  0.00     0.279 C 
BRANCH  22  26
HETATM   26  C16 UNL     1      24.988   3.171  51.716  1.00  0.00     0.134 C 
BRANCH  26  27
HETATM   27  C17 UNL     1      25.087   3.002  50.245  1.00  0.00     0.040 C 
BRANCH  27  28
HETATM   28  C18 UNL     1      24.031   3.434  49.338  1.00  0.00     0.118 C 
BRANCH  28  29
HETATM   29  N5  UNL     1      22.774   2.879  49.257  1.00  0.00    -0.412 N 
HETATM   30  C19 UNL     1      22.287   2.012  48.302  1.00  0.00     0.117 C 
HETATM   31  C20 UNL     1      20.749   1.920  48.376  1.00  0.00     0.019 C 
HETATM   32  C21 UNL     1      20.187   3.260  47.958  1.00  0.00     0.003 C 
HETATM   33  C22 UNL     1      20.877   4.311  48.804  1.00  0.00     0.019 C 
HETATM   34  C23 UNL     1      21.710   3.661  49.865  1.00  0.00     0.117 C 
ENDBRANCH  28  29
ENDBRANCH  27  28
ENDBRANCH  26  27
ENDBRANCH  22  26
ENDBRANCH   9  11
ENDBRANCH   7   9
TORSDOF 6
ENDMDL
MODEL 9
REMARK VINA RESULT:      -8.3      2.480      4.730
REMARK  6 active torsions:
REMARK  status: ('A' for Active; 'I' for Inactive)
REMARK    1  A    between atoms: C7_7  and  N1_8 
REMARK    2  A    between atoms: N1_8  and  C8_9 
REMARK    3  A    between atoms: N4_19  and  C16_20 
REMARK    4  A    between atoms: C16_20  and  C17_21 
REMARK    5  A    between atoms: C17_21  and  C18_22 
REMARK    6  A    between atoms: C18_22  and  N5_23 
ROOT
HETATM    1  C1  UNL     1      26.244   0.696  52.032  1.00  0.00     0.018 C 
HETATM    2  C2  UNL     1      25.223   0.450  52.610  1.00  0.00    -0.078 C 
HETATM    3  C3  UNL     1      23.999   0.155  53.280  1.00  0.00     0.019 A 
HETATM    4  C4  UNL     1      23.958  -0.827  54.234  1.00  0.00     0.021 A 
HETATM    5  C5  UNL     1      22.759  -1.074  54.846  1.00  0.00     0.004 A 
HETATM    6  C6  UNL     1      21.634  -0.355  54.512  1.00  0.00     0.029 A 
HETATM    7  C7  UNL     1      21.618   0.635  53.568  1.00  0.00     0.035 A 
HETATM    8  C26 UNL     1      22.842   0.836  52.991  1.00  0.00     0.050 A 
ENDROOT
BRANCH   7   9
HETATM    9  N1  UNL     1      20.446   1.364  53.242  1.00  0.00    -0.340 N 
HETATM   10  H5  UNL     1      20.353   2.171  53.887  1.00  0.00     0.167 HD
BRANCH   9  11
HETATM   11  C8  UNL     1      19.508   1.122  52.240  1.00  0.00     0.142 A 
HETATM   12  N2  UNL     1      18.792  -0.001  52.132  1.00  0.00    -0.224 NA
HETATM   13  C9  UNL     1      17.891  -0.256  51.183  1.00  0.00     0.236 A 
HETATM   14  N3  UNL     1      17.657   0.675  50.240  1.00  0.00    -0.241 NA
HETATM   15  C10 UNL     1      18.349   1.854  50.281  1.00  0.00     0.075 A 
HETATM   16  C11 UNL     1      18.040   2.736  49.276  1.00  0.00     0.071 A 
HETATM   17  C15 UNL     1      19.265   2.072  51.274  1.00  0.00     0.041 A 
HETATM   18  C12 UNL     1      18.727   3.926  49.301  1.00  0.00     0.098 A 
HETATM   19  C13 UNL     1      19.689   4.278  50.259  1.00  0.00     0.071 A 
HETATM   20  O2  UNL     1      18.443   4.853  48.287  1.00  0.00    -0.340 OA
HETATM   21  C14 UNL     1      19.892   3.293  51.202  1.00  0.00     0.050 A 
HETATM   22  N4  UNL     1      20.373   5.560  50.269  1.00  0.00    -0.314 N 
HETATM   23  C24 UNL     1      19.962   6.435  49.200  1.00  0.00     0.248 C 
HETATM   24  O1  UNL     1      20.086   7.655  49.478  1.00  0.00    -0.271 OA
HETATM   25  C25 UNL     1      19.453   5.821  47.941  1.00  0.00     0.279 C 
BRANCH  22  26
HETATM   26  C16 UNL     1      21.372   5.783  51.285  1.00  0.00     0.134 C 
BRANCH  26  27
HETATM   27  C17 UNL     1      22.735   5.281  50.985  1.00  0.00     0.040 C 
BRANCH  27  28
HETATM   28  C18 UNL     1      23.268   5.235  49.630  1.00  0.00     0.118 C 
BRANCH  28  29
HETATM   29  N5  UNL     1      23.233   4.139  48.796  1.00  0.00    -0.412 N 
HETATM   30  C19 UNL     1      22.365   3.890  47.755  1.00  0.00     0.117 C 
HETATM   31  C20 UNL     1      22.438   2.412  47.321  1.00  0.00     0.019 C 
HETATM   32  C21 UNL     1      21.886   1.571  48.452  1.00  0.00     0.003 C 
HETATM   33  C22 UNL     1      22.630   1.980  49.707  1.00  0.00     0.019 C 
HETATM   34  C23 UNL     1      23.755   2.908  49.368  1.00  0.00     0.117 C 
ENDBRANCH  28  29
ENDBRANCH  27  28
ENDBRANCH  26  27
ENDBRANCH  22  26
ENDBRANCH   9  11
ENDBRANCH   7   9
TORSDOF 6
ENDMDL
