MODEL 1
REMARK VINA RESULT:      -7.9      0.000      0.000
REMARK  6 active torsions:
REMARK  status: ('A' for Active; 'I' for Inactive)
REMARK    1  A    between atoms: C2_2  and  C3_3 
REMARK       I    between atoms: C3_3  and  N1_5 
REMARK    2  A    between atoms: N1_5  and  C4_6 
REMARK    3  A    between atoms: N1_5  and  C8_11 
REMARK    4  A    between atoms: C4_6  and  C5_7 
REMARK    5  A    between atoms: C5_7  and  N2_8 
REMARK    6  A    between atoms: N3_16  and  C12_17 
ROOT
HETATM    1  C8  UNL     1      26.087   5.327  49.248  1.00  0.00     0.155 A 
HETATM    2  S1  UNL     1      24.478   5.478  48.903  1.00  0.00    -0.065 SA
HETATM    3  C9  UNL     1      23.509   4.425  49.684  1.00  0.00     0.070 A 
HETATM    4  C10 UNL     1      24.093   3.456  50.600  1.00  0.00     0.032 A 
HETATM    5  C11 UNL     1      23.386   2.579  51.258  1.00  0.00     0.109 A 
HETATM    6  N3  UNL     1      23.964   1.636  52.151  1.00  0.00    -0.333 N 
HETATM    7  C18 UNL     1      25.371   1.616  52.409  1.00  0.00     0.211 A 
HETATM    8  C19 UNL     1      25.693   1.937  53.862  1.00  0.00     0.058 C 
HETATM    9  N4  UNL     1      26.081   2.601  51.625  1.00  0.00    -0.246 NA
HETATM   10  C20 UNL     1      25.535   3.433  50.812  1.00  0.00     0.138 A 
HETATM   11  N5  UNL     1      26.457   4.315  50.173  1.00  0.00    -0.320 N 
HETATM   12  H24 UNL     1      27.483   4.272  50.347  1.00  0.00     0.169 HD
ENDROOT
BRANCH   1  13
HETATM   13  N1  UNL     1      27.012   6.186  48.628  1.00  0.00    -0.293 N 
HETATM   14  C3  UNL     1      28.312   5.753  48.262  1.00  0.00     0.248 C 
HETATM   15  O1  UNL     1      29.101   4.777  48.260  1.00  0.00    -0.268 OA
BRANCH  14  16
HETATM   16  C2  UNL     1      29.296   6.612  47.622  1.00  0.00     0.064 C 
HETATM   17  C1  UNL     1      30.505   6.623  48.159  1.00  0.00     0.017 C 
ENDBRANCH  14  16
BRANCH  13  18
HETATM   18  C4  UNL     1      26.667   7.552  48.339  1.00  0.00     0.164 C 
BRANCH  18  19
HETATM   19  C5  UNL     1      26.836   8.334  49.618  1.00  0.00     0.291 C 
BRANCH  19  20
HETATM   20  N2  UNL     1      27.390   9.650  49.368  1.00  0.00     0.081 N 
HETATM   21  C6  UNL     1      27.036  10.171  48.078  1.00  0.00     0.309 C 
HETATM   22  C7  UNL     1      28.819   9.659  49.575  1.00  0.00     0.309 C 
ENDBRANCH  19  20
ENDBRANCH  18  19
ENDBRANCH  13  18
ENDBRANCH   1  13
BRANCH   6  23
HETATM   23  C12 UNL     1      23.176   0.672  52.827  1.00  0.00     0.037 A 
HETATM   24  C13 UNL     1      23.698  -0.235  53.729  1.00  0.00     0.030 A 
HETATM   25  C14 UNL     1      22.986  -1.193  54.419  1.00  0.00     0.004 A 
HETATM   26  C15 UNL     1      21.627  -1.268  54.200  1.00  0.00     0.019 A 
HETATM   27  C16 UNL     1      21.025  -0.398  53.314  1.00  0.00     0.013 A 
HETATM   28 BR1  UNL     1      19.137  -0.508  53.015  1.00  0.00    -0.051 Br
HETATM   29  C17 UNL     1      21.814   0.529  52.668  1.00  0.00     0.048 A 
ENDBRANCH   6  23
TORSDOF 6
ENDMDL
MODEL 2
REMARK VINA RESULT:      -7.6      1.524      1.861
REMARK  6 active torsions:
REMARK  status: ('A' for Active; 'I' for Inactive)
REMARK    1  A    between atoms: C2_2  and  C3_3 
REMARK       I    between atoms: C3_3  and  N1_5 
REMARK    2  A    between atoms: N1_5  and  C4_6 
REMARK    3  A    between atoms: N1_5  and  C8_11 
REMARK    4  A    between atoms: C4_6  and  C5_7 
REMARK    5  A    between atoms: C5_7  and  N2_8 
REMARK    6  A    between atoms: N3_16  and  C12_17 
ROOT
HETATM    1  C8  UNL     1      27.171   5.868  48.762  1.00  0.00     0.155 A 
HETATM    2  S1  UNL     1      25.610   6.364  48.540  1.00  0.00    -0.065 SA
HETATM    3  C9  UNL     1      24.484   5.402  49.221  1.00  0.00     0.070 A 
HETATM    4  C10 UNL     1      24.901   4.215  49.953  1.00  0.00     0.032 A 
HETATM    5  C11 UNL     1      24.061   3.395  50.522  1.00  0.00     0.109 A 
HETATM    6  N3  UNL     1      24.477   2.237  51.235  1.00  0.00    -0.333 N 
HETATM    7  C18 UNL     1      25.861   1.919  51.401  1.00  0.00     0.211 A 
HETATM    8  C19 UNL     1      26.286   1.952  52.863  1.00  0.00     0.058 C 
HETATM    9  N4  UNL     1      26.721   2.864  50.724  1.00  0.00    -0.246 NA
HETATM   10  C20 UNL     1      26.318   3.895  50.072  1.00  0.00     0.138 A 
HETATM   11  N5  UNL     1      27.370   4.678  49.510  1.00  0.00    -0.320 N 
HETATM   12  H24 UNL     1      28.375   4.420  49.613  1.00  0.00     0.169 HD
ENDROOT
BRANCH   1  13
HETATM   13  N1  UNL     1      28.223   6.626  48.216  1.00  0.00    -0.293 N 
HETATM   14  C3  UNL     1      29.488   6.055  47.926  1.00  0.00     0.248 C 
HETATM   15  O1  UNL     1      30.164   4.998  47.958  1.00  0.00    -0.268 OA
BRANCH  14  16
HETATM   16  C2  UNL     1      30.600   6.806  47.363  1.00  0.00     0.064 C 
HETATM   17  C1  UNL     1      31.809   6.462  47.773  1.00  0.00     0.017 C 
ENDBRANCH  14  16
BRANCH  13  18
HETATM   18  C4  UNL     1      28.048   8.023  47.927  1.00  0.00     0.164 C 
BRANCH  18  19
HETATM   19  C5  UNL     1      28.355   8.781  49.195  1.00  0.00     0.291 C 
BRANCH  19  20
HETATM   20  N2  UNL     1      29.163   9.956  48.931  1.00  0.00     0.081 N 
HETATM   21  C6  UNL     1      29.223  10.293  47.537  1.00  0.00     0.309 C 
HETATM   22  C7  UNL     1      30.480   9.819  49.506  1.00  0.00     0.309 C 
ENDBRANCH  19  20
ENDBRANCH  18  19
ENDBRANCH  13  18
ENDBRANCH   1  13
BRANCH   6  23
HETATM   23  C12 UNL     1      23.541   1.344  51.813  1.00  0.00     0.037 A 
HETATM   24  C13 UNL     1      22.307   1.073  51.253  1.00  0.00     0.030 A 
HETATM   25  C14 UNL     1      21.357   0.216  51.764  1.00  0.00     0.004 A 
HETATM   26  C15 UNL     1      21.647  -0.440  52.942  1.00  0.00     0.019 A 
HETATM   27  C16 UNL     1      22.858  -0.226  53.567  1.00  0.00     0.013 A 
HETATM   28 BR1  UNL     1      23.253  -1.140  55.202  1.00  0.00    -0.051 Br
HETATM   29  C17 UNL     1      23.750   0.649  52.986  1.00  0.00     0.048 A 
ENDBRANCH   6  23
TORSDOF 6
ENDMDL
MODEL 3
REMARK VINA RESULT:      -7.5      4.072      8.871
REMARK  6 active torsions:
REMARK  status: ('A' for Active; 'I' for Inactive)
REMARK    1  A    between atoms: C2_2  and  C3_3 
REMARK       I    between atoms: C3_3  and  N1_5 
REMARK    2  A    between atoms: N1_5  and  C4_6 
REMARK    3  A    between atoms: N1_5  and  C8_11 
REMARK    4  A    between atoms: C4_6  and  C5_7 
REMARK    5  A    between atoms: C5_7  and  N2_8 
REMARK    6  A    between atoms: N3_16  and  C12_17 
ROOT
HETATM    1  C8  UNL     1      24.946   1.447  52.140  1.00  0.00     0.155 A 
HETATM    2  S1  UNL     1      26.436   1.598  51.442  1.00  0.00    -0.065 SA
HETATM    3  C9  UNL     1      26.585   2.855  50.413  1.00  0.00     0.070 A 
HETATM    4  C10 UNL     1      25.446   3.730  50.180  1.00  0.00     0.032 A 
HETATM    5  C11 UNL     1      25.485   4.752  49.370  1.00  0.00     0.109 A 
HETATM    6  N3  UNL     1      24.368   5.603  49.149  1.00  0.00    -0.333 N 
HETATM    7  C18 UNL     1      23.129   5.405  49.837  1.00  0.00     0.211 A 
HETATM    8  C19 UNL     1      22.784   6.577  50.746  1.00  0.00     0.058 C 
HETATM    9  N4  UNL     1      23.164   4.243  50.696  1.00  0.00    -0.246 NA
HETATM   10  C20 UNL     1      24.184   3.480  50.867  1.00  0.00     0.138 A 
HETATM   11  N5  UNL     1      23.964   2.408  51.781  1.00  0.00    -0.320 N 
HETATM   12  H24 UNL     1      23.048   2.257  52.255  1.00  0.00     0.169 HD
ENDROOT
BRANCH   1  13
HETATM   13  N1  UNL     1      24.708   0.396  53.044  1.00  0.00    -0.293 N 
HETATM   14  C3  UNL     1      23.422   0.147  53.586  1.00  0.00     0.248 C 
HETATM   15  O1  UNL     1      22.227   0.530  53.598  1.00  0.00    -0.268 OA
BRANCH  14  16
HETATM   16  C2  UNL     1      23.137  -0.928  54.525  1.00  0.00     0.064 C 
HETATM   17  C1  UNL     1      21.882  -1.338  54.584  1.00  0.00     0.017 C 
ENDBRANCH  14  16
BRANCH  13  18
HETATM   18  C4  UNL     1      25.776  -0.474  53.456  1.00  0.00     0.164 C 
BRANCH  18  19
HETATM   19  C5  UNL     1      26.566   0.259  54.513  1.00  0.00     0.291 C 
BRANCH  19  20
HETATM   20  N2  UNL     1      27.973  -0.087  54.461  1.00  0.00     0.081 N 
HETATM   21  C6  UNL     1      28.832   1.063  54.426  1.00  0.00     0.309 C 
HETATM   22  C7  UNL     1      28.245  -0.991  53.369  1.00  0.00     0.309 C 
ENDBRANCH  19  20
ENDBRANCH  18  19
ENDBRANCH  13  18
ENDBRANCH   1  13
BRANCH   6  23
HETATM   23  C12 UNL     1      24.427   6.686  48.236  1.00  0.00     0.037 A 
HETATM   24  C13 UNL     1      23.479   6.901  47.255  1.00  0.00     0.030 A 
HETATM   25  C14 UNL     1      23.479   7.933  46.341  1.00  0.00     0.004 A 
HETATM   26  C15 UNL     1      24.513   8.844  46.398  1.00  0.00     0.019 A 
HETATM   27  C16 UNL     1      25.501   8.702  47.349  1.00  0.00     0.013 A 
HETATM   28 BR1  UNL     1      26.934   9.971  47.422  1.00  0.00    -0.051 Br
HETATM   29  C17 UNL     1      25.423   7.640  48.223  1.00  0.00     0.048 A 
ENDBRANCH   6  23
TORSDOF 6
ENDMDL
MODEL 4
REMARK VINA RESULT:      -7.3      2.293      3.874
REMARK  6 active torsions:
REMARK  status: ('A' for Active; 'I' for Inactive)
REMARK    1  A    between atoms: C2_2  and  C3_3 
REMARK       I    between atoms: C3_3  and  N1_5 
REMARK    2  A    between atoms: N1_5  and  C4_6 
REMARK    3  A    between atoms: N1_5  and  C8_11 
REMARK    4  A    between atoms: C4_6  and  C5_7 
REMARK    5  A    between atoms: C5_7  and  N2_8 
REMARK    6  A    between atoms: N3_16  and  C12_17 
ROOT
HETATM    1  C8  UNL     1      27.955   6.940  48.394  1.00  0.00     0.155 A 
HETATM    2  S1  UNL     1      26.495   7.649  48.085  1.00  0.00    -0.065 SA
HETATM    3  C9  UNL     1      25.198   6.720  48.425  1.00  0.00     0.070 A 
HETATM    4  C10 UNL     1      25.395   5.380  48.957  1.00  0.00     0.032 A 
HETATM    5  C11 UNL     1      24.410   4.576  49.250  1.00  0.00     0.109 A 
HETATM    6  N3  UNL     1      24.612   3.269  49.770  1.00  0.00    -0.333 N 
HETATM    7  C18 UNL     1      25.923   2.764  50.038  1.00  0.00     0.211 A 
HETATM    8  C19 UNL     1      26.138   2.483  51.519  1.00  0.00     0.058 C 
HETATM    9  N4  UNL     1      26.954   3.706  49.667  1.00  0.00    -0.246 NA
HETATM   10  C20 UNL     1      26.746   4.879  49.183  1.00  0.00     0.138 A 
HETATM   11  N5  UNL     1      27.935   5.619  48.915  1.00  0.00    -0.320 N 
HETATM   12  H24 UNL     1      28.886   5.231  49.088  1.00  0.00     0.169 HD
ENDROOT
BRANCH   1  13
HETATM   13  N1  UNL     1      29.140   7.653  48.136  1.00  0.00    -0.293 N 
HETATM   14  C3  UNL     1      29.479   8.831  48.850  1.00  0.00     0.248 C 
HETATM   15  O1  UNL     1      29.108   9.622  49.751  1.00  0.00    -0.268 OA
BRANCH  14  16
HETATM   16  C2  UNL     1      30.693   9.596  48.612  1.00  0.00     0.064 C 
HETATM   17  C1  UNL     1      30.678  10.859  49.003  1.00  0.00     0.017 C 
ENDBRANCH  14  16
BRANCH  13  18
HETATM   18  C4  UNL     1      30.061   7.207  47.127  1.00  0.00     0.164 C 
BRANCH  18  19
HETATM   19  C5  UNL     1      30.722   5.955  47.649  1.00  0.00     0.291 C 
BRANCH  19  20
HETATM   20  N2  UNL     1      31.981   6.253  48.306  1.00  0.00     0.081 N 
HETATM   21  C6  UNL     1      33.102   5.599  47.691  1.00  0.00     0.309 C 
HETATM   22  C7  UNL     1      31.907   5.972  49.720  1.00  0.00     0.309 C 
ENDBRANCH  19  20
ENDBRANCH  18  19
ENDBRANCH  13  18
ENDBRANCH   1  13
BRANCH   6  23
HETATM   23  C12 UNL     1      23.524   2.403  50.047  1.00  0.00     0.037 A 
HETATM   24  C13 UNL     1      22.581   2.046  49.102  1.00  0.00     0.030 A 
HETATM   25  C14 UNL     1      21.505   1.210  49.307  1.00  0.00     0.004 A 
HETATM   26  C15 UNL     1      21.338   0.671  50.566  1.00  0.00     0.019 A 
HETATM   27  C16 UNL     1      22.236   0.976  51.567  1.00  0.00     0.013 A 
HETATM   28 BR1  UNL     1      21.998   0.224  53.312  1.00  0.00    -0.051 Br
HETATM   29  C17 UNL     1      23.284   1.821  51.274  1.00  0.00     0.048 A 
ENDBRANCH   6  23
TORSDOF 6
ENDMDL
MODEL 5
REMARK VINA RESULT:      -7.3      3.989      9.325
REMARK  6 active torsions:
REMARK  status: ('A' for Active; 'I' for Inactive)
REMARK    1  A    between atoms: C2_2  and  C3_3 
REMARK       I    between atoms: C3_3  and  N1_5 
REMARK    2  A    between atoms: N1_5  and  C4_6 
REMARK    3  A    between atoms: N1_5  and  C8_11 
REMARK    4  A    between atoms: C4_6  and  C5_7 
REMARK    5  A    between atoms: C5_7  and  N2_8 
REMARK    6  A    between atoms: N3_16  and  C12_17 
ROOT
HETATM    1  C8  UNL     1      24.079   4.781  50.476  1.00  0.00     0.155 A 
HETATM    2  S1  UNL     1      23.496   6.096  51.288  1.00  0.00    -0.065 SA
HETATM    3  C9  UNL     1      24.381   7.454  51.116  1.00  0.00     0.070 A 
HETATM    4  C10 UNL     1      25.580   7.430  50.292  1.00  0.00     0.032 A 
HETATM    5  C11 UNL     1      26.342   8.473  50.108  1.00  0.00     0.109 A 
HETATM    6  N3  UNL     1      27.512   8.440  49.301  1.00  0.00    -0.333 N 
HETATM    7  C18 UNL     1      27.909   7.253  48.607  1.00  0.00     0.211 A 
HETATM    8  C19 UNL     1      27.881   7.436  47.096  1.00  0.00     0.058 C 
HETATM    9  N4  UNL     1      27.026   6.142  48.881  1.00  0.00    -0.246 NA
HETATM   10  C20 UNL     1      25.981   6.195  49.628  1.00  0.00     0.138 A 
HETATM   11  N5  UNL     1      25.269   4.962  49.723  1.00  0.00    -0.320 N 
HETATM   12  H24 UNL     1      25.584   4.096  49.235  1.00  0.00     0.169 HD
ENDROOT
BRANCH   1  13
HETATM   13  N1  UNL     1      23.392   3.556  50.557  1.00  0.00    -0.293 N 
HETATM   14  C3  UNL     1      22.952   2.863  49.400  1.00  0.00     0.248 C 
HETATM   15  O1  UNL     1      22.914   2.890  48.146  1.00  0.00    -0.268 OA
BRANCH  14  16
HETATM   16  C2  UNL     1      22.238   1.596  49.443  1.00  0.00     0.064 C 
HETATM   17  C1  UNL     1      21.424   1.346  48.432  1.00  0.00     0.017 C 
ENDBRANCH  14  16
BRANCH  13  18
HETATM   18  C4  UNL     1      23.109   2.955  51.832  1.00  0.00     0.164 C 
BRANCH  18  19
HETATM   19  C5  UNL     1      24.434   2.682  52.500  1.00  0.00     0.291 C 
BRANCH  19  20
HETATM   20  N2  UNL     1      25.085   1.515  51.934  1.00  0.00     0.081 N 
HETATM   21  C6  UNL     1      25.026   0.368  52.795  1.00  0.00     0.309 C 
HETATM   22  C7  UNL     1      26.439   1.818  51.538  1.00  0.00     0.309 C 
ENDBRANCH  19  20
ENDBRANCH  18  19
ENDBRANCH  13  18
ENDBRANCH   1  13
BRANCH   6  23
HETATM   23  C12 UNL     1      28.341   9.579  49.147  1.00  0.00     0.037 A 
HETATM   24  C13 UNL     1      29.712   9.545  49.312  1.00  0.00     0.030 A 
HETATM   25  C14 UNL     1      30.571  10.614  49.174  1.00  0.00     0.004 A 
HETATM   26  C15 UNL     1      30.029  11.838  48.841  1.00  0.00     0.019 A 
HETATM   27  C16 UNL     1      28.668  11.958  48.656  1.00  0.00     0.013 A 
HETATM   28 BR1  UNL     1      27.922  13.660  48.194  1.00  0.00    -0.051 Br
HETATM   29  C17 UNL     1      27.883  10.836  48.815  1.00  0.00     0.048 A 
ENDBRANCH   6  23
TORSDOF 6
ENDMDL
MODEL 6
REMARK VINA RESULT:      -7.2      2.730      4.658
REMARK  6 active torsions:
REMARK  status: ('A' for Active; 'I' for Inactive)
REMARK    1  A    between atoms: C2_2  and  C3_3 
REMARK       I    between atoms: C3_3  and  N1_5 
REMARK    2  A    between atoms: N1_5  and  C4_6 
REMARK    3  A    between atoms: N1_5  and  C8_11 
REMARK    4  A    between atoms: C4_6  and  C5_7 
REMARK    5  A    between atoms: C5_7  and  N2_8 
REMARK    6  A    between atoms: N3_16  and  C12_17 
ROOT
HETATM    1  C8  UNL     1      28.252   8.130  48.658  1.00  0.00     0.155 A 
HETATM    2  S1  UNL     1      28.715   6.713  47.948  1.00  0.00    -0.065 SA
HETATM    3  C9  UNL     1      27.786   5.425  48.321  1.00  0.00     0.070 A 
HETATM    4  C10 UNL     1      26.653   5.594  49.219  1.00  0.00     0.032 A 
HETATM    5  C11 UNL     1      25.866   4.613  49.568  1.00  0.00     0.109 A 
HETATM    6  N3  UNL     1      24.761   4.787  50.445  1.00  0.00    -0.333 N 
HETATM    7  C18 UNL     1      24.423   6.071  50.977  1.00  0.00     0.211 A 
HETATM    8  C19 UNL     1      23.055   6.545  50.506  1.00  0.00     0.058 C 
HETATM    9  N4  UNL     1      25.355   7.094  50.559  1.00  0.00    -0.246 NA
HETATM   10  C20 UNL     1      26.356   6.908  49.776  1.00  0.00     0.138 A 
HETATM   11  N5  UNL     1      27.112   8.087  49.505  1.00  0.00    -0.320 N 
HETATM   12  H24 UNL     1      26.873   9.012  49.921  1.00  0.00     0.169 HD
ENDROOT
BRANCH   1  13
HETATM   13  N1  UNL     1      28.984   9.304  48.405  1.00  0.00    -0.293 N 
HETATM   14  C3  UNL     1      28.551  10.575  48.862  1.00  0.00     0.248 C 
HETATM   15  O1  UNL     1      27.651  11.181  49.494  1.00  0.00    -0.268 OA
BRANCH  14  16
HETATM   16  C2  UNL     1      29.279  11.810  48.618  1.00  0.00     0.064 C 
HETATM   17  C1  UNL     1      28.644  12.933  48.906  1.00  0.00     0.017 C 
ENDBRANCH  14  16
BRANCH  13  18
HETATM   18  C4  UNL     1      30.215   9.256  47.663  1.00  0.00     0.164 C 
BRANCH  18  19
HETATM   19  C5  UNL     1      31.312   8.917  48.642  1.00  0.00     0.291 C 
BRANCH  19  20
HETATM   20  N2  UNL     1      32.193   7.890  48.120  1.00  0.00     0.081 N 
HETATM   21  C6  UNL     1      33.516   7.953  48.673  1.00  0.00     0.309 C 
HETATM   22  C7  UNL     1      32.214   7.910  46.677  1.00  0.00     0.309 C 
ENDBRANCH  19  20
ENDBRANCH  18  19
ENDBRANCH  13  18
ENDBRANCH   1  13
BRANCH   6  23
HETATM   23  C12 UNL     1      23.943   3.697  50.836  1.00  0.00     0.037 A 
HETATM   24  C13 UNL     1      23.862   3.240  52.137  1.00  0.00     0.030 A 
HETATM   25  C14 UNL     1      23.087   2.190  52.579  1.00  0.00     0.004 A 
HETATM   26  C15 UNL     1      22.315   1.523  51.651  1.00  0.00     0.019 A 
HETATM   27  C16 UNL     1      22.337   1.916  50.330  1.00  0.00     0.013 A 
HETATM   28 BR1  UNL     1      21.263   0.985  49.047  1.00  0.00    -0.051 Br
HETATM   29  C17 UNL     1      23.142   2.977  49.975  1.00  0.00     0.048 A 
ENDBRANCH   6  23
TORSDOF 6
ENDMDL
MODEL 7
REMARK VINA RESULT:      -7.1      2.537      3.787
REMARK  6 active torsions:
REMARK  status: ('A' for Active; 'I' for Inactive)
REMARK    1  A    between atoms: C2_2  and  C3_3 
REMARK       I    between atoms: C3_3  and  N1_5 
REMARK    2  A    between atoms: N1_5  and  C4_6 
REMARK    3  A    between atoms: N1_5  and  C8_11 
REMARK    4  A    between atoms: C4_6  and  C5_7 
REMARK    5  A    between atoms: C5_7  and  N2_8 
REMARK    6  A    between atoms: N3_16  and  C12_17 
ROOT
HETATM    1  C8  UNL     1      27.365   8.358  49.357  1.00  0.00     0.155 A 
HETATM    2  S1  UNL     1      25.863   8.931  49.737  1.00  0.00    -0.065 SA
HETATM    3  C9  UNL     1      24.710   7.787  49.881  1.00  0.00     0.070 A 
HETATM    4  C10 UNL     1      25.057   6.389  49.676  1.00  0.00     0.032 A 
HETATM    5  C11 UNL     1      24.192   5.417  49.769  1.00  0.00     0.109 A 
HETATM    6  N3  UNL     1      24.540   4.053  49.567  1.00  0.00    -0.333 N 
HETATM    7  C18 UNL     1      25.885   3.659  49.279  1.00  0.00     0.211 A 
HETATM    8  C19 UNL     1      26.472   2.781  50.375  1.00  0.00     0.058 C 
HETATM    9  N4  UNL     1      26.772   4.795  49.172  1.00  0.00    -0.246 NA
HETATM   10  C20 UNL     1      26.429   6.021  49.344  1.00  0.00     0.138 A 
HETATM   11  N5  UNL     1      27.499   6.953  49.199  1.00  0.00    -0.320 N 
HETATM   12  H24 UNL     1      28.470   6.656  48.960  1.00  0.00     0.169 HD
ENDROOT
BRANCH   1  13
HETATM   13  N1  UNL     1      28.434   9.260  49.208  1.00  0.00    -0.293 N 
HETATM   14  C3  UNL     1      29.782   8.824  49.137  1.00  0.00     0.248 C 
HETATM   15  O1  UNL     1      30.532   7.818  49.153  1.00  0.00    -0.268 OA
BRANCH  14  16
HETATM   16  C2  UNL     1      30.913   9.726  48.985  1.00  0.00     0.064 C 
HETATM   17  C1  UNL     1      31.518   9.717  47.809  1.00  0.00     0.017 C 
ENDBRANCH  14  16
BRANCH  13  18
HETATM   18  C4  UNL     1      28.194  10.675  49.122  1.00  0.00     0.164 C 
BRANCH  18  19
HETATM   19  C5  UNL     1      28.010  11.007  47.662  1.00  0.00     0.291 C 
BRANCH  19  20
HETATM   20  N2  UNL     1      28.393  12.377  47.376  1.00  0.00     0.081 N 
HETATM   21  C6  UNL     1      29.077  12.517  46.122  1.00  0.00     0.309 C 
HETATM   22  C7  UNL     1      29.152  12.941  48.466  1.00  0.00     0.309 C 
ENDBRANCH  19  20
ENDBRANCH  18  19
ENDBRANCH  13  18
ENDBRANCH   1  13
BRANCH   6  23
HETATM   23  C12 UNL     1      23.572   3.020  49.641  1.00  0.00     0.037 A 
HETATM   24  C13 UNL     1      22.864   2.567  48.544  1.00  0.00     0.030 A 
HETATM   25  C14 UNL     1      21.915   1.568  48.550  1.00  0.00     0.004 A 
HETATM   26  C15 UNL     1      21.633   0.954  49.752  1.00  0.00     0.019 A 
HETATM   27  C16 UNL     1      22.296   1.346  50.896  1.00  0.00     0.013 A 
HETATM   28 BR1  UNL     1      21.898   0.489  52.561  1.00  0.00    -0.051 Br
HETATM   29  C17 UNL     1      23.230   2.354  50.799  1.00  0.00     0.048 A 
ENDBRANCH   6  23
TORSDOF 6
ENDMDL
MODEL 8
REMARK VINA RESULT:      -7.1      2.922      3.979
REMARK  6 active torsions:
REMARK  status: ('A' for Active; 'I' for Inactive)
REMARK    1  A    between atoms: C2_2  and  C3_3 
REMARK       I    between atoms: C3_3  and  N1_5 
REMARK    2  A    between atoms: N1_5  and  C4_6 
REMARK    3  A    between atoms: N1_5  and  C8_11 
REMARK    4  A    between atoms: C4_6  and  C5_7 
REMARK    5  A    between atoms: C5_7  and  N2_8 
REMARK    6  A    between atoms: N3_16  and  C12_17 
ROOT
HETATM    1  C8  UNL     1      29.170   6.338  47.916  1.00  0.00     0.155 A 
HETATM    2  S1  UNL     1      28.169   7.647  48.034  1.00  0.00    -0.065 SA
HETATM    3  C9  UNL     1      26.698   7.329  48.663  1.00  0.00     0.070 A 
HETATM    4  C10 UNL     1      26.369   5.970  49.065  1.00  0.00     0.032 A 
HETATM    5  C11 UNL     1      25.214   5.635  49.572  1.00  0.00     0.109 A 
HETATM    6  N3  UNL     1      24.901   4.304  49.963  1.00  0.00    -0.333 N 
HETATM    7  C18 UNL     1      25.859   3.248  49.854  1.00  0.00     0.211 A 
HETATM    8  C19 UNL     1      26.234   2.671  51.212  1.00  0.00     0.058 C 
HETATM    9  N4  UNL     1      27.100   3.698  49.265  1.00  0.00    -0.246 NA
HETATM   10  C20 UNL     1      27.353   4.905  48.906  1.00  0.00     0.138 A 
HETATM   11  N5  UNL     1      28.660   5.092  48.367  1.00  0.00    -0.320 N 
HETATM   12  H24 UNL     1      29.340   4.308  48.265  1.00  0.00     0.169 HD
ENDROOT
BRANCH   1  13
HETATM   13  N1  UNL     1      30.464   6.501  47.387  1.00  0.00    -0.293 N 
HETATM   14  C3  UNL     1      31.386   5.426  47.313  1.00  0.00     0.248 C 
HETATM   15  O1  UNL     1      31.557   4.207  47.558  1.00  0.00    -0.268 OA
BRANCH  14  16
HETATM   16  C2  UNL     1      32.731   5.556  46.774  1.00  0.00     0.064 C 
HETATM   17  C1  UNL     1      33.036   4.765  45.759  1.00  0.00     0.017 C 
ENDBRANCH  14  16
BRANCH  13  18
HETATM   18  C4  UNL     1      30.901   7.779  46.896  1.00  0.00     0.164 C 
BRANCH  18  19
HETATM   19  C5  UNL     1      31.618   8.470  48.030  1.00  0.00     0.291 C 
BRANCH  19  20
HETATM   20  N2  UNL     1      31.342   9.894  48.045  1.00  0.00     0.081 N 
HETATM   21  C6  UNL     1      30.615  10.311  49.211  1.00  0.00     0.309 C 
HETATM   22  C7  UNL     1      30.686  10.308  46.828  1.00  0.00     0.309 C 
ENDBRANCH  19  20
ENDBRANCH  18  19
ENDBRANCH  13  18
ENDBRANCH   1  13
BRANCH   6  23
HETATM   23  C12 UNL     1      23.626   3.962  50.478  1.00  0.00     0.037 A 
HETATM   24  C13 UNL     1      23.053   4.597  51.563  1.00  0.00     0.030 A 
HETATM   25  C14 UNL     1      21.819   4.313  52.109  1.00  0.00     0.004 A 
HETATM   26  C15 UNL     1      21.076   3.304  51.532  1.00  0.00     0.019 A 
HETATM   27  C16 UNL     1      21.575   2.620  50.444  1.00  0.00     0.013 A 
HETATM   28 BR1  UNL     1      20.537   1.221  49.649  1.00  0.00    -0.051 Br
HETATM   29  C17 UNL     1      22.818   2.970  49.963  1.00  0.00     0.048 A 
ENDBRANCH   6  23
TORSDOF 6
ENDMDL
MODEL 9
REMARK VINA RESULT:      -7.1      1.852      2.255
REMARK  6 active torsions:
REMARK  status: ('A' for Active; 'I' for Inactive)
REMARK    1  A    between atoms: C2_2  and  C3_3 
REMARK       I    between atoms: C3_3  and  N1_5 
REMARK    2  A    between atoms: N1_5  and  C4_6 
REMARK    3  A    between atoms: N1_5  and  C8_11 
REMARK    4  A    between atoms: C4_6  and  C5_7 
REMARK    5  A    between atoms: C5_7  and  N2_8 
REMARK    6  A    between atoms: N3_16  and  C12_17 
ROOT
HETATM    1  C8  UNL     1      26.425   6.570  48.843  1.00  0.00     0.155 A 
HETATM    2  S1  UNL     1      24.912   7.009  49.341  1.00  0.00    -0.065 SA
HETATM    3  C9  UNL     1      24.140   5.896  50.249  1.00  0.00     0.070 A 
HETATM    4  C10 UNL     1      24.801   4.636  50.554  1.00  0.00     0.032 A 
HETATM    5  C11 UNL     1      24.249   3.695  51.270  1.00  0.00     0.109 A 
HETATM    6  N3  UNL     1      24.902   2.466  51.563  1.00  0.00    -0.333 N 
HETATM    7  C18 UNL     1      26.234   2.201  51.113  1.00  0.00     0.211 A 
HETATM    8  C19 UNL     1      27.208   2.035  52.271  1.00  0.00     0.058 C 
HETATM    9  N4  UNL     1      26.762   3.282  50.312  1.00  0.00    -0.246 NA
HETATM   10  C20 UNL     1      26.144   4.378  50.048  1.00  0.00     0.138 A 
HETATM   11  N5  UNL     1      26.893   5.292  49.249  1.00  0.00    -0.320 N 
HETATM   12  H24 UNL     1      27.852   5.076  48.903  1.00  0.00     0.169 HD
ENDROOT
BRANCH   1  13
HETATM   13  N1  UNL     1      27.179   7.456  48.053  1.00  0.00    -0.293 N 
HETATM   14  C3  UNL     1      26.650   8.057  46.883  1.00  0.00     0.248 C 
HETATM   15  O1  UNL     1      25.638   8.142  46.146  1.00  0.00    -0.268 OA
BRANCH  14  16
HETATM   16  C2  UNL     1      27.399   8.977  46.041  1.00  0.00     0.064 C 
HETATM   17  C1  UNL     1      27.702   8.548  44.828  1.00  0.00     0.017 C 
ENDBRANCH  14  16
BRANCH  13  18
HETATM   18  C4  UNL     1      28.531   7.789  48.411  1.00  0.00     0.164 C 
BRANCH  18  19
HETATM   19  C5  UNL     1      28.462   8.914  49.415  1.00  0.00     0.291 C 
BRANCH  19  20
HETATM   20  N2  UNL     1      29.710   9.650  49.476  1.00  0.00     0.081 N 
HETATM   21  C6  UNL     1      29.730  10.792  48.607  1.00  0.00     0.309 C 
HETATM   22  C7  UNL     1      30.838   8.779  49.242  1.00  0.00     0.309 C 
ENDBRANCH  19  20
ENDBRANCH  18  19
ENDBRANCH  13  18
ENDBRANCH   1  13
BRANCH   6  23
HETATM   23  C12 UNL     1      24.265   1.447  52.314  1.00  0.00     0.037 A 
HETATM   24  C13 UNL     1      24.958   0.466  52.998  1.00  0.00     0.030 A 
HETATM   25  C14 UNL     1      24.398  -0.548  53.745  1.00  0.00     0.004 A 
HETATM   26  C15 UNL     1      23.023  -0.605  53.829  1.00  0.00     0.019 A 
HETATM   27  C16 UNL     1      22.257   0.338  53.175  1.00  0.00     0.013 A 
HETATM   28 BR1  UNL     1      20.347   0.253  53.296  1.00  0.00    -0.051 Br
HETATM   29  C17 UNL     1      22.899   1.317  52.450  1.00  0.00     0.048 A 
ENDBRANCH   6  23
TORSDOF 6
ENDMDL
