MODEL 1
REMARK VINA RESULT:      -8.5      0.000      0.000
REMARK  4 active torsions:
REMARK  status: ('A' for Active; 'I' for Inactive)
REMARK    1  A    between atoms: C2_2  and  C3_4 
REMARK    2  A    between atoms: C4_6  and  C5_7 
REMARK    3  A    between atoms: C6_8  and  N1_9 
REMARK    4  A    between atoms: N1_9  and  C7_10 
ROOT
HETATM    1  C7  UNL     1      25.889   2.485  51.004  1.00  0.00     0.159 A 
HETATM    2  N2  UNL     1      27.108   2.614  51.571  1.00  0.00    -0.222 NA
HETATM    3  C8  UNL     1      27.454   1.966  52.699  1.00  0.00     0.238 A 
HETATM    4  N3  UNL     1      26.565   1.156  53.298  1.00  0.00    -0.215 NA
HETATM    5  C9  UNL     1      25.310   0.966  52.795  1.00  0.00     0.202 A 
HETATM    6  C10 UNL     1      24.998   1.647  51.640  1.00  0.00     0.129 A 
HETATM    7  N4  UNL     1      23.749   1.629  50.916  1.00  0.00    -0.379 N 
HETATM    8  C11 UNL     1      22.416   1.421  51.433  1.00  0.00     0.161 C 
HETATM    9  C12 UNL     1      22.329   0.500  52.562  1.00  0.00    -0.004 A 
HETATM   10  C13 UNL     1      20.981   0.165  52.684  1.00  0.00     0.054 A 
HETATM   11  C14 UNL     1      20.538  -0.706  53.670  1.00  0.00     0.117 A 
HETATM   12  F2  UNL     1      19.253  -1.082  53.863  1.00  0.00    -0.206 F 
HETATM   13  C15 UNL     1      21.420  -1.270  54.565  1.00  0.00     0.045 A 
HETATM   14  C16 UNL     1      22.759  -0.971  54.487  1.00  0.00     0.041 A 
HETATM   15  C17 UNL     1      23.162  -0.103  53.494  1.00  0.00     0.086 A 
HETATM   16  O1  UNL     1      24.529   0.099  53.545  1.00  0.00    -0.289 OA
HETATM   17  H8  UNL     1      23.915   1.799  49.890  1.00  0.00     0.160 HD
ENDROOT
BRANCH   1  18
HETATM   18  N1  UNL     1      25.596   3.204  49.813  1.00  0.00    -0.349 N 
HETATM   19  H6  UNL     1      24.826   3.306  49.120  1.00  0.00     0.167 HD
BRANCH  18  20
HETATM   20  C6  UNL     1      26.752   4.024  49.528  1.00  0.00     0.090 C 
HETATM   21  C5  UNL     1      27.037   5.106  48.850  1.00  0.00     0.020 C 
BRANCH  21  22
HETATM   22  C4  UNL     1      27.893   6.134  48.347  1.00  0.00     0.045 C 
HETATM   23  C3  UNL     1      29.088   5.944  47.893  1.00  0.00     0.134 C 
HETATM   24  F1  UNL     1      29.669   4.752  47.840  1.00  0.00    -0.205 F 
BRANCH  23  25
HETATM   25  C2  UNL     1      29.771   7.108  47.439  1.00  0.00     0.050 C 
HETATM   26  C1  UNL     1      29.260   7.862  46.477  1.00  0.00     0.060 C 
HETATM   27 CL1  UNL     1      31.119   8.169  47.606  1.00  0.00    -0.086 Cl
ENDBRANCH  23  25
ENDBRANCH  21  22
ENDBRANCH  18  20
ENDBRANCH   1  18
TORSDOF 4
ENDMDL
MODEL 2
REMARK VINA RESULT:      -8.1      3.491      5.026
REMARK  4 active torsions:
REMARK  status: ('A' for Active; 'I' for Inactive)
REMARK    1  A    between atoms: C2_2  and  C3_4 
REMARK    2  A    between atoms: C4_6  and  C5_7 
REMARK    3  A    between atoms: C6_8  and  N1_9 
REMARK    4  A    between atoms: N1_9  and  C7_10 
ROOT
HETATM    1  C7  UNL     1      23.691   3.194  52.695  1.00  0.00     0.159 A 
HETATM    2  N2  UNL     1      22.524   2.816  52.130  1.00  0.00    -0.222 NA
HETATM    3  C8  UNL     1      22.267   1.541  51.787  1.00  0.00     0.238 A 
HETATM    4  N3  UNL     1      23.195   0.593  52.006  1.00  0.00    -0.215 NA
HETATM    5  C9  UNL     1      24.403   0.886  52.571  1.00  0.00     0.202 A 
HETATM    6  C10 UNL     1      24.625   2.202  52.908  1.00  0.00     0.129 A 
HETATM    7  N4  UNL     1      25.809   2.773  53.505  1.00  0.00    -0.379 N 
HETATM    8  C11 UNL     1      27.178   2.329  53.379  1.00  0.00     0.161 C 
HETATM    9  C12 UNL     1      27.350   0.883  53.258  1.00  0.00    -0.004 A 
HETATM   10  C13 UNL     1      28.700   0.634  53.498  1.00  0.00     0.054 A 
HETATM   11  C14 UNL     1      29.215  -0.655  53.463  1.00  0.00     0.117 A 
HETATM   12  F2  UNL     1      30.509  -0.987  53.680  1.00  0.00    -0.206 F 
HETATM   13  C15 UNL     1      28.405  -1.734  53.188  1.00  0.00     0.045 A 
HETATM   14  C16 UNL     1      27.067  -1.540  52.943  1.00  0.00     0.041 A 
HETATM   15  C17 UNL     1      26.592  -0.246  52.987  1.00  0.00     0.086 A 
HETATM   16  O1  UNL     1      25.235  -0.213  52.720  1.00  0.00    -0.289 OA
HETATM   17  H8  UNL     1      25.561   3.614  54.087  1.00  0.00     0.160 HD
ENDROOT
BRANCH   1  18
HETATM   18  N1  UNL     1      23.891   4.562  53.028  1.00  0.00    -0.349 N 
HETATM   19  H6  UNL     1      24.056   5.156  53.867  1.00  0.00     0.167 HD
BRANCH  18  20
HETATM   20  C6  UNL     1      23.841   5.303  51.788  1.00  0.00     0.090 C 
HETATM   21  C5  UNL     1      24.623   5.555  50.770  1.00  0.00     0.020 C 
BRANCH  21  22
HETATM   22  C4  UNL     1      24.968   6.138  49.511  1.00  0.00     0.045 C 
HETATM   23  C3  UNL     1      25.807   7.108  49.351  1.00  0.00     0.134 C 
HETATM   24  F1  UNL     1      26.457   7.685  50.353  1.00  0.00    -0.205 F 
BRANCH  23  25
HETATM   25  C2  UNL     1      26.005   7.540  48.009  1.00  0.00     0.050 C 
HETATM   26  C1  UNL     1      27.224   7.634  47.500  1.00  0.00     0.060 C 
HETATM   27 CL1  UNL     1      25.303   8.028  46.512  1.00  0.00    -0.086 Cl
ENDBRANCH  23  25
ENDBRANCH  21  22
ENDBRANCH  18  20
ENDBRANCH   1  18
TORSDOF 4
ENDMDL
MODEL 3
REMARK VINA RESULT:      -7.9      3.846      8.142
REMARK  4 active torsions:
REMARK  status: ('A' for Active; 'I' for Inactive)
REMARK    1  A    between atoms: C2_2  and  C3_4 
REMARK    2  A    between atoms: C4_6  and  C5_7 
REMARK    3  A    between atoms: C6_8  and  N1_9 
REMARK    4  A    between atoms: N1_9  and  C7_10 
ROOT
HETATM    1  C7  UNL     1      23.001   3.417  50.815  1.00  0.00     0.159 A 
HETATM    2  N2  UNL     1      22.045   4.072  51.508  1.00  0.00    -0.222 NA
HETATM    3  C8  UNL     1      22.021   5.413  51.617  1.00  0.00     0.238 A 
HETATM    4  N3  UNL     1      22.977   6.145  51.020  1.00  0.00    -0.215 NA
HETATM    5  C9  UNL     1      23.983   5.566  50.300  1.00  0.00     0.202 A 
HETATM    6  C10 UNL     1      23.970   4.192  50.214  1.00  0.00     0.129 A 
HETATM    7  N4  UNL     1      24.914   3.342  49.528  1.00  0.00    -0.379 N 
HETATM    8  C11 UNL     1      26.317   3.579  49.280  1.00  0.00     0.161 C 
HETATM    9  C12 UNL     1      26.677   4.976  49.054  1.00  0.00    -0.004 A 
HETATM   10  C13 UNL     1      27.956   4.960  48.501  1.00  0.00     0.054 A 
HETATM   11  C14 UNL     1      28.611   6.136  48.158  1.00  0.00     0.117 A 
HETATM   12  F2  UNL     1      29.850   6.214  47.622  1.00  0.00    -0.206 F 
HETATM   13  C15 UNL     1      28.014   7.362  48.354  1.00  0.00     0.045 A 
HETATM   14  C16 UNL     1      26.753   7.431  48.897  1.00  0.00     0.041 A 
HETATM   15  C17 UNL     1      26.135   6.242  49.225  1.00  0.00     0.086 A 
HETATM   16  O1  UNL     1      24.880   6.474  49.758  1.00  0.00    -0.289 OA
HETATM   17  H8  UNL     1      24.444   2.459  49.199  1.00  0.00     0.160 HD
ENDROOT
BRANCH   1  18
HETATM   18  N1  UNL     1      22.962   1.997  50.747  1.00  0.00    -0.349 N 
HETATM   19  H6  UNL     1      22.541   1.244  50.164  1.00  0.00     0.167 HD
BRANCH  18  20
HETATM   20  C6  UNL     1      23.766   1.506  51.844  1.00  0.00     0.090 C 
HETATM   21  C5  UNL     1      25.028   1.276  52.101  1.00  0.00     0.020 C 
BRANCH  21  22
HETATM   22  C4  UNL     1      26.134   0.860  52.905  1.00  0.00     0.045 C 
HETATM   23  C3  UNL     1      26.937  -0.109  52.612  1.00  0.00     0.134 C 
HETATM   24  F1  UNL     1      26.827  -0.841  51.511  1.00  0.00    -0.205 F 
BRANCH  23  25
HETATM   25  C2  UNL     1      27.975  -0.360  53.554  1.00  0.00     0.050 C 
HETATM   26  C1  UNL     1      28.883  -1.297  53.328  1.00  0.00     0.060 C 
HETATM   27 CL1  UNL     1      28.735   0.071  55.039  1.00  0.00    -0.086 Cl
ENDBRANCH  23  25
ENDBRANCH  21  22
ENDBRANCH  18  20
ENDBRANCH   1  18
TORSDOF 4
ENDMDL
MODEL 4
REMARK VINA RESULT:      -7.9      4.801      9.155
REMARK  4 active torsions:
REMARK  status: ('A' for Active; 'I' for Inactive)
REMARK    1  A    between atoms: C2_2  and  C3_4 
REMARK    2  A    between atoms: C4_6  and  C5_7 
REMARK    3  A    between atoms: C6_8  and  N1_9 
REMARK    4  A    between atoms: N1_9  and  C7_10 
ROOT
HETATM    1  C7  UNL     1      25.091   4.966  50.125  1.00  0.00     0.159 A 
HETATM    2  N2  UNL     1      24.204   5.582  50.935  1.00  0.00    -0.222 NA
HETATM    3  C8  UNL     1      24.235   6.908  51.167  1.00  0.00     0.238 A 
HETATM    4  N3  UNL     1      25.177   7.663  50.577  1.00  0.00    -0.215 NA
HETATM    5  C9  UNL     1      26.115   7.124  49.743  1.00  0.00     0.202 A 
HETATM    6  C10 UNL     1      26.047   5.765  49.534  1.00  0.00     0.129 A 
HETATM    7  N4  UNL     1      26.915   4.955  48.712  1.00  0.00    -0.379 N 
HETATM    8  C11 UNL     1      28.308   5.172  48.395  1.00  0.00     0.161 C 
HETATM    9  C12 UNL     1      28.702   6.573  48.274  1.00  0.00    -0.004 A 
HETATM   10  C13 UNL     1      29.943   6.570  47.639  1.00  0.00     0.054 A 
HETATM   11  C14 UNL     1      30.616   7.753  47.361  1.00  0.00     0.117 A 
HETATM   12  F2  UNL     1      31.821   7.843  46.753  1.00  0.00    -0.206 F 
HETATM   13  C15 UNL     1      30.077   8.972  47.706  1.00  0.00     0.045 A 
HETATM   14  C16 UNL     1      28.856   9.027  48.335  1.00  0.00     0.041 A 
HETATM   15  C17 UNL     1      28.217   7.832  48.593  1.00  0.00     0.086 A 
HETATM   16  O1  UNL     1      27.008   8.051  49.228  1.00  0.00    -0.289 OA
HETATM   17  H8  UNL     1      26.395   4.120  48.337  1.00  0.00     0.160 HD
ENDROOT
BRANCH   1  18
HETATM   18  N1  UNL     1      24.997   3.560  49.931  1.00  0.00    -0.349 N 
HETATM   19  H6  UNL     1      24.635   2.881  49.230  1.00  0.00     0.167 HD
BRANCH  18  20
HETATM   20  C6  UNL     1      25.603   2.941  51.089  1.00  0.00     0.090 C 
HETATM   21  C5  UNL     1      26.421   1.954  51.350  1.00  0.00     0.020 C 
BRANCH  21  22
HETATM   22  C4  UNL     1      27.189   1.094  52.195  1.00  0.00     0.045 C 
HETATM   23  C3  UNL     1      28.109   1.491  53.012  1.00  0.00     0.134 C 
HETATM   24  F1  UNL     1      28.451   2.763  53.165  1.00  0.00    -0.205 F 
BRANCH  23  25
HETATM   25  C2  UNL     1      28.754   0.467  53.762  1.00  0.00     0.050 C 
HETATM   26  C1  UNL     1      28.358   0.175  54.991  1.00  0.00     0.060 C 
HETATM   27 CL1  UNL     1      29.951  -0.772  53.813  1.00  0.00    -0.086 Cl
ENDBRANCH  23  25
ENDBRANCH  21  22
ENDBRANCH  18  20
ENDBRANCH   1  18
TORSDOF 4
ENDMDL
MODEL 5
REMARK VINA RESULT:      -7.8      1.688      2.682
REMARK  4 active torsions:
REMARK  status: ('A' for Active; 'I' for Inactive)
REMARK    1  A    between atoms: C2_2  and  C3_4 
REMARK    2  A    between atoms: C4_6  and  C5_7 
REMARK    3  A    between atoms: C6_8  and  N1_9 
REMARK    4  A    between atoms: N1_9  and  C7_10 
ROOT
HETATM    1  C7  UNL     1      24.766   3.230  49.929  1.00  0.00     0.159 A 
HETATM    2  N2  UNL     1      23.958   3.979  49.147  1.00  0.00    -0.222 NA
HETATM    3  C8  UNL     1      22.633   4.073  49.358  1.00  0.00     0.238 A 
HETATM    4  N3  UNL     1      22.074   3.405  50.381  1.00  0.00    -0.215 NA
HETATM    5  C9  UNL     1      22.815   2.624  51.222  1.00  0.00     0.202 A 
HETATM    6  C10 UNL     1      24.166   2.555  50.971  1.00  0.00     0.129 A 
HETATM    7  N4  UNL     1      25.162   1.802  51.696  1.00  0.00    -0.379 N 
HETATM    8  C11 UNL     1      24.995   0.564  52.422  1.00  0.00     0.161 C 
HETATM    9  C12 UNL     1      23.699   0.400  53.074  1.00  0.00    -0.004 A 
HETATM   10  C13 UNL     1      23.853  -0.647  53.981  1.00  0.00     0.054 A 
HETATM   11  C14 UNL     1      22.801  -1.071  54.782  1.00  0.00     0.117 A 
HETATM   12  F2  UNL     1      22.860  -2.078  55.684  1.00  0.00    -0.206 F 
HETATM   13  C15 UNL     1      21.565  -0.469  54.706  1.00  0.00     0.045 A 
HETATM   14  C16 UNL     1      21.362   0.568  53.826  1.00  0.00     0.041 A 
HETATM   15  C17 UNL     1      22.431   0.962  53.048  1.00  0.00     0.086 A 
HETATM   16  O1  UNL     1      22.072   2.008  52.218  1.00  0.00    -0.289 OA
HETATM   17  H8  UNL     1      26.099   2.278  51.640  1.00  0.00     0.160 HD
ENDROOT
BRANCH   1  18
HETATM   18  N1  UNL     1      26.158   3.177  49.641  1.00  0.00    -0.349 N 
HETATM   19  H6  UNL     1      26.932   2.482  49.602  1.00  0.00     0.167 HD
BRANCH  18  20
HETATM   20  C6  UNL     1      26.565   4.525  49.311  1.00  0.00     0.090 C 
HETATM   21  C5  UNL     1      27.538   5.120  48.670  1.00  0.00     0.020 C 
BRANCH  21  22
HETATM   22  C4  UNL     1      28.259   6.243  48.158  1.00  0.00     0.045 C 
HETATM   23  C3  UNL     1      29.494   6.216  47.777  1.00  0.00     0.134 C 
HETATM   24  F1  UNL     1      30.248   5.125  47.816  1.00  0.00    -0.205 F 
BRANCH  23  25
HETATM   25  C2  UNL     1      30.021   7.450  47.299  1.00  0.00     0.050 C 
HETATM   26  C1  UNL     1      30.847   7.478  46.264  1.00  0.00     0.060 C 
HETATM   27 CL1  UNL     1      30.063   9.168  47.427  1.00  0.00    -0.086 Cl
ENDBRANCH  23  25
ENDBRANCH  21  22
ENDBRANCH  18  20
ENDBRANCH   1  18
TORSDOF 4
ENDMDL
MODEL 6
REMARK VINA RESULT:      -7.8      5.346      6.571
REMARK  4 active torsions:
REMARK  status: ('A' for Active; 'I' for Inactive)
REMARK    1  A    between atoms: C2_2  and  C3_4 
REMARK    2  A    between atoms: C4_6  and  C5_7 
REMARK    3  A    between atoms: C6_8  and  N1_9 
REMARK    4  A    between atoms: N1_9  and  C7_10 
ROOT
HETATM    1  C7  UNL     1      22.267   0.185  52.888  1.00  0.00     0.159 A 
HETATM    2  N2  UNL     1      22.807  -0.213  54.060  1.00  0.00    -0.222 NA
HETATM    3  C8  UNL     1      22.130  -0.959  54.953  1.00  0.00     0.238 A 
HETATM    4  N3  UNL     1      20.867  -1.331  54.685  1.00  0.00    -0.215 NA
HETATM    5  C9  UNL     1      20.241  -0.973  53.525  1.00  0.00     0.202 A 
HETATM    6  C10 UNL     1      20.970  -0.211  52.640  1.00  0.00     0.129 A 
HETATM    7  N4  UNL     1      20.544   0.302  51.359  1.00  0.00    -0.379 N 
HETATM    8  C11 UNL     1      19.210   0.664  50.937  1.00  0.00     0.161 C 
HETATM    9  C12 UNL     1      18.140  -0.150  51.508  1.00  0.00    -0.004 A 
HETATM   10  C13 UNL     1      17.008   0.107  50.738  1.00  0.00     0.054 A 
HETATM   11  C14 UNL     1      15.793  -0.511  51.008  1.00  0.00     0.117 A 
HETATM   12  F2  UNL     1      14.646  -0.317  50.318  1.00  0.00    -0.206 F 
HETATM   13  C15 UNL     1      15.669  -1.401  52.051  1.00  0.00     0.045 A 
HETATM   14  C16 UNL     1      16.757  -1.688  52.840  1.00  0.00     0.041 A 
HETATM   15  C17 UNL     1      17.946  -1.055  52.541  1.00  0.00     0.086 A 
HETATM   16  O1  UNL     1      18.941  -1.443  53.420  1.00  0.00    -0.289 OA
HETATM   17  H8  UNL     1      21.366   0.398  50.708  1.00  0.00     0.160 HD
ENDROOT
BRANCH   1  18
HETATM   18  N1  UNL     1      23.044   0.974  51.996  1.00  0.00    -0.349 N 
HETATM   19  H6  UNL     1      22.927   1.524  51.120  1.00  0.00     0.167 HD
BRANCH  18  20
HETATM   20  C6  UNL     1      24.394   0.977  52.514  1.00  0.00     0.090 C 
HETATM   21  C5  UNL     1      25.525   0.356  52.292  1.00  0.00     0.020 C 
BRANCH  21  22
HETATM   22  C4  UNL     1      26.906   0.059  52.509  1.00  0.00     0.045 C 
HETATM   23  C3  UNL     1      27.435  -0.196  53.660  1.00  0.00     0.134 C 
HETATM   24  F1  UNL     1      26.746  -0.212  54.794  1.00  0.00    -0.205 F 
BRANCH  23  25
HETATM   25  C2  UNL     1      28.833  -0.466  53.653  1.00  0.00     0.050 C 
HETATM   26  C1  UNL     1      29.714   0.521  53.712  1.00  0.00     0.060 C 
HETATM   27 CL1  UNL     1      30.094  -1.641  53.643  1.00  0.00    -0.086 Cl
ENDBRANCH  23  25
ENDBRANCH  21  22
ENDBRANCH  18  20
ENDBRANCH   1  18
TORSDOF 4
ENDMDL
MODEL 7
REMARK VINA RESULT:      -7.6      3.096      3.974
REMARK  4 active torsions:
REMARK  status: ('A' for Active; 'I' for Inactive)
REMARK    1  A    between atoms: C2_2  and  C3_4 
REMARK    2  A    between atoms: C4_6  and  C5_7 
REMARK    3  A    between atoms: C6_8  and  N1_9 
REMARK    4  A    between atoms: N1_9  and  C7_10 
ROOT
HETATM    1  C7  UNL     1      23.275   6.383  51.396  1.00  0.00     0.159 A 
HETATM    2  N2  UNL     1      22.363   7.104  50.707  1.00  0.00    -0.222 NA
HETATM    3  C8  UNL     1      21.136   6.633  50.421  1.00  0.00     0.238 A 
HETATM    4  N3  UNL     1      20.786   5.400  50.826  1.00  0.00    -0.215 NA
HETATM    5  C9  UNL     1      21.644   4.602  51.527  1.00  0.00     0.202 A 
HETATM    6  C10 UNL     1      22.889   5.122  51.799  1.00  0.00     0.129 A 
HETATM    7  N4  UNL     1      23.975   4.488  52.509  1.00  0.00    -0.379 N 
HETATM    8  C11 UNL     1      24.285   3.080  52.598  1.00  0.00     0.161 C 
HETATM    9  C12 UNL     1      23.126   2.191  52.600  1.00  0.00    -0.004 A 
HETATM   10  C13 UNL     1      23.591   0.952  53.035  1.00  0.00     0.054 A 
HETATM   11  C14 UNL     1      22.740  -0.139  53.158  1.00  0.00     0.117 A 
HETATM   12  F2  UNL     1      23.105  -1.375  53.568  1.00  0.00    -0.206 F 
HETATM   13  C15 UNL     1      21.402  -0.030  52.851  1.00  0.00     0.045 A 
HETATM   14  C16 UNL     1      20.895   1.171  52.417  1.00  0.00     0.041 A 
HETATM   15  C17 UNL     1      21.771   2.231  52.308  1.00  0.00     0.086 A 
HETATM   16  O1  UNL     1      21.115   3.364  51.860  1.00  0.00    -0.289 OA
HETATM   17  H8  UNL     1      24.570   5.208  52.993  1.00  0.00     0.160 HD
ENDROOT
BRANCH   1  18
HETATM   18  N1  UNL     1      24.553   6.948  51.658  1.00  0.00    -0.349 N 
HETATM   19  H6  UNL     1      25.079   7.383  52.444  1.00  0.00     0.167 HD
BRANCH  18  20
HETATM   20  C6  UNL     1      25.305   6.864  50.426  1.00  0.00     0.090 C 
HETATM   21  C5  UNL     1      26.281   7.503  49.834  1.00  0.00     0.020 C 
BRANCH  21  22
HETATM   22  C4  UNL     1      27.216   7.759  48.784  1.00  0.00     0.045 C 
HETATM   23  C3  UNL     1      27.823   6.847  48.097  1.00  0.00     0.134 C 
HETATM   24  F1  UNL     1      27.644   5.547  48.290  1.00  0.00    -0.205 F 
BRANCH  23  25
HETATM   25  C2  UNL     1      28.717   7.319  47.094  1.00  0.00     0.050 C 
HETATM   26  C1  UNL     1      30.020   7.107  47.194  1.00  0.00     0.060 C 
HETATM   27 CL1  UNL     1      28.925   8.114  45.579  1.00  0.00    -0.086 Cl
ENDBRANCH  23  25
ENDBRANCH  21  22
ENDBRANCH  18  20
ENDBRANCH   1  18
TORSDOF 4
ENDMDL
MODEL 8
REMARK VINA RESULT:      -7.6      2.867      4.180
REMARK  4 active torsions:
REMARK  status: ('A' for Active; 'I' for Inactive)
REMARK    1  A    between atoms: C2_2  and  C3_4 
REMARK    2  A    between atoms: C4_6  and  C5_7 
REMARK    3  A    between atoms: C6_8  and  N1_9 
REMARK    4  A    between atoms: N1_9  and  C7_10 
ROOT
HETATM    1  C7  UNL     1      25.763   5.131  49.217  1.00  0.00     0.159 A 
HETATM    2  N2  UNL     1      24.773   5.742  48.532  1.00  0.00    -0.222 NA
HETATM    3  C8  UNL     1      23.474   5.445  48.718  1.00  0.00     0.238 A 
HETATM    4  N3  UNL     1      23.130   4.506  49.616  1.00  0.00    -0.215 NA
HETATM    5  C9  UNL     1      24.065   3.836  50.352  1.00  0.00     0.202 A 
HETATM    6  C10 UNL     1      25.382   4.171  50.131  1.00  0.00     0.129 A 
HETATM    7  N4  UNL     1      26.553   3.613  50.764  1.00  0.00    -0.379 N 
HETATM    8  C11 UNL     1      26.736   2.282  51.294  1.00  0.00     0.161 C 
HETATM    9  C12 UNL     1      25.540   1.681  51.880  1.00  0.00    -0.004 A 
HETATM   10  C13 UNL     1      25.983   0.591  52.626  1.00  0.00     0.054 A 
HETATM   11  C14 UNL     1      25.095  -0.216  53.327  1.00  0.00     0.117 A 
HETATM   12  F2  UNL     1      25.436  -1.293  54.071  1.00  0.00    -0.206 F 
HETATM   13  C15 UNL     1      23.742   0.038  53.306  1.00  0.00     0.045 A 
HETATM   14  C16 UNL     1      23.255   1.101  52.584  1.00  0.00     0.041 A 
HETATM   15  C17 UNL     1      24.168   1.879  51.902  1.00  0.00     0.086 A 
HETATM   16  O1  UNL     1      23.529   2.902  51.226  1.00  0.00    -0.289 OA
HETATM   17  H8  UNL     1      27.326   4.326  50.805  1.00  0.00     0.160 HD
ENDROOT
BRANCH   1  18
HETATM   18  N1  UNL     1      27.114   5.497  48.963  1.00  0.00    -0.349 N 
HETATM   19  H6  UNL     1      28.047   5.049  48.850  1.00  0.00     0.167 HD
BRANCH  18  20
HETATM   20  C6  UNL     1      27.136   6.936  48.830  1.00  0.00     0.090 C 
HETATM   21  C5  UNL     1      28.020   7.888  48.674  1.00  0.00     0.020 C 
BRANCH  21  22
HETATM   22  C4  UNL     1      28.458   9.239  48.519  1.00  0.00     0.045 C 
HETATM   23  C3  UNL     1      29.540   9.729  49.029  1.00  0.00     0.134 C 
HETATM   24  F1  UNL     1      30.384   9.021  49.769  1.00  0.00    -0.205 F 
BRANCH  23  25
HETATM   25  C2  UNL     1      29.789  11.103  48.751  1.00  0.00     0.050 C 
HETATM   26  C1  UNL     1      29.090  11.746  47.828  1.00  0.00     0.060 C 
HETATM   27 CL1  UNL     1      30.670  12.534  49.134  1.00  0.00    -0.086 Cl
ENDBRANCH  23  25
ENDBRANCH  21  22
ENDBRANCH  18  20
ENDBRANCH   1  18
TORSDOF 4
ENDMDL
MODEL 9
REMARK VINA RESULT:      -7.5      5.201     10.346
REMARK  4 active torsions:
REMARK  status: ('A' for Active; 'I' for Inactive)
REMARK    1  A    between atoms: C2_2  and  C3_4 
REMARK    2  A    between atoms: C4_6  and  C5_7 
REMARK    3  A    between atoms: C6_8  and  N1_9 
REMARK    4  A    between atoms: N1_9  and  C7_10 
ROOT
HETATM    1  C7  UNL     1      28.357   5.995  48.426  1.00  0.00     0.159 A 
HETATM    2  N2  UNL     1      29.405   5.176  48.193  1.00  0.00    -0.222 NA
HETATM    3  C8  UNL     1      30.675   5.620  48.156  1.00  0.00     0.238 A 
HETATM    4  N3  UNL     1      30.929   6.924  48.356  1.00  0.00    -0.215 NA
HETATM    5  C9  UNL     1      29.930   7.824  48.597  1.00  0.00     0.202 A 
HETATM    6  C10 UNL     1      28.646   7.328  48.627  1.00  0.00     0.129 A 
HETATM    7  N4  UNL     1      27.422   8.060  48.852  1.00  0.00    -0.379 N 
HETATM    8  C11 UNL     1      27.133   9.440  48.535  1.00  0.00     0.161 C 
HETATM    9  C12 UNL     1      28.268  10.352  48.656  1.00  0.00    -0.004 A 
HETATM   10  C13 UNL     1      27.730  11.637  48.659  1.00  0.00     0.054 A 
HETATM   11  C14 UNL     1      28.540  12.761  48.764  1.00  0.00     0.117 A 
HETATM   12  F2  UNL     1      28.106  14.042  48.770  1.00  0.00    -0.206 F 
HETATM   13  C15 UNL     1      29.908  12.639  48.868  1.00  0.00     0.045 A 
HETATM   14  C16 UNL     1      30.487  11.393  48.869  1.00  0.00     0.041 A 
HETATM   15  C17 UNL     1      29.649  10.301  48.764  1.00  0.00     0.086 A 
HETATM   16  O1  UNL     1      30.376   9.124  48.778  1.00  0.00    -0.289 OA
HETATM   17  H8  UNL     1      26.699   7.442  49.303  1.00  0.00     0.160 HD
ENDROOT
BRANCH   1  18
HETATM   18  N1  UNL     1      27.042   5.452  48.447  1.00  0.00    -0.349 N 
HETATM   19  H6  UNL     1      26.078   5.705  48.147  1.00  0.00     0.167 HD
BRANCH  18  20
HETATM   20  C6  UNL     1      27.136   4.161  49.091  1.00  0.00     0.090 C 
HETATM   21  C5  UNL     1      26.486   3.472  49.993  1.00  0.00     0.020 C 
BRANCH  21  22
HETATM   22  C4  UNL     1      26.233   2.339  50.827  1.00  0.00     0.045 C 
HETATM   23  C3  UNL     1      26.886   2.056  51.906  1.00  0.00     0.134 C 
HETATM   24  F1  UNL     1      27.883   2.797  52.373  1.00  0.00    -0.205 F 
BRANCH  23  25
HETATM   25  C2  UNL     1      26.472   0.877  52.589  1.00  0.00     0.050 C 
HETATM   26  C1  UNL     1      26.708  -0.321  52.077  1.00  0.00     0.060 C 
HETATM   27 CL1  UNL     1      25.742   0.178  53.984  1.00  0.00    -0.086 Cl
ENDBRANCH  23  25
ENDBRANCH  21  22
ENDBRANCH  18  20
ENDBRANCH   1  18
TORSDOF 4
ENDMDL
