MODEL 1
REMARK VINA RESULT:      -8.7      0.000      0.000
REMARK  3 active torsions:
REMARK  status: ('A' for Active; 'I' for Inactive)
REMARK    1  A    between atoms: C2_3  and  C3_4 
REMARK    2  A    between atoms: C3_4  and  N2_5 
REMARK    3  A    between atoms: C15_20  and  N4_21 
ROOT
HETATM    1  N1  UNL     1      27.550   4.229  48.866  1.00  0.00    -0.197 NA
HETATM    2  C1  UNL     1      26.444   4.041  49.217  1.00  0.00     0.060 C 
HETATM    3  C2  UNL     1      25.062   3.828  49.660  1.00  0.00     0.144 C 
ENDROOT
BRANCH   3   4
HETATM    4  C3  UNL     1      24.942   3.909  51.164  1.00  0.00     0.143 C 
BRANCH   4   5
HETATM    5  N2  UNL     1      24.030   2.942  51.704  1.00  0.00    -0.344 N 
HETATM    6  C4  UNL     1      24.387   1.774  52.190  1.00  0.00     0.055 A 
HETATM    7  C5  UNL     1      23.436   0.894  52.749  1.00  0.00     0.047 A 
HETATM    8  C18 UNL     1      25.786   1.436  52.159  1.00  0.00    -0.013 C 
HETATM    9  C6  UNL     1      22.311   1.685  52.555  1.00  0.00     0.005 A 
HETATM   10  C12 UNL     1      23.481  -0.435  53.422  1.00  0.00     0.256 A 
HETATM   11  C7  UNL     1      20.969   1.517  52.835  1.00  0.00     0.014 A 
HETATM   12  C11 UNL     1      22.682   2.882  51.941  1.00  0.00     0.046 A 
HETATM   13  C8  UNL     1      19.996   2.448  52.550  1.00  0.00     0.001 A 
HETATM   14  C9  UNL     1      20.433   3.622  51.938  1.00  0.00     0.002 A 
HETATM   15  C10 UNL     1      21.768   3.888  51.613  1.00  0.00     0.030 A 
HETATM   16  N3  UNL     1      22.808  -1.514  52.822  1.00  0.00    -0.312 N 
HETATM   17  C13 UNL     1      22.408  -0.953  54.154  1.00  0.00     0.282 A 
HETATM   18  O2  UNL     1      24.828  -0.741  53.960  1.00  0.00    -0.308 OA
HETATM   19  H9  UNL     1      22.448  -2.288  52.228  1.00  0.00     0.166 HD
HETATM   20  O1  UNL     1      21.847  -0.701  55.274  1.00  0.00    -0.267 OA
HETATM   21  C14 UNL     1      25.986  -0.042  53.669  1.00  0.00     0.081 C 
HETATM   22  C15 UNL     1      26.921   0.675  54.346  1.00  0.00     0.056 C 
HETATM   23  C19 UNL     1      26.338  -0.032  52.131  1.00  0.00     0.109 C 
HETATM   24  C16 UNL     1      27.458   1.885  53.547  1.00  0.00     0.044 C 
HETATM   25  C17 UNL     1      26.791   2.244  52.359  1.00  0.00    -0.014 C 
BRANCH  22  26
HETATM   26  N4  UNL     1      26.944  -0.033  55.580  1.00  0.00    -0.397 N 
HETATM   27  H10 UNL     1      26.975   0.461  56.495  1.00  0.00     0.156 HD
HETATM   28  H11 UNL     1      26.926  -1.075  55.532  1.00  0.00     0.156 HD
ENDBRANCH  22  26
ENDBRANCH   4   5
ENDBRANCH   3   4
TORSDOF 3
ENDMDL
MODEL 2
REMARK VINA RESULT:      -8.5      2.314      5.739
REMARK  3 active torsions:
REMARK  status: ('A' for Active; 'I' for Inactive)
REMARK    1  A    between atoms: C2_3  and  C3_4 
REMARK    2  A    between atoms: C3_4  and  N2_5 
REMARK    3  A    between atoms: C15_20  and  N4_21 
ROOT
HETATM    1  N1  UNL     1      17.068  -0.649  52.494  1.00  0.00    -0.197 NA
HETATM    2  C1  UNL     1      18.040  -0.205  52.006  1.00  0.00     0.060 C 
HETATM    3  C2  UNL     1      19.267   0.337  51.412  1.00  0.00     0.144 C 
ENDROOT
BRANCH   3   4
HETATM    4  C3  UNL     1      19.886   1.400  52.289  1.00  0.00     0.143 C 
BRANCH   4   5
HETATM    5  N2  UNL     1      21.247   1.113  52.639  1.00  0.00    -0.344 N 
HETATM    6  C4  UNL     1      22.287   1.781  52.190  1.00  0.00     0.055 A 
HETATM    7  C5  UNL     1      23.595   1.469  52.618  1.00  0.00     0.047 A 
HETATM    8  C18 UNL     1      22.042   2.861  51.271  1.00  0.00    -0.013 C 
HETATM    9  C6  UNL     1      23.269   0.423  53.472  1.00  0.00     0.005 A 
HETATM   10  C12 UNL     1      24.955   2.027  52.377  1.00  0.00     0.256 A 
HETATM   11  C7  UNL     1      24.014  -0.418  54.275  1.00  0.00     0.014 A 
HETATM   12  C11 UNL     1      21.887   0.231  53.471  1.00  0.00     0.046 A 
HETATM   13  C8  UNL     1      23.479  -1.415  55.060  1.00  0.00     0.001 A 
HETATM   14  C9  UNL     1      22.093  -1.552  55.013  1.00  0.00     0.002 A 
HETATM   15  C10 UNL     1      21.250  -0.753  54.233  1.00  0.00     0.030 A 
HETATM   16  N3  UNL     1      25.919   1.207  51.764  1.00  0.00    -0.312 N 
HETATM   17  C13 UNL     1      26.061   1.705  53.172  1.00  0.00     0.282 A 
HETATM   18  O2  UNL     1      24.905   3.427  51.892  1.00  0.00    -0.308 OA
HETATM   19  H9  UNL     1      26.505   0.608  51.149  1.00  0.00     0.166 HD
HETATM   20  O1  UNL     1      26.452   1.967  54.359  1.00  0.00    -0.267 OA
HETATM   21  C14 UNL     1      23.769   4.081  51.448  1.00  0.00     0.081 C 
HETATM   22  C15 UNL     1      23.046   5.178  51.793  1.00  0.00     0.056 C 
HETATM   23  C19 UNL     1      23.084   3.374  50.216  1.00  0.00     0.109 C 
HETATM   24  C16 UNL     1      21.524   4.995  51.584  1.00  0.00     0.044 C 
HETATM   25  C17 UNL     1      21.044   3.702  51.299  1.00  0.00    -0.014 C 
BRANCH  22  26
HETATM   26  N4  UNL     1      24.081   6.031  52.266  1.00  0.00    -0.397 N 
HETATM   27  H10 UNL     1      24.755   6.487  51.618  1.00  0.00     0.156 HD
HETATM   28  H11 UNL     1      24.138   6.187  53.296  1.00  0.00     0.156 HD
ENDBRANCH  22  26
ENDBRANCH   4   5
ENDBRANCH   3   4
TORSDOF 3
ENDMDL
MODEL 3
REMARK VINA RESULT:      -8.3      2.331      5.010
REMARK  3 active torsions:
REMARK  status: ('A' for Active; 'I' for Inactive)
REMARK    1  A    between atoms: C2_3  and  C3_4 
REMARK    2  A    between atoms: C3_4  and  N2_5 
REMARK    3  A    between atoms: C15_20  and  N4_21 
ROOT
HETATM    1  N1  UNL     1      28.139  -0.251  54.929  1.00  0.00    -0.197 NA
HETATM    2  C1  UNL     1      27.352   0.545  54.573  1.00  0.00     0.060 C 
HETATM    3  C2  UNL     1      26.352   1.525  54.133  1.00  0.00     0.144 C 
ENDROOT
BRANCH   3   4
HETATM    4  C3  UNL     1      25.739   1.137  52.808  1.00  0.00     0.143 C 
BRANCH   4   5
HETATM    5  N2  UNL     1      24.305   1.176  52.823  1.00  0.00    -0.344 N 
HETATM    6  C4  UNL     1      23.581   2.096  52.225  1.00  0.00     0.055 A 
HETATM    7  C5  UNL     1      22.171   2.042  52.244  1.00  0.00     0.047 A 
HETATM    8  C18 UNL     1      24.276   3.143  51.524  1.00  0.00    -0.013 C 
HETATM    9  C6  UNL     1      22.038   0.880  52.993  1.00  0.00     0.005 A 
HETATM   10  C12 UNL     1      21.066   2.846  51.649  1.00  0.00     0.256 A 
HETATM   11  C7  UNL     1      20.950   0.163  53.453  1.00  0.00     0.014 A 
HETATM   12  C11 UNL     1      23.301   0.388  53.322  1.00  0.00     0.046 A 
HETATM   13  C8  UNL     1      21.043  -0.989  54.201  1.00  0.00     0.001 A 
HETATM   14  C9  UNL     1      22.333  -1.427  54.493  1.00  0.00     0.002 A 
HETATM   15  C10 UNL     1      23.497  -0.773  54.076  1.00  0.00     0.030 A 
HETATM   16  N3  UNL     1      20.163   3.490  52.513  1.00  0.00    -0.312 N 
HETATM   17  C13 UNL     1      19.745   2.391  51.583  1.00  0.00     0.282 A 
HETATM   18  O2  UNL     1      21.523   3.648  50.489  1.00  0.00    -0.308 OA
HETATM   19  H9  UNL     1      19.661   4.076  53.209  1.00  0.00     0.166 HD
HETATM   20  O1  UNL     1      19.105   1.508  50.918  1.00  0.00    -0.267 OA
HETATM   21  C14 UNL     1      22.843   3.864  50.134  1.00  0.00     0.081 C 
HETATM   22  C15 UNL     1      23.648   3.613  49.067  1.00  0.00     0.056 C 
HETATM   23  C19 UNL     1      23.685   4.573  51.264  1.00  0.00     0.109 C 
HETATM   24  C16 UNL     1      25.101   3.268  49.468  1.00  0.00     0.044 C 
HETATM   25  C17 UNL     1      25.374   3.025  50.829  1.00  0.00    -0.014 C 
BRANCH  22  26
HETATM   26  N4  UNL     1      22.713   3.745  48.003  1.00  0.00    -0.397 N 
HETATM   27  H10 UNL     1      22.038   4.535  47.960  1.00  0.00     0.156 HD
HETATM   28  H11 UNL     1      22.732   3.014  47.260  1.00  0.00     0.156 HD
ENDBRANCH  22  26
ENDBRANCH   4   5
ENDBRANCH   3   4
TORSDOF 3
ENDMDL
MODEL 4
REMARK VINA RESULT:      -8.1      1.936      4.917
REMARK  3 active torsions:
REMARK  status: ('A' for Active; 'I' for Inactive)
REMARK    1  A    between atoms: C2_3  and  C3_4 
REMARK    2  A    between atoms: C3_4  and  N2_5 
REMARK    3  A    between atoms: C15_20  and  N4_21 
ROOT
HETATM    1  N1  UNL     1      27.065   3.954  49.374  1.00  0.00    -0.197 NA
HETATM    2  C1  UNL     1      26.047   3.977  49.959  1.00  0.00     0.060 C 
HETATM    3  C2  UNL     1      24.782   3.989  50.704  1.00  0.00     0.144 C 
ENDROOT
BRANCH   3   4
HETATM    4  C3  UNL     1      23.886   2.843  50.295  1.00  0.00     0.143 C 
BRANCH   4   5
HETATM    5  N2  UNL     1      23.609   1.938  51.373  1.00  0.00    -0.344 N 
HETATM    6  C4  UNL     1      22.411   1.713  51.865  1.00  0.00     0.055 A 
HETATM    7  C5  UNL     1      22.211   0.771  52.896  1.00  0.00     0.047 A 
HETATM    8  C18 UNL     1      21.307   2.437  51.294  1.00  0.00    -0.013 C 
HETATM    9  C6  UNL     1      23.533   0.370  53.044  1.00  0.00     0.005 A 
HETATM   10  C12 UNL     1      21.033   0.231  53.631  1.00  0.00     0.256 A 
HETATM   11  C7  UNL     1      24.166  -0.535  53.873  1.00  0.00     0.014 A 
HETATM   12  C11 UNL     1      24.337   1.067  52.141  1.00  0.00     0.046 A 
HETATM   13  C8  UNL     1      25.520  -0.784  53.857  1.00  0.00     0.001 A 
HETATM   14  C9  UNL     1      26.265  -0.056  52.931  1.00  0.00     0.002 A 
HETATM   15  C10 UNL     1      25.720   0.883  52.048  1.00  0.00     0.030 A 
HETATM   16  N3  UNL     1      20.955   0.436  55.020  1.00  0.00    -0.312 N 
HETATM   17  C13 UNL     1      21.089  -0.929  54.412  1.00  0.00     0.282 A 
HETATM   18  O2  UNL     1      19.769   0.434  52.883  1.00  0.00    -0.308 OA
HETATM   19  H9  UNL     1      20.883   0.787  55.996  1.00  0.00     0.166 HD
HETATM   20  O1  UNL     1      21.197  -2.183  54.197  1.00  0.00    -0.267 OA
HETATM   21  C14 UNL     1      19.616   1.249  51.775  1.00  0.00     0.081 C 
HETATM   22  C15 UNL     1      19.253   1.111  50.473  1.00  0.00     0.056 C 
HETATM   23  C19 UNL     1      19.974   2.758  52.057  1.00  0.00     0.109 C 
HETATM   24  C16 UNL     1      20.029   2.051  49.521  1.00  0.00     0.044 C 
HETATM   25  C17 UNL     1      21.140   2.748  50.037  1.00  0.00    -0.014 C 
BRANCH  22  26
HETATM   26  N4  UNL     1      18.298   0.062  50.580  1.00  0.00    -0.397 N 
HETATM   27  H10 UNL     1      17.281   0.231  50.446  1.00  0.00     0.156 HD
HETATM   28  H11 UNL     1      18.660  -0.892  50.798  1.00  0.00     0.156 HD
ENDBRANCH  22  26
ENDBRANCH   4   5
ENDBRANCH   3   4
TORSDOF 3
ENDMDL
MODEL 5
REMARK VINA RESULT:      -7.5      2.854      5.603
REMARK  3 active torsions:
REMARK  status: ('A' for Active; 'I' for Inactive)
REMARK    1  A    between atoms: C2_3  and  C3_4 
REMARK    2  A    between atoms: C3_4  and  N2_5 
REMARK    3  A    between atoms: C15_20  and  N4_21 
ROOT
HETATM    1  N1  UNL     1      20.537   3.226  47.788  1.00  0.00    -0.197 NA
HETATM    2  C1  UNL     1      20.203   3.309  48.912  1.00  0.00     0.060 C 
HETATM    3  C2  UNL     1      19.781   3.434  50.311  1.00  0.00     0.144 C 
ENDROOT
BRANCH   3   4
HETATM    4  C3  UNL     1      20.803   4.184  51.134  1.00  0.00     0.143 C 
BRANCH   4   5
HETATM    5  N2  UNL     1      22.059   3.497  51.225  1.00  0.00    -0.344 N 
HETATM    6  C4  UNL     1      23.178   3.918  50.679  1.00  0.00     0.055 A 
HETATM    7  C5  UNL     1      24.387   3.211  50.853  1.00  0.00     0.047 A 
HETATM    8  C18 UNL     1      23.134   5.142  49.924  1.00  0.00    -0.013 C 
HETATM    9  C6  UNL     1      23.891   2.182  51.642  1.00  0.00     0.005 A 
HETATM   10  C12 UNL     1      25.806   3.413  50.447  1.00  0.00     0.256 A 
HETATM   11  C7  UNL     1      24.463   1.068  52.225  1.00  0.00     0.014 A 
HETATM   12  C11 UNL     1      22.523   2.369  51.850  1.00  0.00     0.046 A 
HETATM   13  C8  UNL     1      23.773   0.151  52.985  1.00  0.00     0.001 A 
HETATM   14  C9  UNL     1      22.412   0.396  53.154  1.00  0.00     0.002 A 
HETATM   15  C10 UNL     1      21.738   1.494  52.606  1.00  0.00     0.030 A 
HETATM   16  N3  UNL     1      26.407   2.460  49.607  1.00  0.00    -0.312 N 
HETATM   17  C13 UNL     1      26.868   2.700  51.013  1.00  0.00     0.282 A 
HETATM   18  O2  UNL     1      26.095   4.829  50.117  1.00  0.00    -0.308 OA
HETATM   19  H9  UNL     1      26.713   1.819  48.847  1.00  0.00     0.166 HD
HETATM   20  O1  UNL     1      27.470   2.678  52.140  1.00  0.00    -0.267 OA
HETATM   21  C14 UNL     1      25.145   5.819  49.932  1.00  0.00     0.081 C 
HETATM   22  C15 UNL     1      24.817   7.010  50.498  1.00  0.00     0.056 C 
HETATM   23  C19 UNL     1      24.131   5.501  48.767  1.00  0.00     0.109 C 
HETATM   24  C16 UNL     1      23.292   7.272  50.526  1.00  0.00     0.044 C 
HETATM   25  C17 UNL     1      22.430   6.207  50.198  1.00  0.00    -0.014 C 
BRANCH  22  26
HETATM   26  N4  UNL     1      26.105   7.480  50.875  1.00  0.00    -0.397 N 
HETATM   27  H10 UNL     1      26.643   8.143  50.281  1.00  0.00     0.156 HD
HETATM   28  H11 UNL     1      26.492   7.135  51.780  1.00  0.00     0.156 HD
ENDBRANCH  22  26
ENDBRANCH   4   5
ENDBRANCH   3   4
TORSDOF 3
ENDMDL
MODEL 6
REMARK VINA RESULT:      -7.3      9.767     11.908
REMARK  3 active torsions:
REMARK  status: ('A' for Active; 'I' for Inactive)
REMARK    1  A    between atoms: C2_3  and  C3_4 
REMARK    2  A    between atoms: C3_4  and  N2_5 
REMARK    3  A    between atoms: C15_20  and  N4_21 
ROOT
HETATM    1  N1  UNL     1      33.389   3.587  40.875  1.00  0.00    -0.197 NA
HETATM    2  C1  UNL     1      33.043   4.576  41.405  1.00  0.00     0.060 C 
HETATM    3  C2  UNL     1      32.629   5.823  42.058  1.00  0.00     0.144 C 
ENDROOT
BRANCH   3   4
HETATM    4  C3  UNL     1      33.536   6.172  43.215  1.00  0.00     0.143 C 
BRANCH   4   5
HETATM    5  N2  UNL     1      32.817   6.598  44.380  1.00  0.00    -0.344 N 
HETATM    6  C4  UNL     1      32.613   5.852  45.443  1.00  0.00     0.055 A 
HETATM    7  C5  UNL     1      31.936   6.358  46.573  1.00  0.00     0.047 A 
HETATM    8  C18 UNL     1      33.133   4.510  45.427  1.00  0.00    -0.013 C 
HETATM    9  C6  UNL     1      31.690   7.636  46.087  1.00  0.00     0.005 A 
HETATM   10  C12 UNL     1      31.588   5.841  47.926  1.00  0.00     0.256 A 
HETATM   11  C7  UNL     1      31.055   8.746  46.608  1.00  0.00     0.014 A 
HETATM   12  C11 UNL     1      32.216   7.756  44.800  1.00  0.00     0.046 A 
HETATM   13  C8  UNL     1      30.916   9.943  45.941  1.00  0.00     0.001 A 
HETATM   14  C9  UNL     1      31.464   9.997  44.660  1.00  0.00     0.002 A 
HETATM   15  C10 UNL     1      32.125   8.929  44.044  1.00  0.00     0.030 A 
HETATM   16  N3  UNL     1      30.230   5.727  48.273  1.00  0.00    -0.312 N 
HETATM   17  C13 UNL     1      31.165   6.669  48.971  1.00  0.00     0.282 A 
HETATM   18  O2  UNL     1      32.447   4.700  48.324  1.00  0.00    -0.308 OA
HETATM   19  H9  UNL     1      29.221   5.502  48.380  1.00  0.00     0.166 HD
HETATM   20  O1  UNL     1      31.703   7.542  49.733  1.00  0.00    -0.267 OA
HETATM   21  C14 UNL     1      33.292   4.000  47.481  1.00  0.00     0.081 C 
HETATM   22  C15 UNL     1      34.622   3.738  47.386  1.00  0.00     0.056 C 
HETATM   23  C19 UNL     1      32.542   3.325  46.268  1.00  0.00     0.109 C 
HETATM   24  C16 UNL     1      35.129   3.678  45.926  1.00  0.00     0.044 C 
HETATM   25  C17 UNL     1      34.262   4.113  44.904  1.00  0.00    -0.014 C 
BRANCH  22  26
HETATM   26  N4  UNL     1      34.972   3.682  48.764  1.00  0.00    -0.397 N 
HETATM   27  H10 UNL     1      35.957   3.783  49.083  1.00  0.00     0.156 HD
HETATM   28  H11 UNL     1      34.197   3.539  49.447  1.00  0.00     0.156 HD
ENDBRANCH  22  26
ENDBRANCH   4   5
ENDBRANCH   3   4
TORSDOF 3
ENDMDL
MODEL 7
REMARK VINA RESULT:      -6.8      8.510     11.850
REMARK  3 active torsions:
REMARK  status: ('A' for Active; 'I' for Inactive)
REMARK    1  A    between atoms: C2_3  and  C3_4 
REMARK    2  A    between atoms: C3_4  and  N2_5 
REMARK    3  A    between atoms: C15_20  and  N4_21 
ROOT
HETATM    1  N1  UNL     1      31.737  12.571  44.824  1.00  0.00    -0.197 NA
HETATM    2  C1  UNL     1      32.165  11.490  44.995  1.00  0.00     0.060 C 
HETATM    3  C2  UNL     1      32.698  10.137  45.185  1.00  0.00     0.144 C 
ENDROOT
BRANCH   3   4
HETATM    4  C3  UNL     1      31.621   9.089  45.032  1.00  0.00     0.143 C 
BRANCH   4   5
HETATM    5  N2  UNL     1      32.096   7.758  45.280  1.00  0.00    -0.344 N 
HETATM    6  C4  UNL     1      31.844   7.070  46.371  1.00  0.00     0.055 A 
HETATM    7  C5  UNL     1      32.307   5.746  46.523  1.00  0.00     0.047 A 
HETATM    8  C18 UNL     1      31.052   7.703  47.393  1.00  0.00    -0.013 C 
HETATM    9  C6  UNL     1      32.955   5.633  45.300  1.00  0.00     0.005 A 
HETATM   10  C12 UNL     1      32.169   4.681  47.556  1.00  0.00     0.256 A 
HETATM   11  C7  UNL     1      33.673   4.620  44.693  1.00  0.00     0.014 A 
HETATM   12  C11 UNL     1      32.819   6.824  44.586  1.00  0.00     0.046 A 
HETATM   13  C8  UNL     1      34.249   4.720  43.446  1.00  0.00     0.001 A 
HETATM   14  C9  UNL     1      34.074   5.934  42.787  1.00  0.00     0.002 A 
HETATM   15  C10 UNL     1      33.366   7.020  43.314  1.00  0.00     0.030 A 
HETATM   16  N3  UNL     1      33.329   4.213  48.199  1.00  0.00    -0.312 N 
HETATM   17  C13 UNL     1      32.489   3.341  47.315  1.00  0.00     0.282 A 
HETATM   18  O2  UNL     1      30.998   4.909  48.437  1.00  0.00    -0.308 OA
HETATM   19  H9  UNL     1      34.198   4.059  48.748  1.00  0.00     0.166 HD
HETATM   20  O1  UNL     1      31.989   2.380  46.637  1.00  0.00    -0.267 OA
HETATM   21  C14 UNL     1      30.261   6.078  48.504  1.00  0.00     0.081 C 
HETATM   22  C15 UNL     1      28.976   6.465  48.291  1.00  0.00     0.056 C 
HETATM   23  C19 UNL     1      31.120   7.334  48.917  1.00  0.00     0.109 C 
HETATM   24  C16 UNL     1      28.860   7.882  47.682  1.00  0.00     0.044 C 
HETATM   25  C17 UNL     1      30.035   8.501  47.213  1.00  0.00    -0.014 C 
BRANCH  22  26
HETATM   26  N4  UNL     1      28.281   5.295  48.707  1.00  0.00    -0.397 N 
HETATM   27  H10 UNL     1      28.755   4.371  48.773  1.00  0.00     0.156 HD
HETATM   28  H11 UNL     1      27.272   5.400  48.948  1.00  0.00     0.156 HD
ENDBRANCH  22  26
ENDBRANCH   4   5
ENDBRANCH   3   4
TORSDOF 3
ENDMDL
MODEL 8
REMARK VINA RESULT:      -6.8      2.355      5.110
REMARK  3 active torsions:
REMARK  status: ('A' for Active; 'I' for Inactive)
REMARK    1  A    between atoms: C2_3  and  C3_4 
REMARK    2  A    between atoms: C3_4  and  N2_5 
REMARK    3  A    between atoms: C15_20  and  N4_21 
ROOT
HETATM    1  N1  UNL     1      23.631   8.037  49.722  1.00  0.00    -0.197 NA
HETATM    2  C1  UNL     1      23.933   7.043  50.271  1.00  0.00     0.060 C 
HETATM    3  C2  UNL     1      24.327   5.799  50.942  1.00  0.00     0.144 C 
ENDROOT
BRANCH   3   4
HETATM    4  C3  UNL     1      23.876   4.583  50.166  1.00  0.00     0.143 C 
BRANCH   4   5
HETATM    5  N2  UNL     1      23.820   3.396  50.970  1.00  0.00    -0.344 N 
HETATM    6  C4  UNL     1      22.709   2.846  51.406  1.00  0.00     0.055 A 
HETATM    7  C5  UNL     1      22.732   1.649  52.154  1.00  0.00     0.047 A 
HETATM    8  C18 UNL     1      21.467   3.490  51.070  1.00  0.00    -0.013 C 
HETATM    9  C6  UNL     1      24.108   1.460  52.164  1.00  0.00     0.005 A 
HETATM   10  C12 UNL     1      21.707   0.741  52.741  1.00  0.00     0.256 A 
HETATM   11  C7  UNL     1      24.932   0.496  52.710  1.00  0.00     0.014 A 
HETATM   12  C11 UNL     1      24.728   2.496  51.463  1.00  0.00     0.046 A 
HETATM   13  C8  UNL     1      26.305   0.499  52.602  1.00  0.00     0.001 A 
HETATM   14  C9  UNL     1      26.860   1.560  51.889  1.00  0.00     0.002 A 
HETATM   15  C10 UNL     1      26.113   2.586  51.298  1.00  0.00     0.030 A 
HETATM   16  N3  UNL     1      21.687   0.563  54.135  1.00  0.00    -0.312 N 
HETATM   17  C13 UNL     1      22.002  -0.553  53.184  1.00  0.00     0.282 A 
HETATM   18  O2  UNL     1      20.382   0.908  52.098  1.00  0.00    -0.308 OA
HETATM   19  H9  UNL     1      21.622   0.631  55.171  1.00  0.00     0.166 HD
HETATM   20  O1  UNL     1      22.298  -1.670  52.641  1.00  0.00    -0.267 OA
HETATM   21  C14 UNL     1      20.026   1.942  51.250  1.00  0.00     0.081 C 
HETATM   22  C15 UNL     1      19.608   2.085  49.965  1.00  0.00     0.056 C 
HETATM   23  C19 UNL     1      20.152   3.366  51.917  1.00  0.00     0.109 C 
HETATM   24  C16 UNL     1      20.158   3.360  49.284  1.00  0.00     0.044 C 
HETATM   25  C17 UNL     1      21.171   4.081  49.945  1.00  0.00    -0.014 C 
BRANCH  22  26
HETATM   26  N4  UNL     1      18.845   0.895  49.809  1.00  0.00    -0.397 N 
HETATM   27  H10 UNL     1      19.260  -0.047  49.963  1.00  0.00     0.156 HD
HETATM   28  H11 UNL     1      17.845   1.002  49.534  1.00  0.00     0.156 HD
ENDBRANCH  22  26
ENDBRANCH   4   5
ENDBRANCH   3   4
TORSDOF 3
ENDMDL
MODEL 9
REMARK VINA RESULT:      -6.5     23.056     25.315
REMARK  3 active torsions:
REMARK  status: ('A' for Active; 'I' for Inactive)
REMARK    1  A    between atoms: C2_3  and  C3_4 
REMARK    2  A    between atoms: C3_4  and  N2_5 
REMARK    3  A    between atoms: C15_20  and  N4_21 
ROOT
HETATM    1  N1  UNL     1      40.061   2.472  74.424  1.00  0.00    -0.197 NA
HETATM    2  C1  UNL     1      40.240   3.357  73.673  1.00  0.00     0.060 C 
HETATM    3  C2  UNL     1      40.440   4.466  72.733  1.00  0.00     0.144 C 
ENDROOT
BRANCH   3   4
HETATM    4  C3  UNL     1      40.143   4.049  71.312  1.00  0.00     0.143 C 
BRANCH   4   5
HETATM    5  N2  UNL     1      41.277   4.178  70.443  1.00  0.00    -0.344 N 
HETATM    6  C4  UNL     1      41.883   3.169  69.858  1.00  0.00     0.055 A 
HETATM    7  C5  UNL     1      42.965   3.379  68.976  1.00  0.00     0.047 A 
HETATM    8  C18 UNL     1      41.385   1.845  70.123  1.00  0.00    -0.013 C 
HETATM    9  C6  UNL     1      43.009   4.765  69.059  1.00  0.00     0.005 A 
HETATM   10  C12 UNL     1      43.824   2.514  68.120  1.00  0.00     0.256 A 
HETATM   11  C7  UNL     1      43.813   5.728  68.482  1.00  0.00     0.014 A 
HETATM   12  C11 UNL     1      42.009   5.213  69.924  1.00  0.00     0.046 A 
HETATM   13  C8  UNL     1      43.684   7.080  68.708  1.00  0.00     0.001 A 
HETATM   14  C9  UNL     1      42.667   7.461  69.580  1.00  0.00     0.002 A 
HETATM   15  C10 UNL     1      41.800   6.565  70.215  1.00  0.00     0.030 A 
HETATM   16  N3  UNL     1      45.205   2.469  68.381  1.00  0.00    -0.312 N 
HETATM   17  C13 UNL     1      44.643   3.021  67.105  1.00  0.00     0.282 A 
HETATM   18  O2  UNL     1      43.186   1.207  67.830  1.00  0.00    -0.308 OA
HETATM   19  H9  UNL     1      46.169   2.350  68.753  1.00  0.00     0.166 HD
HETATM   20  O1  UNL     1      44.469   3.538  65.951  1.00  0.00    -0.267 OA
HETATM   21  C14 UNL     1      42.064   0.705  68.467  1.00  0.00     0.081 C 
HETATM   22  C15 UNL     1      40.807   0.320  68.125  1.00  0.00     0.056 C 
HETATM   23  C19 UNL     1      42.253   0.541  70.024  1.00  0.00     0.109 C 
HETATM   24  C16 UNL     1      39.752   0.656  69.206  1.00  0.00     0.044 C 
HETATM   25  C17 UNL     1      40.138   1.493  70.272  1.00  0.00    -0.014 C 
BRANCH  22  26
HETATM   26  N4  UNL     1      41.042  -0.206  66.824  1.00  0.00    -0.397 N 
HETATM   27  H10 UNL     1      42.002  -0.419  66.485  1.00  0.00     0.156 HD
HETATM   28  H11 UNL     1      40.209  -0.373  66.220  1.00  0.00     0.156 HD
ENDBRANCH  22  26
ENDBRANCH   4   5
ENDBRANCH   3   4
TORSDOF 3
ENDMDL
