MODEL 1
REMARK VINA RESULT:      -7.6      0.000      0.000
REMARK  4 active torsions:
REMARK  status: ('A' for Active; 'I' for Inactive)
REMARK    1  A    between atoms: C2_2  and  C3_3 
REMARK    2  A    between atoms: C4_4  and  C5_6 
REMARK    3  A    between atoms: C5_6  and  N1_7 
REMARK    4  A    between atoms: N1_7  and  C6_8 
ROOT
HETATM    1  C6  UNL     1      24.530  -0.250  54.453  1.00  0.00     0.166 A 
HETATM    2  C7  UNL     1      24.294  -1.277  55.504  1.00  0.00     0.123 A 
HETATM    3  N2  UNL     1      23.037  -1.650  55.537  1.00  0.00    -0.237 NA
HETATM    4  C8  UNL     1      22.352  -0.899  54.514  1.00  0.00     0.194 A 
HETATM    5  C9  UNL     1      23.180  -0.087  53.876  1.00  0.00     0.086 A 
HETATM    6  N3  UNL     1      22.810   0.788  52.813  1.00  0.00    -0.383 N 
HETATM    7  C10 UNL     1      21.769   0.720  51.812  1.00  0.00     0.161 C 
HETATM    8  C11 UNL     1      20.541   0.056  52.249  1.00  0.00    -0.005 A 
HETATM    9  C12 UNL     1      19.596   0.356  51.293  1.00  0.00     0.030 A 
HETATM   10  C13 UNL     1      18.287  -0.098  51.354  1.00  0.00     0.011 A 
HETATM   11 BR2  UNL     1      16.967   0.317  50.028  1.00  0.00    -0.051 Br
HETATM   12  C14 UNL     1      17.982  -0.894  52.464  1.00  0.00     0.022 A 
HETATM   13  C15 UNL     1      18.891  -1.222  53.446  1.00  0.00     0.039 A 
HETATM   14  C16 UNL     1      20.186  -0.732  53.322  1.00  0.00     0.086 A 
HETATM   15  O1  UNL     1      21.004  -1.126  54.363  1.00  0.00    -0.290 OA
HETATM   16  H8  UNL     1      23.434   1.651  52.766  1.00  0.00     0.160 HD
ENDROOT
BRANCH   1  17
HETATM   17  N1  UNL     1      25.419  -0.713  53.403  1.00  0.00    -0.406 NA
BRANCH  17  18
HETATM   18  C5  UNL     1      26.455  -0.046  53.011  1.00  0.00     0.295 C 
BRANCH  18  19
HETATM   19  C4  UNL     1      27.537   0.869  52.689  1.00  0.00     0.028 C 
HETATM   20  C3  UNL     1      28.709   0.676  53.239  1.00  0.00     0.020 C 
HETATM   21 BR1  UNL     1      26.280   1.748  51.587  1.00  0.00    -0.050 Br
BRANCH  20  22
HETATM   22  C2  UNL     1      28.965  -0.413  54.155  1.00  0.00    -0.009 C 
HETATM   23  C1  UNL     1      29.925  -1.180  53.731  1.00  0.00     0.011 C 
ENDBRANCH  20  22
ENDBRANCH  18  19
ENDBRANCH  17  18
ENDBRANCH   1  17
TORSDOF 4
ENDMDL
MODEL 2
REMARK VINA RESULT:      -7.3      1.298      2.028
REMARK  4 active torsions:
REMARK  status: ('A' for Active; 'I' for Inactive)
REMARK    1  A    between atoms: C2_2  and  C3_3 
REMARK    2  A    between atoms: C4_4  and  C5_6 
REMARK    3  A    between atoms: C5_6  and  N1_7 
REMARK    4  A    between atoms: N1_7  and  C6_8 
ROOT
HETATM    1  C6  UNL     1      24.167  -0.333  54.335  1.00  0.00     0.166 A 
HETATM    2  C7  UNL     1      23.884  -1.326  55.407  1.00  0.00     0.123 A 
HETATM    3  N2  UNL     1      22.614  -1.652  55.436  1.00  0.00    -0.237 NA
HETATM    4  C8  UNL     1      21.966  -0.900  54.389  1.00  0.00     0.194 A 
HETATM    5  C9  UNL     1      22.830  -0.135  53.740  1.00  0.00     0.086 A 
HETATM    6  N3  UNL     1      22.502   0.729  52.654  1.00  0.00    -0.383 N 
HETATM    7  C10 UNL     1      21.469   0.676  51.644  1.00  0.00     0.161 C 
HETATM    8  C11 UNL     1      20.212   0.068  52.085  1.00  0.00    -0.005 A 
HETATM    9  C12 UNL     1      19.288   0.380  51.112  1.00  0.00     0.030 A 
HETATM   10  C13 UNL     1      17.962  -0.024  51.171  1.00  0.00     0.011 A 
HETATM   11 BR2  UNL     1      16.670   0.408  49.823  1.00  0.00    -0.051 Br
HETATM   12  C14 UNL     1      17.618  -0.782  52.296  1.00  0.00     0.022 A 
HETATM   13  C15 UNL     1      18.505  -1.120  53.295  1.00  0.00     0.039 A 
HETATM   14  C16 UNL     1      19.819  -0.681  53.172  1.00  0.00     0.086 A 
HETATM   15  O1  UNL     1      20.612  -1.081  54.230  1.00  0.00    -0.290 OA
HETATM   16  H8  UNL     1      23.158   1.567  52.593  1.00  0.00     0.160 HD
ENDROOT
BRANCH   1  17
HETATM   17  N1  UNL     1      25.048  -0.853  53.304  1.00  0.00    -0.406 NA
BRANCH  17  18
HETATM   18  C5  UNL     1      26.105  -0.229  52.898  1.00  0.00     0.295 C 
BRANCH  18  19
HETATM   19  C4  UNL     1      27.237   0.627  52.589  1.00  0.00     0.028 C 
HETATM   20  C3  UNL     1      27.014   1.788  52.025  1.00  0.00     0.020 C 
HETATM   21 BR1  UNL     1      28.301  -0.748  53.326  1.00  0.00    -0.050 Br
BRANCH  20  22
HETATM   22  C2  UNL     1      25.682   2.247  51.697  1.00  0.00    -0.009 C 
HETATM   23  C1  UNL     1      25.668   2.923  50.588  1.00  0.00     0.011 C 
ENDBRANCH  20  22
ENDBRANCH  18  19
ENDBRANCH  17  18
ENDBRANCH   1  17
TORSDOF 4
ENDMDL
MODEL 3
REMARK VINA RESULT:      -7.3      2.097      7.866
REMARK  4 active torsions:
REMARK  status: ('A' for Active; 'I' for Inactive)
REMARK    1  A    between atoms: C2_2  and  C3_3 
REMARK    2  A    between atoms: C4_4  and  C5_6 
REMARK    3  A    between atoms: C5_6  and  N1_7 
REMARK    4  A    between atoms: N1_7  and  C6_8 
ROOT
HETATM    1  C6  UNL     1      20.891   1.378  52.859  1.00  0.00     0.166 A 
HETATM    2  C7  UNL     1      20.919   2.709  52.192  1.00  0.00     0.123 A 
HETATM    3  N2  UNL     1      22.146   3.149  52.050  1.00  0.00    -0.237 NA
HETATM    4  C8  UNL     1      23.017   2.146  52.613  1.00  0.00     0.194 A 
HETATM    5  C9  UNL     1      22.327   1.119  53.084  1.00  0.00     0.086 A 
HETATM    6  N3  UNL     1      22.895  -0.033  53.702  1.00  0.00    -0.383 N 
HETATM    7  C10 UNL     1      24.173  -0.691  53.548  1.00  0.00     0.161 C 
HETATM    8  C11 UNL     1      25.289   0.201  53.230  1.00  0.00    -0.005 A 
HETATM    9  C12 UNL     1      26.429  -0.546  53.422  1.00  0.00     0.030 A 
HETATM   10  C13 UNL     1      27.706  -0.043  53.220  1.00  0.00     0.011 A 
HETATM   11 BR2  UNL     1      29.298  -1.077  53.487  1.00  0.00    -0.051 Br
HETATM   12  C14 UNL     1      27.763   1.290  52.800  1.00  0.00     0.022 A 
HETATM   13  C15 UNL     1      26.652   2.079  52.593  1.00  0.00     0.039 A 
HETATM   14  C16 UNL     1      25.403   1.511  52.816  1.00  0.00     0.086 A 
HETATM   15  O1  UNL     1      24.369   2.394  52.577  1.00  0.00    -0.290 OA
HETATM   16  H8  UNL     1      22.234  -0.479  54.410  1.00  0.00     0.160 HD
ENDROOT
BRANCH   1  17
HETATM   17  N1  UNL     1      20.370   0.329  52.001  1.00  0.00    -0.406 NA
BRANCH  17  18
HETATM   18  C5  UNL     1      19.108   0.083  51.873  1.00  0.00     0.295 C 
BRANCH  18  19
HETATM   19  C4  UNL     1      17.750  -0.343  51.581  1.00  0.00     0.028 C 
HETATM   20  C3  UNL     1      17.184  -1.226  52.366  1.00  0.00     0.020 C 
HETATM   21 BR1  UNL     1      17.841   0.843  50.114  1.00  0.00    -0.050 Br
BRANCH  20  22
HETATM   22  C2  UNL     1      17.862  -1.791  53.511  1.00  0.00    -0.009 C 
HETATM   23  C1  UNL     1      17.610  -3.060  53.639  1.00  0.00     0.011 C 
ENDBRANCH  20  22
ENDBRANCH  18  19
ENDBRANCH  17  18
ENDBRANCH   1  17
TORSDOF 4
ENDMDL
MODEL 4
REMARK VINA RESULT:      -7.2      3.518      4.443
REMARK  4 active torsions:
REMARK  status: ('A' for Active; 'I' for Inactive)
REMARK    1  A    between atoms: C2_2  and  C3_3 
REMARK    2  A    between atoms: C4_4  and  C5_6 
REMARK    3  A    between atoms: C5_6  and  N1_7 
REMARK    4  A    between atoms: N1_7  and  C6_8 
ROOT
HETATM    1  C6  UNL     1      25.315   2.836  52.018  1.00  0.00     0.166 A 
HETATM    2  C7  UNL     1      26.367   1.931  52.557  1.00  0.00     0.123 A 
HETATM    3  N2  UNL     1      25.842   0.898  53.170  1.00  0.00    -0.237 NA
HETATM    4  C8  UNL     1      24.410   1.044  53.084  1.00  0.00     0.194 A 
HETATM    5  C9  UNL     1      24.077   2.145  52.429  1.00  0.00     0.086 A 
HETATM    6  N3  UNL     1      22.740   2.573  52.176  1.00  0.00    -0.383 N 
HETATM    7  C10 UNL     1      21.499   1.849  52.016  1.00  0.00     0.161 C 
HETATM    8  C11 UNL     1      21.398   0.621  52.806  1.00  0.00    -0.005 A 
HETATM    9  C12 UNL     1      20.072   0.255  52.754  1.00  0.00     0.030 A 
HETATM   10  C13 UNL     1      19.574  -0.873  53.390  1.00  0.00     0.011 A 
HETATM   11 BR2  UNL     1      17.729  -1.388  53.325  1.00  0.00    -0.051 Br
HETATM   12  C14 UNL     1      20.519  -1.627  54.095  1.00  0.00     0.022 A 
HETATM   13  C15 UNL     1      21.855  -1.303  54.175  1.00  0.00     0.039 A 
HETATM   14  C16 UNL     1      22.286  -0.158  53.515  1.00  0.00     0.086 A 
HETATM   15  O1  UNL     1      23.641   0.064  53.667  1.00  0.00    -0.290 OA
HETATM   16  H8  UNL     1      22.666   3.633  52.093  1.00  0.00     0.160 HD
ENDROOT
BRANCH   1  17
HETATM   17  N1  UNL     1      25.329   2.916  50.568  1.00  0.00    -0.406 NA
BRANCH  17  18
HETATM   18  C5  UNL     1      25.509   4.022  49.924  1.00  0.00     0.295 C 
BRANCH  18  19
HETATM   19  C4  UNL     1      25.516   5.325  49.282  1.00  0.00     0.028 C 
HETATM   20  C3  UNL     1      26.602   5.716  48.662  1.00  0.00     0.020 C 
HETATM   21 BR1  UNL     1      23.740   5.486  49.902  1.00  0.00    -0.050 Br
BRANCH  20  22
HETATM   22  C2  UNL     1      27.793   4.898  48.595  1.00  0.00    -0.009 C 
HETATM   23  C1  UNL     1      28.845   5.607  48.315  1.00  0.00     0.011 C 
ENDBRANCH  20  22
ENDBRANCH  18  19
ENDBRANCH  17  18
ENDBRANCH   1  17
TORSDOF 4
ENDMDL
MODEL 5
REMARK VINA RESULT:      -7.1      2.568      7.521
REMARK  4 active torsions:
REMARK  status: ('A' for Active; 'I' for Inactive)
REMARK    1  A    between atoms: C2_2  and  C3_3 
REMARK    2  A    between atoms: C4_4  and  C5_6 
REMARK    3  A    between atoms: C5_6  and  N1_7 
REMARK    4  A    between atoms: N1_7  and  C6_8 
ROOT
HETATM    1  C6  UNL     1      21.690   1.371  52.689  1.00  0.00     0.166 A 
HETATM    2  C7  UNL     1      21.739   2.797  52.264  1.00  0.00     0.123 A 
HETATM    3  N2  UNL     1      22.960   3.272  52.321  1.00  0.00    -0.237 NA
HETATM    4  C8  UNL     1      23.805   2.200  52.787  1.00  0.00     0.194 A 
HETATM    5  C9  UNL     1      23.106   1.097  53.007  1.00  0.00     0.086 A 
HETATM    6  N3  UNL     1      23.649  -0.136  53.473  1.00  0.00    -0.383 N 
HETATM    7  C10 UNL     1      24.956  -0.739  53.336  1.00  0.00     0.161 C 
HETATM    8  C11 UNL     1      26.068   0.211  53.286  1.00  0.00    -0.005 A 
HETATM    9  C12 UNL     1      27.208  -0.541  53.459  1.00  0.00     0.030 A 
HETATM   10  C13 UNL     1      28.482   0.007  53.471  1.00  0.00     0.011 A 
HETATM   11 BR2  UNL     1      30.073  -1.034  53.714  1.00  0.00    -0.051 Br
HETATM   12  C14 UNL     1      28.537   1.394  53.292  1.00  0.00     0.022 A 
HETATM   13  C15 UNL     1      27.426   2.190  53.115  1.00  0.00     0.039 A 
HETATM   14  C16 UNL     1      26.180   1.574  53.114  1.00  0.00     0.086 A 
HETATM   15  O1  UNL     1      25.146   2.470  52.928  1.00  0.00    -0.290 OA
HETATM   16  H8  UNL     1      22.938  -0.706  54.026  1.00  0.00     0.160 HD
ENDROOT
BRANCH   1  17
HETATM   17  N1  UNL     1      21.286   0.478  51.618  1.00  0.00    -0.406 NA
BRANCH  17  18
HETATM   18  C5  UNL     1      20.593   0.866  50.598  1.00  0.00     0.295 C 
BRANCH  18  19
HETATM   19  C4  UNL     1      19.997   1.407  49.388  1.00  0.00     0.028 C 
HETATM   20  C3  UNL     1      20.786   1.876  48.454  1.00  0.00     0.020 C 
HETATM   21 BR1  UNL     1      18.337   0.970  50.176  1.00  0.00    -0.050 Br
BRANCH  20  22
HETATM   22  C2  UNL     1      22.226   1.875  48.583  1.00  0.00    -0.009 C 
HETATM   23  C1  UNL     1      22.718   3.073  48.472  1.00  0.00     0.011 C 
ENDBRANCH  20  22
ENDBRANCH  18  19
ENDBRANCH  17  18
ENDBRANCH   1  17
TORSDOF 4
ENDMDL
MODEL 6
REMARK VINA RESULT:      -7.1      1.609      2.243
REMARK  4 active torsions:
REMARK  status: ('A' for Active; 'I' for Inactive)
REMARK    1  A    between atoms: C2_2  and  C3_3 
REMARK    2  A    between atoms: C4_4  and  C5_6 
REMARK    3  A    between atoms: C5_6  and  N1_7 
REMARK    4  A    between atoms: N1_7  and  C6_8 
ROOT
HETATM    1  C6  UNL     1      22.430  -0.067  54.082  1.00  0.00     0.166 A 
HETATM    2  C7  UNL     1      22.509  -1.295  54.920  1.00  0.00     0.123 A 
HETATM    3  N2  UNL     1      21.373  -1.951  54.918  1.00  0.00    -0.237 NA
HETATM    4  C8  UNL     1      20.463  -1.207  54.082  1.00  0.00     0.194 A 
HETATM    5  C9  UNL     1      21.039  -0.122  53.589  1.00  0.00     0.086 A 
HETATM    6  N3  UNL     1      20.404   0.821  52.728  1.00  0.00    -0.383 N 
HETATM    7  C10 UNL     1      19.333   0.695  51.765  1.00  0.00     0.161 C 
HETATM    8  C11 UNL     1      18.320  -0.306  52.102  1.00  0.00    -0.005 A 
HETATM    9  C12 UNL     1      17.264  -0.067  51.252  1.00  0.00     0.030 A 
HETATM   10  C13 UNL     1      16.098  -0.818  51.264  1.00  0.00     0.011 A 
HETATM   11 BR2  UNL     1      14.623  -0.488  50.085  1.00  0.00    -0.051 Br
HETATM   12  C14 UNL     1      16.062  -1.851  52.207  1.00  0.00     0.022 A 
HETATM   13  C15 UNL     1      17.092  -2.131  53.078  1.00  0.00     0.039 A 
HETATM   14  C16 UNL     1      18.232  -1.337  53.012  1.00  0.00     0.086 A 
HETATM   15  O1  UNL     1      19.192  -1.712  53.931  1.00  0.00    -0.290 OA
HETATM   16  H8  UNL     1      20.814   1.799  52.831  1.00  0.00     0.160 HD
ENDROOT
BRANCH   1  17
HETATM   17  N1  UNL     1      23.319  -0.110  52.935  1.00  0.00    -0.406 NA
BRANCH  17  18
HETATM   18  C5  UNL     1      24.384   0.616  52.840  1.00  0.00     0.295 C 
BRANCH  18  19
HETATM   19  C4  UNL     1      25.505   1.489  52.535  1.00  0.00     0.028 C 
HETATM   20  C3  UNL     1      26.658   0.949  52.228  1.00  0.00     0.020 C 
HETATM   21 BR1  UNL     1      24.303   2.912  52.848  1.00  0.00    -0.050 Br
BRANCH  20  22
HETATM   22  C2  UNL     1      26.856  -0.483  52.184  1.00  0.00    -0.009 C 
HETATM   23  C1  UNL     1      27.783  -0.864  53.010  1.00  0.00     0.011 C 
ENDBRANCH  20  22
ENDBRANCH  18  19
ENDBRANCH  17  18
ENDBRANCH   1  17
TORSDOF 4
ENDMDL
MODEL 7
REMARK VINA RESULT:      -6.9      5.233      7.914
REMARK  4 active torsions:
REMARK  status: ('A' for Active; 'I' for Inactive)
REMARK    1  A    between atoms: C2_2  and  C3_3 
REMARK    2  A    between atoms: C4_4  and  C5_6 
REMARK    3  A    between atoms: C5_6  and  N1_7 
REMARK    4  A    between atoms: N1_7  and  C6_8 
ROOT
HETATM    1  C6  UNL     1      24.927   1.721  51.591  1.00  0.00     0.166 A 
HETATM    2  C7  UNL     1      26.329   1.468  52.020  1.00  0.00     0.123 A 
HETATM    3  N2  UNL     1      27.168   2.283  51.426  1.00  0.00    -0.237 NA
HETATM    4  C8  UNL     1      26.383   3.131  50.562  1.00  0.00     0.194 A 
HETATM    5  C9  UNL     1      25.096   2.833  50.634  1.00  0.00     0.086 A 
HETATM    6  N3  UNL     1      24.062   3.489  49.902  1.00  0.00    -0.383 N 
HETATM    7  C10 UNL     1      23.939   4.831  49.380  1.00  0.00     0.161 C 
HETATM    8  C11 UNL     1      25.199   5.443  48.958  1.00  0.00    -0.005 A 
HETATM    9  C12 UNL     1      24.845   6.559  48.232  1.00  0.00     0.030 A 
HETATM   10  C13 UNL     1      25.774   7.413  47.656  1.00  0.00     0.011 A 
HETATM   11 BR2  UNL     1      25.289   8.966  46.642  1.00  0.00    -0.051 Br
HETATM   12  C14 UNL     1      27.114   7.066  47.864  1.00  0.00     0.022 A 
HETATM   13  C15 UNL     1      27.519   5.962  48.582  1.00  0.00     0.039 A 
HETATM   14  C16 UNL     1      26.534   5.148  49.131  1.00  0.00     0.086 A 
HETATM   15  O1  UNL     1      27.059   4.077  49.827  1.00  0.00    -0.290 OA
HETATM   16  H8  UNL     1      23.232   2.847  49.715  1.00  0.00     0.160 HD
ENDROOT
BRANCH   1  17
HETATM   17  N1  UNL     1      24.080   2.182  52.676  1.00  0.00    -0.406 NA
BRANCH  17  18
HETATM   18  C5  UNL     1      22.870   1.763  52.854  1.00  0.00     0.295 C 
BRANCH  18  19
HETATM   19  C4  UNL     1      21.475   1.358  52.845  1.00  0.00     0.028 C 
HETATM   20  C3  UNL     1      21.174   0.129  53.186  1.00  0.00     0.020 C 
HETATM   21 BR1  UNL     1      21.109   3.123  52.285  1.00  0.00    -0.050 Br
BRANCH  20  22
HETATM   22  C2  UNL     1      22.179  -0.837  53.567  1.00  0.00    -0.009 C 
HETATM   23  C1  UNL     1      21.796  -1.552  54.583  1.00  0.00     0.011 C 
ENDBRANCH  20  22
ENDBRANCH  18  19
ENDBRANCH  17  18
ENDBRANCH   1  17
TORSDOF 4
ENDMDL
MODEL 8
REMARK VINA RESULT:      -6.9      3.224      4.776
REMARK  4 active torsions:
REMARK  status: ('A' for Active; 'I' for Inactive)
REMARK    1  A    between atoms: C2_2  and  C3_3 
REMARK    2  A    between atoms: C4_4  and  C5_6 
REMARK    3  A    between atoms: C5_6  and  N1_7 
REMARK    4  A    between atoms: N1_7  and  C6_8 
ROOT
HETATM    1  C6  UNL     1      26.178   2.552  51.961  1.00  0.00     0.166 A 
HETATM    2  C7  UNL     1      27.166   1.609  52.552  1.00  0.00     0.123 A 
HETATM    3  N2  UNL     1      26.572   0.638  53.204  1.00  0.00    -0.237 NA
HETATM    4  C8  UNL     1      25.152   0.868  53.092  1.00  0.00     0.194 A 
HETATM    5  C9  UNL     1      24.894   1.957  52.385  1.00  0.00     0.086 A 
HETATM    6  N3  UNL     1      23.590   2.455  52.096  1.00  0.00    -0.383 N 
HETATM    7  C10 UNL     1      22.308   1.802  51.951  1.00  0.00     0.161 C 
HETATM    8  C11 UNL     1      22.123   0.619  52.792  1.00  0.00    -0.005 A 
HETATM    9  C12 UNL     1      20.778   0.332  52.739  1.00  0.00     0.030 A 
HETATM   10  C13 UNL     1      20.204  -0.734  53.417  1.00  0.00     0.011 A 
HETATM   11 BR2  UNL     1      18.332  -1.138  53.351  1.00  0.00    -0.051 Br
HETATM   12  C14 UNL     1      21.093  -1.512  54.167  1.00  0.00     0.022 A 
HETATM   13  C15 UNL     1      22.446  -1.267  54.251  1.00  0.00     0.039 A 
HETATM   14  C16 UNL     1      22.954  -0.181  53.547  1.00  0.00     0.086 A 
HETATM   15  O1  UNL     1      24.318  -0.036  53.707  1.00  0.00    -0.290 OA
HETATM   16  H8  UNL     1      23.582   3.512  51.965  1.00  0.00     0.160 HD
ENDROOT
BRANCH   1  17
HETATM   17  N1  UNL     1      26.212   2.567  50.509  1.00  0.00    -0.406 NA
BRANCH  17  18
HETATM   18  C5  UNL     1      26.178   3.655  49.813  1.00  0.00     0.295 C 
BRANCH  18  19
HETATM   19  C4  UNL     1      25.921   4.854  49.033  1.00  0.00     0.028 C 
HETATM   20  C3  UNL     1      24.687   5.276  48.915  1.00  0.00     0.020 C 
HETATM   21 BR1  UNL     1      27.788   4.902  48.750  1.00  0.00    -0.050 Br
BRANCH  20  22
HETATM   22  C2  UNL     1      23.572   4.591  49.530  1.00  0.00    -0.009 C 
HETATM   23  C1  UNL     1      22.777   4.075  48.641  1.00  0.00     0.011 C 
ENDBRANCH  20  22
ENDBRANCH  18  19
ENDBRANCH  17  18
ENDBRANCH   1  17
TORSDOF 4
ENDMDL
MODEL 9
REMARK VINA RESULT:      -6.9      4.564      7.203
REMARK  4 active torsions:
REMARK  status: ('A' for Active; 'I' for Inactive)
REMARK    1  A    between atoms: C2_2  and  C3_3 
REMARK    2  A    between atoms: C4_4  and  C5_6 
REMARK    3  A    between atoms: C5_6  and  N1_7 
REMARK    4  A    between atoms: N1_7  and  C6_8 
ROOT
HETATM    1  C6  UNL     1      23.180   4.633  50.513  1.00  0.00     0.166 A 
HETATM    2  C7  UNL     1      22.005   4.515  51.419  1.00  0.00     0.123 A 
HETATM    3  N2  UNL     1      22.128   3.495  52.234  1.00  0.00    -0.237 NA
HETATM    4  C8  UNL     1      23.389   2.864  51.926  1.00  0.00     0.194 A 
HETATM    5  C9  UNL     1      24.014   3.493  50.943  1.00  0.00     0.086 A 
HETATM    6  N3  UNL     1      25.281   3.116  50.407  1.00  0.00    -0.383 N 
HETATM    7  C10 UNL     1      26.420   2.439  50.983  1.00  0.00     0.161 C 
HETATM    8  C11 UNL     1      26.091   1.445  52.005  1.00  0.00    -0.005 A 
HETATM    9  C12 UNL     1      27.244   0.718  52.202  1.00  0.00     0.030 A 
HETATM   10  C13 UNL     1      27.333  -0.329  53.107  1.00  0.00     0.011 A 
HETATM   11 BR2  UNL     1      28.933  -1.347  53.384  1.00  0.00    -0.051 Br
HETATM   12  C14 UNL     1      26.161  -0.604  53.820  1.00  0.00     0.022 A 
HETATM   13  C15 UNL     1      24.983   0.095  53.661  1.00  0.00     0.039 A 
HETATM   14  C16 UNL     1      24.965   1.132  52.735  1.00  0.00     0.086 A 
HETATM   15  O1  UNL     1      23.735   1.756  52.663  1.00  0.00    -0.290 OA
HETATM   16  H8  UNL     1      25.385   3.398  49.384  1.00  0.00     0.160 HD
ENDROOT
BRANCH   1  17
HETATM   17  N1  UNL     1      23.936   5.854  50.726  1.00  0.00    -0.406 NA
BRANCH  17  18
HETATM   18  C5  UNL     1      24.610   6.439  49.791  1.00  0.00     0.295 C 
BRANCH  18  19
HETATM   19  C4  UNL     1      25.391   7.262  48.883  1.00  0.00     0.028 C 
HETATM   20  C3  UNL     1      26.503   6.775  48.390  1.00  0.00     0.020 C 
HETATM   21 BR1  UNL     1      24.048   8.566  49.131  1.00  0.00    -0.050 Br
BRANCH  20  22
HETATM   22  C2  UNL     1      26.981   5.450  48.717  1.00  0.00    -0.009 C 
HETATM   23  C1  UNL     1      28.234   5.302  48.406  1.00  0.00     0.011 C 
ENDBRANCH  20  22
ENDBRANCH  18  19
ENDBRANCH  17  18
ENDBRANCH   1  17
TORSDOF 4
ENDMDL
