MODEL 1
REMARK VINA RESULT:      -6.9      0.000      0.000
REMARK  8 active torsions:
REMARK  status: ('A' for Active; 'I' for Inactive)
REMARK    1  A    between atoms: C4_5  and  O1_6 
REMARK    2  A    between atoms: O1_6  and  C5_7 
REMARK    3  A    between atoms: C5_7  and  C6_8 
REMARK    4  A    between atoms: C11_14  and  N3_15 
REMARK    5  A    between atoms: N3_15  and  C12_16 
REMARK    6  A    between atoms: C13_17  and  C14_18 
REMARK    7  A    between atoms: C15_19  and  N4_20 
REMARK    8  A    between atoms: C15_19  and  C16_21 
ROOT
HETATM    1  C6  UNL     1      22.859   1.128  52.141  1.00  0.00    -0.004 C 
HETATM    2  C7  UNL     1      21.894   0.281  51.829  1.00  0.00     0.014 C 
HETATM    3  C8  UNL     1      20.863   0.499  50.837  1.00  0.00     0.034 C 
HETATM    4  C9  UNL     1      20.671   1.743  50.463  1.00  0.00     0.086 C 
HETATM    5  N2  UNL     1      21.701   2.509  50.350  1.00  0.00    -0.245 NA
HETATM    6  C10 UNL     1      22.760   2.371  51.323  1.00  0.00     0.081 C 
HETATM    7  C11 UNL     1      23.550   3.457  51.346  1.00  0.00     0.119 C 
ENDROOT
BRANCH   1   8
HETATM    8  C5  UNL     1      24.022   1.269  53.033  1.00  0.00     0.209 C 
BRANCH   8   9
HETATM    9  O1  UNL     1      25.153   0.600  52.689  1.00  0.00    -0.381 OA
BRANCH   9  10
HETATM   10  C4  UNL     1      25.333  -0.659  53.197  1.00  0.00     0.125 C 
HETATM   11  C3  UNL     1      25.581  -0.414  54.719  1.00  0.00     0.062 C 
HETATM   12  C2  UNL     1      26.971   0.106  54.928  1.00  0.00     0.274 C 
HETATM   13  N1  UNL     1      27.540   0.753  53.784  1.00  0.00     0.084 N 
HETATM   14  C1  UNL     1      28.904   1.124  54.112  1.00  0.00     0.309 C 
HETATM   15  C18 UNL     1      27.560   0.006  52.572  1.00  0.00     0.274 C 
HETATM   16  C17 UNL     1      26.665  -1.204  52.745  1.00  0.00     0.062 C 
ENDBRANCH   9  10
ENDBRANCH   8   9
ENDBRANCH   1   8
BRANCH   7  17
HETATM   17  N3  UNL     1      23.412   4.640  50.530  1.00  0.00    -0.373 N 
HETATM   18  H14 UNL     1      23.353   4.522  49.497  1.00  0.00     0.164 HD
BRANCH  17  19
HETATM   19  C12 UNL     1      23.374   5.830  51.308  1.00  0.00     0.088 C 
HETATM   20  C13 UNL     1      24.291   6.704  50.923  1.00  0.00     0.019 C 
BRANCH  20  21
HETATM   21  C14 UNL     1      25.179   6.374  49.817  1.00  0.00     0.027 C 
HETATM   22  C15 UNL     1      26.280   7.064  49.641  1.00  0.00     0.016 C 
BRANCH  22  23
HETATM   23  N4  UNL     1      26.617   8.136  50.525  1.00  0.00    -0.401 N 
HETATM   24  H18 UNL     1      26.694   9.176  50.714  1.00  0.00     0.156 HD
HETATM   25  H19 UNL     1      26.978   8.226  51.497  1.00  0.00     0.156 HD
ENDBRANCH  22  23
BRANCH  22  26
HETATM   26  C16 UNL     1      27.221   6.770  48.529  1.00  0.00     0.171 C 
HETATM   27 CL1  UNL     1      27.669   5.044  48.528  1.00  0.00    -0.124 Cl
ENDBRANCH  22  26
ENDBRANCH  20  21
ENDBRANCH  17  19
ENDBRANCH   7  17
TORSDOF 8
ENDMDL
MODEL 2
REMARK VINA RESULT:      -6.9      1.652      1.939
REMARK  8 active torsions:
REMARK  status: ('A' for Active; 'I' for Inactive)
REMARK    1  A    between atoms: C4_5  and  O1_6 
REMARK    2  A    between atoms: O1_6  and  C5_7 
REMARK    3  A    between atoms: C5_7  and  C6_8 
REMARK    4  A    between atoms: C11_14  and  N3_15 
REMARK    5  A    between atoms: N3_15  and  C12_16 
REMARK    6  A    between atoms: C13_17  and  C14_18 
REMARK    7  A    between atoms: C15_19  and  N4_20 
REMARK    8  A    between atoms: C15_19  and  C16_21 
ROOT
HETATM    1  C6  UNL     1      23.219   1.335  52.087  1.00  0.00    -0.004 C 
HETATM    2  C7  UNL     1      22.125   0.624  51.876  1.00  0.00     0.014 C 
HETATM    3  C8  UNL     1      21.366   0.583  50.645  1.00  0.00     0.034 C 
HETATM    4  C9  UNL     1      21.579   1.564  49.798  1.00  0.00     0.086 C 
HETATM    5  N2  UNL     1      22.781   2.011  49.677  1.00  0.00    -0.245 NA
HETATM    6  C10 UNL     1      23.592   2.110  50.869  1.00  0.00     0.081 C 
HETATM    7  C11 UNL     1      24.631   2.942  50.687  1.00  0.00     0.119 C 
ENDROOT
BRANCH   1   8
HETATM    8  C5  UNL     1      24.217   1.629  53.129  1.00  0.00     0.209 C 
BRANCH   8   9
HETATM    9  O1  UNL     1      25.374   0.917  53.101  1.00  0.00    -0.381 OA
BRANCH   9  10
HETATM   10  C4  UNL     1      25.376  -0.326  53.675  1.00  0.00     0.125 C 
HETATM   11  C3  UNL     1      26.014  -0.085  55.080  1.00  0.00     0.062 C 
HETATM   12  C2  UNL     1      27.495   0.094  54.940  1.00  0.00     0.274 C 
HETATM   13  N1  UNL     1      27.919   0.536  53.644  1.00  0.00     0.084 N 
HETATM   14  C1  UNL     1      29.369   0.580  53.639  1.00  0.00     0.309 C 
HETATM   15  C18 UNL     1      27.492  -0.244  52.532  1.00  0.00     0.274 C 
HETATM   16  C17 UNL     1      26.411  -1.194  53.005  1.00  0.00     0.062 C 
ENDBRANCH   9  10
ENDBRANCH   8   9
ENDBRANCH   1   8
BRANCH   7  17
HETATM   17  N3  UNL     1      24.950   3.671  49.484  1.00  0.00    -0.373 N 
HETATM   18  H14 UNL     1      24.175   3.904  48.829  1.00  0.00     0.164 HD
BRANCH  17  19
HETATM   19  C12 UNL     1      26.338   3.970  49.386  1.00  0.00     0.088 C 
HETATM   20  C13 UNL     1      26.551   5.238  49.069  1.00  0.00     0.019 C 
BRANCH  20  21
HETATM   21  C14 UNL     1      25.418   6.130  48.870  1.00  0.00     0.027 C 
HETATM   22  C15 UNL     1      25.275   7.181  49.641  1.00  0.00     0.016 C 
BRANCH  22  23
HETATM   23  N4  UNL     1      26.222   7.458  50.676  1.00  0.00    -0.401 N 
HETATM   24  H18 UNL     1      26.600   7.263  51.647  1.00  0.00     0.156 HD
HETATM   25  H19 UNL     1      27.028   8.104  50.806  1.00  0.00     0.156 HD
ENDBRANCH  22  23
BRANCH  22  26
HETATM   26  C16 UNL     1      24.137   8.123  49.482  1.00  0.00     0.171 C 
HETATM   27 CL1  UNL     1      22.814   7.701  50.601  1.00  0.00    -0.124 Cl
ENDBRANCH  22  26
ENDBRANCH  20  21
ENDBRANCH  17  19
ENDBRANCH   7  17
TORSDOF 8
ENDMDL
MODEL 3
REMARK VINA RESULT:      -6.7      3.109      6.077
REMARK  8 active torsions:
REMARK  status: ('A' for Active; 'I' for Inactive)
REMARK    1  A    between atoms: C4_5  and  O1_6 
REMARK    2  A    between atoms: O1_6  and  C5_7 
REMARK    3  A    between atoms: C5_7  and  C6_8 
REMARK    4  A    between atoms: C11_14  and  N3_15 
REMARK    5  A    between atoms: N3_15  and  C12_16 
REMARK    6  A    between atoms: C13_17  and  C14_18 
REMARK    7  A    between atoms: C15_19  and  N4_20 
REMARK    8  A    between atoms: C15_19  and  C16_21 
ROOT
HETATM    1  C6  UNL     1      21.479   0.019  52.414  1.00  0.00    -0.004 C 
HETATM    2  C7  UNL     1      20.710  -0.629  53.271  1.00  0.00     0.014 C 
HETATM    3  C8  UNL     1      21.135  -1.187  54.537  1.00  0.00     0.034 C 
HETATM    4  C9  UNL     1      22.428  -1.355  54.693  1.00  0.00     0.086 C 
HETATM    5  N2  UNL     1      23.219  -0.465  54.202  1.00  0.00    -0.245 NA
HETATM    6  C10 UNL     1      22.877   0.116  52.923  1.00  0.00     0.081 C 
HETATM    7  C11 UNL     1      23.944   0.696  52.347  1.00  0.00     0.119 C 
ENDROOT
BRANCH   1   8
HETATM    8  C5  UNL     1      21.430   0.695  51.106  1.00  0.00     0.209 C 
BRANCH   8   9
HETATM    9  O1  UNL     1      21.113   2.016  51.101  1.00  0.00    -0.381 OA
BRANCH   9  10
HETATM   10  C4  UNL     1      21.147   2.678  49.904  1.00  0.00     0.125 C 
HETATM   11  C3  UNL     1      22.666   2.722  49.545  1.00  0.00     0.062 C 
HETATM   12  C2  UNL     1      23.355   3.754  50.385  1.00  0.00     0.274 C 
HETATM   13  N1  UNL     1      22.687   4.060  51.615  1.00  0.00     0.084 N 
HETATM   14  C1  UNL     1      23.422   5.126  52.271  1.00  0.00     0.309 C 
HETATM   15  C18 UNL     1      21.321   4.453  51.520  1.00  0.00     0.274 C 
HETATM   16  C17 UNL     1      20.833   4.138  50.121  1.00  0.00     0.062 C 
ENDBRANCH   9  10
ENDBRANCH   8   9
ENDBRANCH   1   8
BRANCH   7  17
HETATM   17  N3  UNL     1      25.282   0.763  52.884  1.00  0.00    -0.373 N 
HETATM   18  H14 UNL     1      25.768  -0.129  53.109  1.00  0.00     0.164 HD
BRANCH  17  19
HETATM   19  C12 UNL     1      25.741   2.103  53.022  1.00  0.00     0.088 C 
HETATM   20  C13 UNL     1      27.041   2.159  53.268  1.00  0.00     0.019 C 
BRANCH  20  21
HETATM   21  C14 UNL     1      27.809   0.925  53.363  1.00  0.00     0.027 C 
HETATM   22  C15 UNL     1      28.983   0.935  53.946  1.00  0.00     0.016 C 
BRANCH  22  23
HETATM   23  N4  UNL     1      29.516   2.146  54.488  1.00  0.00    -0.401 N 
HETATM   24  H18 UNL     1      30.136   3.000  54.386  1.00  0.00     0.156 HD
HETATM   25  H19 UNL     1      29.422   2.679  55.378  1.00  0.00     0.156 HD
ENDBRANCH  22  23
BRANCH  22  26
HETATM   26  C16 UNL     1      29.808  -0.294  54.069  1.00  0.00     0.171 C 
HETATM   27 CL1  UNL     1      29.065  -1.640  53.166  1.00  0.00    -0.124 Cl
ENDBRANCH  22  26
ENDBRANCH  20  21
ENDBRANCH  17  19
ENDBRANCH   7  17
TORSDOF 8
ENDMDL
MODEL 4
REMARK VINA RESULT:      -6.7      2.349      3.341
REMARK  8 active torsions:
REMARK  status: ('A' for Active; 'I' for Inactive)
REMARK    1  A    between atoms: C4_5  and  O1_6 
REMARK    2  A    between atoms: O1_6  and  C5_7 
REMARK    3  A    between atoms: C5_7  and  C6_8 
REMARK    4  A    between atoms: C11_14  and  N3_15 
REMARK    5  A    between atoms: N3_15  and  C12_16 
REMARK    6  A    between atoms: C13_17  and  C14_18 
REMARK    7  A    between atoms: C15_19  and  N4_20 
REMARK    8  A    between atoms: C15_19  and  C16_21 
ROOT
HETATM    1  C6  UNL     1      24.858   2.527  51.572  1.00  0.00    -0.004 C 
HETATM    2  C7  UNL     1      23.735   2.752  52.233  1.00  0.00     0.014 C 
HETATM    3  C8  UNL     1      22.985   3.989  52.229  1.00  0.00     0.034 C 
HETATM    4  C9  UNL     1      23.627   5.058  51.817  1.00  0.00     0.086 C 
HETATM    5  N2  UNL     1      24.459   4.928  50.842  1.00  0.00    -0.245 NA
HETATM    6  C10 UNL     1      25.268   3.731  50.795  1.00  0.00     0.081 C 
HETATM    7  C11 UNL     1      26.342   3.896  50.004  1.00  0.00     0.119 C 
ENDROOT
BRANCH   1   8
HETATM    8  C5  UNL     1      25.860   1.474  51.332  1.00  0.00     0.209 C 
BRANCH   8   9
HETATM    9  O1  UNL     1      26.424   0.893  52.422  1.00  0.00    -0.381 OA
BRANCH   9  10
HETATM   10  C4  UNL     1      26.623   1.670  53.532  1.00  0.00     0.125 C 
HETATM   11  C3  UNL     1      28.037   2.291  53.302  1.00  0.00     0.062 C 
HETATM   12  C2  UNL     1      29.092   1.260  53.565  1.00  0.00     0.274 C 
HETATM   13  N1  UNL     1      28.645  -0.095  53.428  1.00  0.00     0.084 N 
HETATM   14  C1  UNL     1      29.745  -0.968  53.793  1.00  0.00     0.309 C 
HETATM   15  C18 UNL     1      27.503  -0.471  54.192  1.00  0.00     0.274 C 
HETATM   16  C17 UNL     1      26.858   0.789  54.733  1.00  0.00     0.062 C 
ENDBRANCH   9  10
ENDBRANCH   8   9
ENDBRANCH   1   8
BRANCH   7  17
HETATM   17  N3  UNL     1      26.696   5.087  49.270  1.00  0.00    -0.373 N 
HETATM   18  H14 UNL     1      26.056   5.906  49.321  1.00  0.00     0.164 HD
BRANCH  17  19
HETATM   19  C12 UNL     1      27.923   4.941  48.565  1.00  0.00     0.088 C 
HETATM   20  C13 UNL     1      28.390   6.103  48.135  1.00  0.00     0.019 C 
BRANCH  20  21
HETATM   21  C14 UNL     1      27.645   7.324  48.413  1.00  0.00     0.027 C 
HETATM   22  C15 UNL     1      28.245   8.329  49.004  1.00  0.00     0.016 C 
BRANCH  22  23
HETATM   23  N4  UNL     1      29.621   8.238  49.378  1.00  0.00    -0.401 N 
HETATM   24  H18 UNL     1      30.502   8.698  49.746  1.00  0.00     0.156 HD
HETATM   25  H19 UNL     1      30.347   7.491  49.404  1.00  0.00     0.156 HD
ENDBRANCH  22  23
BRANCH  22  26
HETATM   26  C16 UNL     1      27.533   9.596  49.311  1.00  0.00     0.171 C 
HETATM   27 CL1  UNL     1      25.932   9.258  50.021  1.00  0.00    -0.124 Cl
ENDBRANCH  22  26
ENDBRANCH  20  21
ENDBRANCH  17  19
ENDBRANCH   7  17
TORSDOF 8
ENDMDL
MODEL 5
REMARK VINA RESULT:      -6.7      1.758      2.498
REMARK  8 active torsions:
REMARK  status: ('A' for Active; 'I' for Inactive)
REMARK    1  A    between atoms: C4_5  and  O1_6 
REMARK    2  A    between atoms: O1_6  and  C5_7 
REMARK    3  A    between atoms: C5_7  and  C6_8 
REMARK    4  A    between atoms: C11_14  and  N3_15 
REMARK    5  A    between atoms: N3_15  and  C12_16 
REMARK    6  A    between atoms: C13_17  and  C14_18 
REMARK    7  A    between atoms: C15_19  and  N4_20 
REMARK    8  A    between atoms: C15_19  and  C16_21 
ROOT
HETATM    1  C6  UNL     1      23.351  -0.209  53.973  1.00  0.00    -0.004 C 
HETATM    2  C7  UNL     1      22.569  -1.199  54.367  1.00  0.00     0.014 C 
HETATM    3  C8  UNL     1      21.182  -1.382  53.995  1.00  0.00     0.034 C 
HETATM    4  C9  UNL     1      20.566  -0.328  53.512  1.00  0.00     0.086 C 
HETATM    5  N2  UNL     1      21.231   0.464  52.744  1.00  0.00    -0.245 NA
HETATM    6  C10 UNL     1      22.616   0.721  53.069  1.00  0.00     0.081 C 
HETATM    7  C11 UNL     1      23.063   1.836  52.466  1.00  0.00     0.119 C 
ENDROOT
BRANCH   1   8
HETATM    8  C5  UNL     1      24.726   0.299  54.119  1.00  0.00     0.209 C 
BRANCH   8   9
HETATM    9  O1  UNL     1      25.739  -0.564  53.848  1.00  0.00    -0.381 OA
BRANCH   9  10
HETATM   10  C4  UNL     1      25.980  -0.878  52.537  1.00  0.00     0.125 C 
HETATM   11  C3  UNL     1      26.966  -2.086  52.620  1.00  0.00     0.062 C 
HETATM   12  C2  UNL     1      28.336  -1.597  52.982  1.00  0.00     0.274 C 
HETATM   13  N1  UNL     1      28.354  -0.341  53.671  1.00  0.00     0.084 N 
HETATM   14  C1  UNL     1      29.740   0.036  53.877  1.00  0.00     0.309 C 
HETATM   15  C18 UNL     1      27.685   0.745  53.037  1.00  0.00     0.274 C 
HETATM   16  C17 UNL     1      26.841   0.189  51.908  1.00  0.00     0.062 C 
ENDBRANCH   9  10
ENDBRANCH   8   9
ENDBRANCH   1   8
BRANCH   7  17
HETATM   17  N3  UNL     1      22.308   2.706  51.596  1.00  0.00    -0.373 N 
HETATM   18  H14 UNL     1      22.256   2.467  50.585  1.00  0.00     0.164 HD
BRANCH  17  19
HETATM   19  C12 UNL     1      21.729   3.799  52.298  1.00  0.00     0.088 C 
HETATM   20  C13 UNL     1      22.204   4.963  51.883  1.00  0.00     0.019 C 
BRANCH  20  21
HETATM   21  C14 UNL     1      23.202   4.995  50.821  1.00  0.00     0.027 C 
HETATM   22  C15 UNL     1      24.209   5.830  50.902  1.00  0.00     0.016 C 
BRANCH  22  23
HETATM   23  N4  UNL     1      24.337   6.710  52.022  1.00  0.00    -0.401 N 
HETATM   24  H18 UNL     1      24.502   6.854  53.059  1.00  0.00     0.156 HD
HETATM   25  H19 UNL     1      24.295   7.738  52.181  1.00  0.00     0.156 HD
ENDBRANCH  22  23
BRANCH  22  26
HETATM   26  C16 UNL     1      25.254   5.905  49.848  1.00  0.00     0.171 C 
HETATM   27 CL1  UNL     1      26.157   4.370  49.753  1.00  0.00    -0.124 Cl
ENDBRANCH  22  26
ENDBRANCH  20  21
ENDBRANCH  17  19
ENDBRANCH   7  17
TORSDOF 8
ENDMDL
MODEL 6
REMARK VINA RESULT:      -6.7      3.832      7.121
REMARK  8 active torsions:
REMARK  status: ('A' for Active; 'I' for Inactive)
REMARK    1  A    between atoms: C4_5  and  O1_6 
REMARK    2  A    between atoms: O1_6  and  C5_7 
REMARK    3  A    between atoms: C5_7  and  C6_8 
REMARK    4  A    between atoms: C11_14  and  N3_15 
REMARK    5  A    between atoms: N3_15  and  C12_16 
REMARK    6  A    between atoms: C13_17  and  C14_18 
REMARK    7  A    between atoms: C15_19  and  N4_20 
REMARK    8  A    between atoms: C15_19  and  C16_21 
ROOT
HETATM    1  C6  UNL     1      21.240   1.040  53.181  1.00  0.00    -0.004 C 
HETATM    2  C7  UNL     1      20.721   0.250  54.105  1.00  0.00     0.014 C 
HETATM    3  C8  UNL     1      21.438  -0.755  54.860  1.00  0.00     0.034 C 
HETATM    4  C9  UNL     1      22.592  -1.140  54.365  1.00  0.00     0.086 C 
HETATM    5  N2  UNL     1      23.337  -0.252  53.803  1.00  0.00    -0.245 NA
HETATM    6  C10 UNL     1      22.695   0.768  53.006  1.00  0.00     0.081 C 
HETATM    7  C11 UNL     1      23.567   1.359  52.171  1.00  0.00     0.119 C 
ENDROOT
BRANCH   1   8
HETATM    8  C5  UNL     1      20.869   2.119  52.250  1.00  0.00     0.209 C 
BRANCH   8   9
HETATM    9  O1  UNL     1      19.683   1.998  51.599  1.00  0.00    -0.381 OA
BRANCH   9  10
HETATM   10  C4  UNL     1      19.593   1.071  50.596  1.00  0.00     0.125 C 
HETATM   11  C3  UNL     1      19.149   1.909  49.354  1.00  0.00     0.062 C 
HETATM   12  C2  UNL     1      17.695   2.250  49.468  1.00  0.00     0.274 C 
HETATM   13  N1  UNL     1      17.186   2.244  50.807  1.00  0.00     0.084 N 
HETATM   14  C1  UNL     1      15.761   2.508  50.746  1.00  0.00     0.309 C 
HETATM   15  C18 UNL     1      17.388   1.054  51.562  1.00  0.00     0.274 C 
HETATM   16  C17 UNL     1      18.391   0.189  50.825  1.00  0.00     0.062 C 
ENDBRANCH   9  10
ENDBRANCH   8   9
ENDBRANCH   1   8
BRANCH   7  17
HETATM   17  N3  UNL     1      24.972   1.058  52.039  1.00  0.00    -0.373 N 
HETATM   18  H14 UNL     1      25.297   0.103  52.293  1.00  0.00     0.164 HD
BRANCH  17  19
HETATM   19  C12 UNL     1      25.718   2.170  51.559  1.00  0.00     0.088 C 
HETATM   20  C13 UNL     1      26.987   2.115  51.933  1.00  0.00     0.019 C 
BRANCH  20  21
HETATM   21  C14 UNL     1      27.451   0.995  52.741  1.00  0.00     0.027 C 
HETATM   22  C15 UNL     1      28.366   1.193  53.659  1.00  0.00     0.016 C 
BRANCH  22  23
HETATM   23  N4  UNL     1      28.913   2.496  53.873  1.00  0.00    -0.401 N 
HETATM   24  H18 UNL     1      28.963   3.385  54.447  1.00  0.00     0.156 HD
HETATM   25  H19 UNL     1      29.609   3.108  53.397  1.00  0.00     0.156 HD
ENDBRANCH  22  23
BRANCH  22  26
HETATM   26  C16 UNL     1      28.875   0.086  54.511  1.00  0.00     0.171 C 
HETATM   27 CL1  UNL     1      30.094  -0.872  53.629  1.00  0.00    -0.124 Cl
ENDBRANCH  22  26
ENDBRANCH  20  21
ENDBRANCH  17  19
ENDBRANCH   7  17
TORSDOF 8
ENDMDL
MODEL 7
REMARK VINA RESULT:      -6.7      2.207      3.367
REMARK  8 active torsions:
REMARK  status: ('A' for Active; 'I' for Inactive)
REMARK    1  A    between atoms: C4_5  and  O1_6 
REMARK    2  A    between atoms: O1_6  and  C5_7 
REMARK    3  A    between atoms: C5_7  and  C6_8 
REMARK    4  A    between atoms: C11_14  and  N3_15 
REMARK    5  A    between atoms: N3_15  and  C12_16 
REMARK    6  A    between atoms: C13_17  and  C14_18 
REMARK    7  A    between atoms: C15_19  and  N4_20 
REMARK    8  A    between atoms: C15_19  and  C16_21 
ROOT
HETATM    1  C6  UNL     1      25.551   2.423  51.274  1.00  0.00    -0.004 C 
HETATM    2  C7  UNL     1      24.324   1.938  51.350  1.00  0.00     0.014 C 
HETATM    3  C8  UNL     1      23.229   2.261  50.461  1.00  0.00     0.034 C 
HETATM    4  C9  UNL     1      23.366   3.352  49.743  1.00  0.00     0.086 C 
HETATM    5  N2  UNL     1      24.536   3.633  49.284  1.00  0.00    -0.245 NA
HETATM    6  C10 UNL     1      25.679   3.367  50.127  1.00  0.00     0.081 C 
HETATM    7  C11 UNL     1      26.759   4.057  49.723  1.00  0.00     0.119 C 
ENDROOT
BRANCH   1   8
HETATM    8  C5  UNL     1      26.861   2.348  51.942  1.00  0.00     0.209 C 
BRANCH   8   9
HETATM    9  O1  UNL     1      26.937   1.610  53.081  1.00  0.00    -0.381 OA
BRANCH   9  10
HETATM   10  C4  UNL     1      27.828   0.571  53.113  1.00  0.00     0.125 C 
HETATM   11  C3  UNL     1      27.091  -0.574  52.348  1.00  0.00     0.062 C 
HETATM   12  C2  UNL     1      26.031  -1.168  53.225  1.00  0.00     0.274 C 
HETATM   13  N1  UNL     1      25.559  -0.296  54.259  1.00  0.00     0.084 N 
HETATM   14  C1  UNL     1      24.607  -1.034  55.067  1.00  0.00     0.309 C 
HETATM   15  C18 UNL     1      26.544   0.260  55.125  1.00  0.00     0.274 C 
HETATM   16  C17 UNL     1      27.908   0.013  54.512  1.00  0.00     0.062 C 
ENDBRANCH   9  10
ENDBRANCH   8   9
ENDBRANCH   1   8
BRANCH   7  17
HETATM   17  N3  UNL     1      26.832   4.962  48.601  1.00  0.00    -0.373 N 
HETATM   18  H14 UNL     1      27.065   4.570  47.666  1.00  0.00     0.164 HD
BRANCH  17  19
HETATM   19  C12 UNL     1      26.557   6.307  48.975  1.00  0.00     0.088 C 
HETATM   20  C13 UNL     1      27.527   7.132  48.611  1.00  0.00     0.019 C 
BRANCH  20  21
HETATM   21  C14 UNL     1      28.693   6.607  47.913  1.00  0.00     0.027 C 
HETATM   22  C15 UNL     1      29.892   6.998  48.269  1.00  0.00     0.016 C 
BRANCH  22  23
HETATM   23  N4  UNL     1      30.067   7.935  49.335  1.00  0.00    -0.401 N 
HETATM   24  H18 UNL     1      30.691   8.595  49.880  1.00  0.00     0.156 HD
HETATM   25  H19 UNL     1      29.468   8.348  50.080  1.00  0.00     0.156 HD
ENDBRANCH  22  23
BRANCH  22  26
HETATM   26  C16 UNL     1      31.115   6.495  47.590  1.00  0.00     0.171 C 
HETATM   27 CL1  UNL     1      31.119   4.712  47.548  1.00  0.00    -0.124 Cl
ENDBRANCH  22  26
ENDBRANCH  20  21
ENDBRANCH  17  19
ENDBRANCH   7  17
TORSDOF 8
ENDMDL
MODEL 8
REMARK VINA RESULT:      -6.7      2.331      5.339
REMARK  8 active torsions:
REMARK  status: ('A' for Active; 'I' for Inactive)
REMARK    1  A    between atoms: C4_5  and  O1_6 
REMARK    2  A    between atoms: O1_6  and  C5_7 
REMARK    3  A    between atoms: C5_7  and  C6_8 
REMARK    4  A    between atoms: C11_14  and  N3_15 
REMARK    5  A    between atoms: N3_15  and  C12_16 
REMARK    6  A    between atoms: C13_17  and  C14_18 
REMARK    7  A    between atoms: C15_19  and  N4_20 
REMARK    8  A    between atoms: C15_19  and  C16_21 
ROOT
HETATM    1  C6  UNL     1      25.073   1.454  52.148  1.00  0.00    -0.004 C 
HETATM    2  C7  UNL     1      25.603   0.883  53.215  1.00  0.00     0.014 C 
HETATM    3  C8  UNL     1      26.951   1.085  53.703  1.00  0.00     0.034 C 
HETATM    4  C9  UNL     1      27.805   1.602  52.850  1.00  0.00     0.086 C 
HETATM    5  N2  UNL     1      27.382   2.510  52.041  1.00  0.00    -0.245 NA
HETATM    6  C10 UNL     1      26.055   2.362  51.488  1.00  0.00     0.081 C 
HETATM    7  C11 UNL     1      25.895   3.116  50.387  1.00  0.00     0.119 C 
ENDROOT
BRANCH   1   8
HETATM    8  C5  UNL     1      23.822   1.506  51.373  1.00  0.00     0.209 C 
BRANCH   8   9
HETATM    9  O1  UNL     1      22.657   1.471  52.070  1.00  0.00    -0.381 OA
BRANCH   9  10
HETATM   10  C4  UNL     1      21.833   0.394  51.888  1.00  0.00     0.125 C 
HETATM   11  C3  UNL     1      21.264   0.600  50.447  1.00  0.00     0.062 C 
HETATM   12  C2  UNL     1      20.220   1.674  50.465  1.00  0.00     0.274 C 
HETATM   13  N1  UNL     1      20.337   2.599  51.553  1.00  0.00     0.084 N 
HETATM   14  C1  UNL     1      19.217   3.519  51.481  1.00  0.00     0.309 C 
HETATM   15  C18 UNL     1      20.376   2.043  52.863  1.00  0.00     0.274 C 
HETATM   16  C17 UNL     1      20.596   0.549  52.738  1.00  0.00     0.062 C 
ENDBRANCH   9  10
ENDBRANCH   8   9
ENDBRANCH   1   8
BRANCH   7  17
HETATM   17  N3  UNL     1      26.881   3.981  49.786  1.00  0.00    -0.373 N 
HETATM   18  H14 UNL     1      27.868   3.653  49.750  1.00  0.00     0.164 HD
BRANCH  17  19
HETATM   19  C12 UNL     1      26.315   5.199  49.318  1.00  0.00     0.088 C 
HETATM   20  C13 UNL     1      27.154   5.871  48.544  1.00  0.00     0.019 C 
BRANCH  20  21
HETATM   21  C14 UNL     1      28.477   5.326  48.275  1.00  0.00     0.027 C 
HETATM   22  C15 UNL     1      29.541   6.054  48.518  1.00  0.00     0.016 C 
BRANCH  22  23
HETATM   23  N4  UNL     1      29.412   7.377  49.044  1.00  0.00    -0.401 N 
HETATM   24  H18 UNL     1      29.160   8.024  49.846  1.00  0.00     0.156 HD
HETATM   25  H19 UNL     1      29.575   8.345  48.696  1.00  0.00     0.156 HD
ENDBRANCH  22  23
BRANCH  22  26
HETATM   26  C16 UNL     1      30.914   5.548  48.261  1.00  0.00     0.171 C 
HETATM   27 CL1  UNL     1      32.007   5.999  49.596  1.00  0.00    -0.124 Cl
ENDBRANCH  22  26
ENDBRANCH  20  21
ENDBRANCH  17  19
ENDBRANCH   7  17
TORSDOF 8
ENDMDL
MODEL 9
REMARK VINA RESULT:      -6.5      2.897      7.078
REMARK  8 active torsions:
REMARK  status: ('A' for Active; 'I' for Inactive)
REMARK    1  A    between atoms: C4_5  and  O1_6 
REMARK    2  A    between atoms: O1_6  and  C5_7 
REMARK    3  A    between atoms: C5_7  and  C6_8 
REMARK    4  A    between atoms: C11_14  and  N3_15 
REMARK    5  A    between atoms: N3_15  and  C12_16 
REMARK    6  A    between atoms: C13_17  and  C14_18 
REMARK    7  A    between atoms: C15_19  and  N4_20 
REMARK    8  A    between atoms: C15_19  and  C16_21 
ROOT
HETATM    1  C6  UNL     1      23.820   3.413  51.248  1.00  0.00    -0.004 C 
HETATM    2  C7  UNL     1      24.399   3.994  50.213  1.00  0.00     0.014 C 
HETATM    3  C8  UNL     1      25.731   3.714  49.720  1.00  0.00     0.034 C 
HETATM    4  C9  UNL     1      26.538   3.091  50.548  1.00  0.00     0.086 C 
HETATM    5  N2  UNL     1      26.040   2.178  51.308  1.00  0.00    -0.245 NA
HETATM    6  C10 UNL     1      24.724   2.400  51.864  1.00  0.00     0.081 C 
HETATM    7  C11 UNL     1      24.500   1.606  52.925  1.00  0.00     0.119 C 
ENDROOT
BRANCH   1   8
HETATM    8  C5  UNL     1      22.563   3.418  52.016  1.00  0.00     0.209 C 
BRANCH   8   9
HETATM    9  O1  UNL     1      21.535   2.674  51.530  1.00  0.00    -0.381 OA
BRANCH   9  10
HETATM   10  C4  UNL     1      21.515   2.409  50.187  1.00  0.00     0.125 C 
HETATM   11  C3  UNL     1      20.058   2.773  49.757  1.00  0.00     0.062 C 
HETATM   12  C2  UNL     1      19.115   1.699  50.206  1.00  0.00     0.274 C 
HETATM   13  N1  UNL     1      19.584   0.923  51.316  1.00  0.00     0.084 N 
HETATM   14  C1  UNL     1      18.609  -0.120  51.577  1.00  0.00     0.309 C 
HETATM   15  C18 UNL     1      20.863   0.312  51.173  1.00  0.00     0.274 C 
HETATM   16  C17 UNL     1      21.545   0.917  49.963  1.00  0.00     0.062 C 
ENDBRANCH   9  10
ENDBRANCH   8   9
ENDBRANCH   1   8
BRANCH   7  17
HETATM   17  N3  UNL     1      25.413   0.639  53.484  1.00  0.00    -0.373 N 
HETATM   18  H14 UNL     1      26.175   0.981  54.104  1.00  0.00     0.164 HD
BRANCH  17  19
HETATM   19  C12 UNL     1      25.104  -0.690  53.079  1.00  0.00     0.088 C 
HETATM   20  C13 UNL     1      26.195  -1.416  52.886  1.00  0.00     0.019 C 
BRANCH  20  21
HETATM   21  C14 UNL     1      27.505  -0.815  53.097  1.00  0.00     0.027 C 
HETATM   22  C15 UNL     1      28.558  -1.584  53.228  1.00  0.00     0.016 C 
BRANCH  22  23
HETATM   23  N4  UNL     1      28.433  -3.007  53.168  1.00  0.00    -0.401 N 
HETATM   24  H18 UNL     1      28.409  -3.901  52.598  1.00  0.00     0.156 HD
HETATM   25  H19 UNL     1      28.292  -3.781  53.850  1.00  0.00     0.156 HD
ENDBRANCH  22  23
BRANCH  22  26
HETATM   26  C16 UNL     1      29.917  -1.024  53.446  1.00  0.00     0.171 C 
HETATM   27 CL1  UNL     1      29.819   0.700  53.894  1.00  0.00    -0.124 Cl
ENDBRANCH  22  26
ENDBRANCH  20  21
ENDBRANCH  17  19
ENDBRANCH   7  17
TORSDOF 8
ENDMDL
