MODEL 1
REMARK VINA RESULT:      -7.5      0.000      0.000
REMARK  6 active torsions:
REMARK  status: ('A' for Active; 'I' for Inactive)
REMARK    1  A    between atoms: O1_2  and  C2_3 
REMARK    2  A    between atoms: C5_6  and  N1_7 
REMARK    3  A    between atoms: N1_7  and  S1_8 
REMARK    4  A    between atoms: S1_8  and  O2_9 
REMARK    5  A    between atoms: C7_12  and  N2_13 
REMARK    6  A    between atoms: N2_13  and  C8_14 
ROOT
HETATM    1  C2  UNL     1      24.966   2.973  51.125  1.00  0.00     0.095 A 
HETATM    2  C3  UNL     1      24.008   2.754  50.180  1.00  0.00     0.041 A 
HETATM    3  C4  UNL     1      22.914   1.970  50.455  1.00  0.00     0.035 A 
HETATM    4  C5  UNL     1      22.817   1.412  51.717  1.00  0.00     0.068 A 
HETATM    5  C6  UNL     1      23.813   1.665  52.635  1.00  0.00     0.065 A 
HETATM    6  C7  UNL     1      24.911   2.429  52.417  1.00  0.00     0.085 A 
ENDROOT
BRANCH   6   7
HETATM    7  N2  UNL     1      25.952   2.720  53.336  1.00  0.00    -0.186 N 
HETATM    8  H8  UNL     1      25.899   3.632  53.875  1.00  0.00     0.184 HD
BRANCH   7   9
HETATM    9  C8  UNL     1      27.055   1.878  53.589  1.00  0.00     0.724 C 
HETATM   10  N3  UNL     1      28.074   2.512  54.044  1.00  0.00    -0.086 NA
HETATM   11  C9  UNL     1      29.384   2.097  54.437  1.00  0.00     0.290 C 
HETATM   12  N4  UNL     1      29.908   0.929  53.818  1.00  0.00    -0.370 N 
HETATM   13  C10 UNL     1      29.204  -0.273  53.501  1.00  0.00     0.051 A 
HETATM   14  H11 UNL     1      30.938   0.915  53.548  1.00  0.00     0.161 HD
HETATM   15  C11 UNL     1      29.331  -1.567  53.282  1.00  0.00     0.011 A 
HETATM   16  C13 UNL     1      27.758  -0.466  53.263  1.00  0.00     0.083 A 
HETATM   17  C12 UNL     1      27.914  -1.939  53.018  1.00  0.00     0.092 A 
HETATM   18  N5  UNL     1      26.888   0.510  53.318  1.00  0.00    -0.065 NA
ENDBRANCH   7   9
ENDBRANCH   6   7
BRANCH   1  19
HETATM   19  O1  UNL     1      26.047   3.773  50.789  1.00  0.00    -0.354 OA
HETATM   20  C1  UNL     1      26.581   3.804  49.484  1.00  0.00     0.210 C 
ENDBRANCH   1  19
BRANCH   4  21
HETATM   21  N1  UNL     1      21.695   0.597  52.030  1.00  0.00    -0.203 NA
BRANCH  21  22
HETATM   22  S1  UNL     1      20.594   1.044  53.139  1.00  0.00     0.037 SA
HETATM   23  H6  UNL     1      19.245   1.193  52.663  1.00  0.00     0.147 HD
BRANCH  22  24
HETATM   24  O2  UNL     1      20.748   0.369  54.740  1.00  0.00    -0.231 OA
HETATM   25 BR1  UNL     1      21.944  -1.056  54.700  1.00  0.00     0.116 Br
ENDBRANCH  22  24
ENDBRANCH  21  22
ENDBRANCH   4  21
TORSDOF 6
ENDMDL
MODEL 2
REMARK VINA RESULT:      -7.3      1.543      1.543
REMARK  6 active torsions:
REMARK  status: ('A' for Active; 'I' for Inactive)
REMARK    1  A    between atoms: O1_2  and  C2_3 
REMARK    2  A    between atoms: C5_6  and  N1_7 
REMARK    3  A    between atoms: N1_7  and  S1_8 
REMARK    4  A    between atoms: S1_8  and  O2_9 
REMARK    5  A    between atoms: C7_12  and  N2_13 
REMARK    6  A    between atoms: N2_13  and  C8_14 
ROOT
HETATM    1  C2  UNL     1      24.871   2.844  51.144  1.00  0.00     0.095 A 
HETATM    2  C3  UNL     1      23.925   2.630  50.186  1.00  0.00     0.041 A 
HETATM    3  C4  UNL     1      22.809   1.876  50.455  1.00  0.00     0.035 A 
HETATM    4  C5  UNL     1      22.677   1.341  51.724  1.00  0.00     0.068 A 
HETATM    5  C6  UNL     1      23.663   1.587  52.655  1.00  0.00     0.065 A 
HETATM    6  C7  UNL     1      24.782   2.323  52.444  1.00  0.00     0.085 A 
ENDROOT
BRANCH   6   7
HETATM    7  N2  UNL     1      25.813   2.606  53.376  1.00  0.00    -0.186 N 
HETATM    8  H8  UNL     1      25.733   3.492  53.952  1.00  0.00     0.184 HD
BRANCH   7   9
HETATM    9  C8  UNL     1      26.940   1.785  53.596  1.00  0.00     0.724 C 
HETATM   10  N3  UNL     1      27.961   2.441  54.016  1.00  0.00    -0.086 NA
HETATM   11  C9  UNL     1      29.291   2.052  54.368  1.00  0.00     0.290 C 
HETATM   12  N4  UNL     1      29.817   0.893  53.737  1.00  0.00    -0.370 N 
HETATM   13  C10 UNL     1      29.126  -0.325  53.446  1.00  0.00     0.051 A 
HETATM   14  H11 UNL     1      30.838   0.897  53.433  1.00  0.00     0.161 HD
HETATM   15  C11 UNL     1      29.271  -1.617  53.228  1.00  0.00     0.011 A 
HETATM   16  C13 UNL     1      27.678  -0.546  53.256  1.00  0.00     0.083 A 
HETATM   17  C12 UNL     1      27.854  -2.017  53.012  1.00  0.00     0.092 A 
HETATM   18  N5  UNL     1      26.790   0.414  53.336  1.00  0.00    -0.065 NA
ENDBRANCH   7   9
ENDBRANCH   6   7
BRANCH   1  19
HETATM   19  O1  UNL     1      25.976   3.613  50.815  1.00  0.00    -0.354 OA
HETATM   20  C1  UNL     1      26.569   3.566  49.536  1.00  0.00     0.210 C 
ENDBRANCH   1  19
BRANCH   4  21
HETATM   21  N1  UNL     1      21.532   0.557  52.031  1.00  0.00    -0.203 NA
BRANCH  21  22
HETATM   22  S1  UNL     1      20.145   1.231  52.542  1.00  0.00     0.037 SA
HETATM   23  H6  UNL     1      19.359   0.442  53.453  1.00  0.00     0.147 HD
BRANCH  22  24
HETATM   24  O2  UNL     1      20.155   2.946  52.862  1.00  0.00    -0.231 OA
HETATM   25 BR1  UNL     1      19.671   3.867  51.319  1.00  0.00     0.116 Br
ENDBRANCH  22  24
ENDBRANCH  21  22
ENDBRANCH   4  21
TORSDOF 6
ENDMDL
MODEL 3
REMARK VINA RESULT:      -7.2      3.290      4.377
REMARK  6 active torsions:
REMARK  status: ('A' for Active; 'I' for Inactive)
REMARK    1  A    between atoms: O1_2  and  C2_3 
REMARK    2  A    between atoms: C5_6  and  N1_7 
REMARK    3  A    between atoms: N1_7  and  S1_8 
REMARK    4  A    between atoms: S1_8  and  O2_9 
REMARK    5  A    between atoms: C7_12  and  N2_13 
REMARK    6  A    between atoms: N2_13  and  C8_14 
ROOT
HETATM    1  C2  UNL     1      23.560   1.398  52.414  1.00  0.00     0.095 A 
HETATM    2  C3  UNL     1      22.801   1.522  51.288  1.00  0.00     0.041 A 
HETATM    3  C4  UNL     1      23.234   2.280  50.227  1.00  0.00     0.035 A 
HETATM    4  C5  UNL     1      24.460   2.911  50.338  1.00  0.00     0.068 A 
HETATM    5  C6  UNL     1      25.187   2.753  51.498  1.00  0.00     0.065 A 
HETATM    6  C7  UNL     1      24.808   2.018  52.573  1.00  0.00     0.085 A 
ENDROOT
BRANCH   6   7
HETATM    7  N2  UNL     1      25.529   1.824  53.779  1.00  0.00    -0.186 N 
HETATM    8  H8  UNL     1      25.049   2.073  54.691  1.00  0.00     0.184 HD
BRANCH   7   9
HETATM    9  C8  UNL     1      26.843   1.316  53.852  1.00  0.00     0.724 C 
HETATM   10  N3  UNL     1      27.719   2.226  54.089  1.00  0.00    -0.086 NA
HETATM   11  C9  UNL     1      29.138   2.195  54.246  1.00  0.00     0.290 C 
HETATM   12  N4  UNL     1      29.843   1.154  53.582  1.00  0.00    -0.370 N 
HETATM   13  C10 UNL     1      29.442  -0.211  53.441  1.00  0.00     0.051 A 
HETATM   14  H11 UNL     1      30.778   1.383  53.126  1.00  0.00     0.161 HD
HETATM   15  C11 UNL     1      29.872  -1.442  53.248  1.00  0.00     0.011 A 
HETATM   16  C13 UNL     1      28.082  -0.787  53.482  1.00  0.00     0.083 A 
HETATM   17  C12 UNL     1      28.583  -2.185  53.263  1.00  0.00     0.092 A 
HETATM   18  N5  UNL     1      27.005  -0.066  53.664  1.00  0.00    -0.065 NA
ENDBRANCH   7   9
ENDBRANCH   6   7
BRANCH   1  19
HETATM   19  O1  UNL     1      23.071   0.620  53.452  1.00  0.00    -0.354 OA
HETATM   20  C1  UNL     1      22.963  -0.783  53.353  1.00  0.00     0.210 C 
ENDBRANCH   1  19
BRANCH   4  21
HETATM   21  N1  UNL     1      24.934   3.701  49.255  1.00  0.00    -0.203 NA
BRANCH  21  22
HETATM   22  S1  UNL     1      26.139   4.774  49.442  1.00  0.00     0.037 SA
HETATM   23  H6  UNL     1      26.197   5.443  50.714  1.00  0.00     0.147 HD
BRANCH  22  24
HETATM   24  O2  UNL     1      27.687   4.374  48.743  1.00  0.00    -0.231 OA
HETATM   25 BR1  UNL     1      28.558   5.936  48.228  1.00  0.00     0.116 Br
ENDBRANCH  22  24
ENDBRANCH  21  22
ENDBRANCH   4  21
TORSDOF 6
ENDMDL
MODEL 4
REMARK VINA RESULT:      -7.1      2.811      4.442
REMARK  6 active torsions:
REMARK  status: ('A' for Active; 'I' for Inactive)
REMARK    1  A    between atoms: O1_2  and  C2_3 
REMARK    2  A    between atoms: C5_6  and  N1_7 
REMARK    3  A    between atoms: N1_7  and  S1_8 
REMARK    4  A    between atoms: S1_8  and  O2_9 
REMARK    5  A    between atoms: C7_12  and  N2_13 
REMARK    6  A    between atoms: N2_13  and  C8_14 
ROOT
HETATM    1  C2  UNL     1      22.545  -0.017  52.864  1.00  0.00     0.095 A 
HETATM    2  C3  UNL     1      21.513   0.152  51.990  1.00  0.00     0.041 A 
HETATM    3  C4  UNL     1      21.642   0.981  50.901  1.00  0.00     0.035 A 
HETATM    4  C5  UNL     1      22.846   1.637  50.724  1.00  0.00     0.068 A 
HETATM    5  C6  UNL     1      23.857   1.431  51.638  1.00  0.00     0.065 A 
HETATM    6  C7  UNL     1      23.784   0.626  52.726  1.00  0.00     0.085 A 
ENDROOT
BRANCH   6   7
HETATM    7  N2  UNL     1      24.802   0.382  53.684  1.00  0.00    -0.186 N 
HETATM    8  H8  UNL     1      24.618   0.667  54.689  1.00  0.00     0.184 HD
BRANCH   7   9
HETATM    9  C8  UNL     1      26.045  -0.221  53.395  1.00  0.00     0.724 C 
HETATM   10  N3  UNL     1      25.926  -1.400  52.902  1.00  0.00    -0.086 NA
HETATM   11  C9  UNL     1      26.875  -2.374  52.465  1.00  0.00     0.290 C 
HETATM   12  N4  UNL     1      28.162  -2.344  53.069  1.00  0.00    -0.370 N 
HETATM   13  C10 UNL     1      28.929  -1.188  53.416  1.00  0.00     0.051 A 
HETATM   14  H11 UNL     1      28.636  -3.268  53.303  1.00  0.00     0.161 HD
HETATM   15  C11 UNL     1      30.146  -0.733  53.634  1.00  0.00     0.011 A 
HETATM   16  C13 UNL     1      28.460   0.183  53.705  1.00  0.00     0.083 A 
HETATM   17  C12 UNL     1      29.852   0.691  53.949  1.00  0.00     0.092 A 
HETATM   18  N5  UNL     1      27.198   0.529  53.677  1.00  0.00    -0.065 NA
ENDBRANCH   7   9
ENDBRANCH   6   7
BRANCH   1  19
HETATM   19  O1  UNL     1      22.357  -0.866  53.944  1.00  0.00    -0.354 OA
HETATM   20  C1  UNL     1      21.114  -1.475  54.212  1.00  0.00     0.210 C 
ENDBRANCH   1  19
BRANCH   4  21
HETATM   21  N1  UNL     1      23.007   2.501  49.606  1.00  0.00    -0.203 NA
BRANCH  21  22
HETATM   22  S1  UNL     1      23.405   4.066  49.784  1.00  0.00     0.037 SA
HETATM   23  H6  UNL     1      23.082   4.658  51.054  1.00  0.00     0.147 HD
BRANCH  22  24
HETATM   24  O2  UNL     1      24.908   4.598  49.077  1.00  0.00    -0.231 OA
HETATM   25 BR1  UNL     1      26.285   3.473  49.629  1.00  0.00     0.116 Br
ENDBRANCH  22  24
ENDBRANCH  21  22
ENDBRANCH   4  21
TORSDOF 6
ENDMDL
MODEL 5
REMARK VINA RESULT:      -7.0      3.887      6.285
REMARK  6 active torsions:
REMARK  status: ('A' for Active; 'I' for Inactive)
REMARK    1  A    between atoms: O1_2  and  C2_3 
REMARK    2  A    between atoms: C5_6  and  N1_7 
REMARK    3  A    between atoms: N1_7  and  S1_8 
REMARK    4  A    between atoms: S1_8  and  O2_9 
REMARK    5  A    between atoms: C7_12  and  N2_13 
REMARK    6  A    between atoms: N2_13  and  C8_14 
ROOT
HETATM    1  C2  UNL     1      24.459   2.523  51.008  1.00  0.00     0.095 A 
HETATM    2  C3  UNL     1      23.921   2.080  52.179  1.00  0.00     0.041 A 
HETATM    3  C4  UNL     1      24.722   1.793  53.258  1.00  0.00     0.035 A 
HETATM    4  C5  UNL     1      26.087   1.965  53.116  1.00  0.00     0.068 A 
HETATM    5  C6  UNL     1      26.579   2.414  51.909  1.00  0.00     0.065 A 
HETATM    6  C7  UNL     1      25.836   2.712  50.816  1.00  0.00     0.085 A 
ENDROOT
BRANCH   6   7
HETATM    7  N2  UNL     1      26.302   3.184  49.562  1.00  0.00    -0.186 N 
HETATM    8  H8  UNL     1      26.408   2.481  48.774  1.00  0.00     0.184 HD
BRANCH   7   9
HETATM    9  C8  UNL     1      26.632   4.527  49.284  1.00  0.00     0.724 C 
HETATM   10  N3  UNL     1      27.776   4.654  48.715  1.00  0.00    -0.086 NA
HETATM   11  C9  UNL     1      28.516   5.786  48.256  1.00  0.00     0.290 C 
HETATM   12  N4  UNL     1      28.278   7.026  48.910  1.00  0.00    -0.370 N 
HETATM   13  C10 UNL     1      27.022   7.543  49.355  1.00  0.00     0.051 A 
HETATM   14  H11 UNL     1      29.106   7.666  49.105  1.00  0.00     0.161 HD
HETATM   15  C11 UNL     1      26.355   8.642  49.648  1.00  0.00     0.011 A 
HETATM   16  C13 UNL     1      25.790   6.808  49.710  1.00  0.00     0.083 A 
HETATM   17  C12 UNL     1      25.039   8.066  50.038  1.00  0.00     0.092 A 
HETATM   18  N5  UNL     1      25.694   5.503  49.655  1.00  0.00    -0.065 NA
ENDBRANCH   7   9
ENDBRANCH   6   7
BRANCH   1  19
HETATM   19  O1  UNL     1      23.601   2.796  49.954  1.00  0.00    -0.354 OA
HETATM   20  C1  UNL     1      22.548   3.728  50.066  1.00  0.00     0.210 C 
ENDBRANCH   1  19
BRANCH   4  21
HETATM   21  N1  UNL     1      26.941   1.675  54.215  1.00  0.00    -0.203 NA
BRANCH  21  22
HETATM   22  S1  UNL     1      28.262   0.744  54.052  1.00  0.00     0.037 SA
HETATM   23  H6  UNL     1      29.460   1.234  54.678  1.00  0.00     0.147 HD
BRANCH  22  24
HETATM   24  O2  UNL     1      28.039  -0.985  54.126  1.00  0.00    -0.231 OA
HETATM   25 BR1  UNL     1      26.954  -1.531  52.715  1.00  0.00     0.116 Br
ENDBRANCH  22  24
ENDBRANCH  21  22
ENDBRANCH   4  21
TORSDOF 6
ENDMDL
MODEL 6
REMARK VINA RESULT:      -6.9      3.841      6.213
REMARK  6 active torsions:
REMARK  status: ('A' for Active; 'I' for Inactive)
REMARK    1  A    between atoms: O1_2  and  C2_3 
REMARK    2  A    between atoms: C5_6  and  N1_7 
REMARK    3  A    between atoms: N1_7  and  S1_8 
REMARK    4  A    between atoms: S1_8  and  O2_9 
REMARK    5  A    between atoms: C7_12  and  N2_13 
REMARK    6  A    between atoms: N2_13  and  C8_14 
ROOT
HETATM    1  C2  UNL     1      22.302   0.428  52.525  1.00  0.00     0.095 A 
HETATM    2  C3  UNL     1      22.234  -0.458  53.559  1.00  0.00     0.041 A 
HETATM    3  C4  UNL     1      23.369  -0.849  54.227  1.00  0.00     0.035 A 
HETATM    4  C5  UNL     1      24.578  -0.317  53.817  1.00  0.00     0.068 A 
HETATM    5  C6  UNL     1      24.592   0.575  52.766  1.00  0.00     0.065 A 
HETATM    6  C7  UNL     1      23.504   0.994  52.074  1.00  0.00     0.085 A 
ENDROOT
BRANCH   6   7
HETATM    7  N2  UNL     1      23.475   1.914  50.995  1.00  0.00    -0.186 N 
HETATM    8  H8  UNL     1      23.106   1.574  50.061  1.00  0.00     0.184 HD
BRANCH   7   9
HETATM    9  C8  UNL     1      23.898   3.258  51.077  1.00  0.00     0.724 C 
HETATM   10  N3  UNL     1      23.297   3.916  52.001  1.00  0.00    -0.086 NA
HETATM   11  C9  UNL     1      23.387   5.269  52.451  1.00  0.00     0.290 C 
HETATM   12  N4  UNL     1      23.804   6.242  51.502  1.00  0.00    -0.370 N 
HETATM   13  C10 UNL     1      24.818   6.100  50.504  1.00  0.00     0.051 A 
HETATM   14  H11 UNL     1      23.328   7.195  51.507  1.00  0.00     0.161 HD
HETATM   15  C11 UNL     1      25.676   6.751  49.744  1.00  0.00     0.011 A 
HETATM   16  C13 UNL     1      25.330   4.867  49.872  1.00  0.00     0.083 A 
HETATM   17  C12 UNL     1      26.305   5.619  49.012  1.00  0.00     0.092 A 
HETATM   18  N5  UNL     1      24.885   3.672  50.169  1.00  0.00    -0.065 NA
ENDBRANCH   7   9
ENDBRANCH   6   7
BRANCH   1  19
HETATM   19  O1  UNL     1      21.124   0.786  51.889  1.00  0.00    -0.354 OA
HETATM   20  C1  UNL     1      20.168   1.627  52.496  1.00  0.00     0.210 C 
ENDBRANCH   1  19
BRANCH   4  21
HETATM   21  N1  UNL     1      25.769  -0.704  54.491  1.00  0.00    -0.203 NA
BRANCH  21  22
HETATM   22  S1  UNL     1      27.055   0.285  54.592  1.00  0.00     0.037 SA
HETATM   23  H6  UNL     1      26.795   1.608  55.093  1.00  0.00     0.147 HD
BRANCH  22  24
HETATM   24  O2  UNL     1      28.570  -0.417  55.099  1.00  0.00    -0.231 OA
HETATM   25 BR1  UNL     1      29.625  -0.761  53.604  1.00  0.00     0.116 Br
ENDBRANCH  22  24
ENDBRANCH  21  22
ENDBRANCH   4  21
TORSDOF 6
ENDMDL
MODEL 7
REMARK VINA RESULT:      -6.8      3.957      6.221
REMARK  6 active torsions:
REMARK  status: ('A' for Active; 'I' for Inactive)
REMARK    1  A    between atoms: O1_2  and  C2_3 
REMARK    2  A    between atoms: C5_6  and  N1_7 
REMARK    3  A    between atoms: N1_7  and  S1_8 
REMARK    4  A    between atoms: S1_8  and  O2_9 
REMARK    5  A    between atoms: C7_12  and  N2_13 
REMARK    6  A    between atoms: N2_13  and  C8_14 
ROOT
HETATM    1  C2  UNL     1      24.391   2.509  50.812  1.00  0.00     0.095 A 
HETATM    2  C3  UNL     1      23.774   2.077  51.948  1.00  0.00     0.041 A 
HETATM    3  C4  UNL     1      24.499   1.809  53.084  1.00  0.00     0.035 A 
HETATM    4  C5  UNL     1      25.869   1.991  53.037  1.00  0.00     0.068 A 
HETATM    5  C6  UNL     1      26.443   2.430  51.863  1.00  0.00     0.065 A 
HETATM    6  C7  UNL     1      25.777   2.708  50.716  1.00  0.00     0.085 A 
ENDROOT
BRANCH   6   7
HETATM    7  N2  UNL     1      26.328   3.168  49.492  1.00  0.00    -0.186 N 
HETATM    8  H8  UNL     1      26.401   2.479  48.689  1.00  0.00     0.184 HD
BRANCH   7   9
HETATM    9  C8  UNL     1      26.782   4.484  49.264  1.00  0.00     0.724 C 
HETATM   10  N3  UNL     1      25.914   5.375  49.584  1.00  0.00    -0.086 NA
HETATM   11  C9  UNL     1      25.920   6.803  49.533  1.00  0.00     0.290 C 
HETATM   12  N4  UNL     1      26.749   7.415  48.554  1.00  0.00    -0.370 N 
HETATM   13  C10 UNL     1      28.061   7.012  48.155  1.00  0.00     0.051 A 
HETATM   14  H11 UNL     1      26.382   8.273  48.039  1.00  0.00     0.161 HD
HETATM   15  C11 UNL     1      29.196   7.421  47.622  1.00  0.00     0.011 A 
HETATM   16  C13 UNL     1      28.689   5.677  48.247  1.00  0.00     0.083 A 
HETATM   17  C12 UNL     1      29.977   6.155  47.641  1.00  0.00     0.092 A 
HETATM   18  N5  UNL     1      28.076   4.630  48.738  1.00  0.00    -0.065 NA
ENDBRANCH   7   9
ENDBRANCH   6   7
BRANCH   1  19
HETATM   19  O1  UNL     1      23.608   2.763  49.696  1.00  0.00    -0.354 OA
HETATM   20  C1  UNL     1      22.616   3.765  49.687  1.00  0.00     0.210 C 
ENDBRANCH   1  19
BRANCH   4  21
HETATM   21  N1  UNL     1      26.645   1.723  54.199  1.00  0.00    -0.203 NA
BRANCH  21  22
HETATM   22  S1  UNL     1      26.707   0.242  54.863  1.00  0.00     0.037 SA
HETATM   23  H6  UNL     1      25.447  -0.323  55.266  1.00  0.00     0.147 HD
BRANCH  22  24
HETATM   24  O2  UNL     1      27.848  -0.893  54.188  1.00  0.00    -0.231 OA
HETATM   25 BR1  UNL     1      29.402   0.007  53.699  1.00  0.00     0.116 Br
ENDBRANCH  22  24
ENDBRANCH  21  22
ENDBRANCH   4  21
TORSDOF 6
ENDMDL
MODEL 8
REMARK VINA RESULT:      -6.8      2.755      3.691
REMARK  6 active torsions:
REMARK  status: ('A' for Active; 'I' for Inactive)
REMARK    1  A    between atoms: O1_2  and  C2_3 
REMARK    2  A    between atoms: C5_6  and  N1_7 
REMARK    3  A    between atoms: N1_7  and  S1_8 
REMARK    4  A    between atoms: S1_8  and  O2_9 
REMARK    5  A    between atoms: C7_12  and  N2_13 
REMARK    6  A    between atoms: N2_13  and  C8_14 
ROOT
HETATM    1  C2  UNL     1      23.695   1.615  52.396  1.00  0.00     0.095 A 
HETATM    2  C3  UNL     1      22.845   1.531  51.334  1.00  0.00     0.041 A 
HETATM    3  C4  UNL     1      23.046   2.294  50.209  1.00  0.00     0.035 A 
HETATM    4  C5  UNL     1      24.135   3.147  50.190  1.00  0.00     0.068 A 
HETATM    5  C6  UNL     1      24.964   3.193  51.291  1.00  0.00     0.065 A 
HETATM    6  C7  UNL     1      24.812   2.464  52.424  1.00  0.00     0.085 A 
ENDROOT
BRANCH   6   7
HETATM    7  N2  UNL     1      25.645   2.476  53.572  1.00  0.00    -0.186 N 
HETATM    8  H8  UNL     1      25.363   3.098  54.383  1.00  0.00     0.184 HD
BRANCH   7   9
HETATM    9  C8  UNL     1      26.822   1.713  53.714  1.00  0.00     0.724 C 
HETATM   10  N3  UNL     1      27.834   2.417  54.074  1.00  0.00    -0.086 NA
HETATM   11  C9  UNL     1      29.201   2.096  54.338  1.00  0.00     0.290 C 
HETATM   12  N4  UNL     1      29.744   0.967  53.666  1.00  0.00    -0.370 N 
HETATM   13  C10 UNL     1      29.098  -0.282  53.410  1.00  0.00     0.051 A 
HETATM   14  H11 UNL     1      30.742   1.025  53.299  1.00  0.00     0.161 HD
HETATM   15  C11 UNL     1      29.294  -1.564  53.173  1.00  0.00     0.011 A 
HETATM   16  C13 UNL     1      27.654  -0.576  53.310  1.00  0.00     0.083 A 
HETATM   17  C12 UNL     1      27.888  -2.035  53.043  1.00  0.00     0.092 A 
HETATM   18  N5  UNL     1      26.726   0.337  53.453  1.00  0.00    -0.065 NA
ENDBRANCH   7   9
ENDBRANCH   6   7
BRANCH   1  19
HETATM   19  O1  UNL     1      23.441   0.821  53.503  1.00  0.00    -0.354 OA
HETATM   20  C1  UNL     1      23.174  -0.560  53.392  1.00  0.00     0.210 C 
ENDBRANCH   1  19
BRANCH   4  21
HETATM   21  N1  UNL     1      24.369   3.948  49.039  1.00  0.00    -0.203 NA
BRANCH  21  22
HETATM   22  S1  UNL     1      23.315   5.087  48.559  1.00  0.00     0.037 SA
HETATM   23  H6  UNL     1      22.094   4.608  47.968  1.00  0.00     0.147 HD
BRANCH  22  24
HETATM   24  O2  UNL     1      23.147   6.501  49.568  1.00  0.00    -0.231 OA
HETATM   25 BR1  UNL     1      21.922   6.152  50.926  1.00  0.00     0.116 Br
ENDBRANCH  22  24
ENDBRANCH  21  22
ENDBRANCH   4  21
TORSDOF 6
ENDMDL
MODEL 9
REMARK VINA RESULT:      -6.4      2.544      5.253
REMARK  6 active torsions:
REMARK  status: ('A' for Active; 'I' for Inactive)
REMARK    1  A    between atoms: O1_2  and  C2_3 
REMARK    2  A    between atoms: C5_6  and  N1_7 
REMARK    3  A    between atoms: N1_7  and  S1_8 
REMARK    4  A    between atoms: S1_8  and  O2_9 
REMARK    5  A    between atoms: C7_12  and  N2_13 
REMARK    6  A    between atoms: N2_13  and  C8_14 
ROOT
HETATM    1  C2  UNL     1      26.883   0.624  53.700  1.00  0.00     0.095 A 
HETATM    2  C3  UNL     1      26.534   0.041  54.881  1.00  0.00     0.041 A 
HETATM    3  C4  UNL     1      25.279  -0.488  55.062  1.00  0.00     0.035 A 
HETATM    4  C5  UNL     1      24.385  -0.409  54.011  1.00  0.00     0.068 A 
HETATM    5  C6  UNL     1      24.788   0.192  52.837  1.00  0.00     0.065 A 
HETATM    6  C7  UNL     1      26.011   0.728  52.606  1.00  0.00     0.085 A 
ENDROOT
BRANCH   6   7
HETATM    7  N2  UNL     1      26.466   1.346  51.413  1.00  0.00    -0.186 N 
HETATM    8  H8  UNL     1      27.104   0.788  50.776  1.00  0.00     0.184 HD
BRANCH   7   9
HETATM    9  C8  UNL     1      26.126   2.654  51.009  1.00  0.00     0.724 C 
HETATM   10  N3  UNL     1      25.015   3.059  51.510  1.00  0.00    -0.086 NA
HETATM   11  C9  UNL     1      24.280   4.279  51.394  1.00  0.00     0.290 C 
HETATM   12  N4  UNL     1      24.453   5.029  50.199  1.00  0.00    -0.370 N 
HETATM   13  C10 UNL     1      25.669   5.243  49.478  1.00  0.00     0.051 A 
HETATM   14  H11 UNL     1      23.600   5.498  49.764  1.00  0.00     0.161 HD
HETATM   15  C11 UNL     1      26.293   6.045  48.639  1.00  0.00     0.011 A 
HETATM   16  C13 UNL     1      26.892   4.415  49.458  1.00  0.00     0.083 A 
HETATM   17  C12 UNL     1      27.595   5.337  48.504  1.00  0.00     0.092 A 
HETATM   18  N5  UNL     1      27.019   3.308  50.145  1.00  0.00    -0.065 NA
ENDBRANCH   7   9
ENDBRANCH   6   7
BRANCH   1  19
HETATM   19  O1  UNL     1      28.163   1.141  53.576  1.00  0.00    -0.354 OA
HETATM   20  C1  UNL     1      29.314   0.362  53.817  1.00  0.00     0.210 C 
ENDBRANCH   1  19
BRANCH   4  21
HETATM   21  N1  UNL     1      23.079  -0.949  54.169  1.00  0.00    -0.203 NA
BRANCH  21  22
HETATM   22  S1  UNL     1      21.763  -0.191  53.592  1.00  0.00     0.037 SA
HETATM   23  H6  UNL     1      21.411   1.043  54.242  1.00  0.00     0.147 HD
BRANCH  22  24
HETATM   24  O2  UNL     1      21.512  -0.219  51.865  1.00  0.00    -0.231 OA
HETATM   25 BR1  UNL     1      20.001   0.782  51.442  1.00  0.00     0.116 Br
ENDBRANCH  22  24
ENDBRANCH  21  22
ENDBRANCH   4  21
TORSDOF 6
ENDMDL
