MODEL 1
REMARK VINA RESULT:      -7.6      0.000      0.000
REMARK  7 active torsions:
REMARK  status: ('A' for Active; 'I' for Inactive)
REMARK    1  A    between atoms: C2_2  and  C3_3 
REMARK       I    between atoms: C3_3  and  N1_5 
REMARK    2  A    between atoms: N1_5  and  C4_6 
REMARK    3  A    between atoms: C9_13  and  C10_14 
REMARK    4  A    between atoms: C10_14  and  N4_15 
REMARK    5  A    between atoms: C10_14  and  C11_16 
REMARK    6  A    between atoms: C12_17  and  C13_18 
REMARK    7  A    between atoms: C13_18  and  C14_19 
ROOT
HETATM    1  C4  UNL     1      25.638   0.486  52.906  1.00  0.00     0.035 A 
HETATM    2  C5  UNL     1      24.790  -0.530  53.334  1.00  0.00     0.032 A 
HETATM    3  C6  UNL     1      23.424  -0.376  53.370  1.00  0.00     0.035 A 
HETATM    4  C7  UNL     1      22.830   0.803  52.983  1.00  0.00     0.070 A 
HETATM    5  N2  UNL     1      21.500   0.988  53.008  1.00  0.00    -0.241 NA
HETATM    6  C8  UNL     1      20.975   2.171  52.616  1.00  0.00     0.234 A 
HETATM    7  N3  UNL     1      21.806   3.139  52.207  1.00  0.00    -0.243 NA
HETATM    8  C9  UNL     1      23.147   3.002  52.163  1.00  0.00     0.085 A 
HETATM    9  C18 UNL     1      23.663   1.799  52.564  1.00  0.00     0.022 A 
HETATM   10  C19 UNL     1      25.011   1.632  52.533  1.00  0.00     0.045 A 
ENDROOT
BRANCH   8  11
HETATM   11  C10 UNL     1      23.878   4.186  51.676  1.00  0.00     0.293 C 
BRANCH  11  12
HETATM   12  N4  UNL     1      23.773   5.293  52.611  1.00  0.00     0.092 N 
HETATM   13  H9  UNL     1      24.161   5.024  53.535  1.00  0.00     0.314 HD
HETATM   14  H10 UNL     1      24.281   6.120  52.243  1.00  0.00     0.314 HD
ENDBRANCH  11  12
BRANCH  11  15
HETATM   15  C11 UNL     1      23.213   4.564  50.369  1.00  0.00     0.010 C 
HETATM   16  C12 UNL     1      23.402   4.137  49.127  1.00  0.00    -0.027 C 
BRANCH  16  17
HETATM   17  C13 UNL     1      22.677   4.594  47.929  1.00  0.00     0.035 C 
BRANCH  17  18
HETATM   18  C14 UNL     1      21.919   3.442  47.260  1.00  0.00    -0.048 C 
HETATM   19  C15 UNL     1      22.521   2.118  47.619  1.00  0.00     0.014 C 
HETATM   20  C16 UNL     1      20.484   3.465  47.741  1.00  0.00     0.014 C 
HETATM   21  C17 UNL     1      21.912   3.671  45.763  1.00  0.00     0.014 C 
ENDBRANCH  17  18
ENDBRANCH  16  17
ENDBRANCH  11  15
ENDBRANCH   8  11
BRANCH   1  22
HETATM   22  N1  UNL     1      27.026   0.196  52.918  1.00  0.00    -0.324 N 
HETATM   23  C3  UNL     1      27.976   0.428  53.941  1.00  0.00     0.244 C 
HETATM   24  O1  UNL     1      27.592   0.956  54.995  1.00  0.00    -0.268 OA
HETATM   25  H4  UNL     1      27.472  -0.256  52.073  1.00  0.00     0.169 HD
BRANCH  23  26
HETATM   26  C2  UNL     1      29.381   0.078  53.816  1.00  0.00     0.064 C 
HETATM   27  C1  UNL     1      29.774  -1.138  53.514  1.00  0.00     0.017 C 
ENDBRANCH  23  26
ENDBRANCH   1  22
TORSDOF 7
ENDMDL
MODEL 2
REMARK VINA RESULT:      -7.1      1.580      2.274
REMARK  7 active torsions:
REMARK  status: ('A' for Active; 'I' for Inactive)
REMARK    1  A    between atoms: C2_2  and  C3_3 
REMARK       I    between atoms: C3_3  and  N1_5 
REMARK    2  A    between atoms: N1_5  and  C4_6 
REMARK    3  A    between atoms: C9_13  and  C10_14 
REMARK    4  A    between atoms: C10_14  and  N4_15 
REMARK    5  A    between atoms: C10_14  and  C11_16 
REMARK    6  A    between atoms: C12_17  and  C13_18 
REMARK    7  A    between atoms: C13_18  and  C14_19 
ROOT
HETATM    1  C4  UNL     1      24.994   0.432  53.176  1.00  0.00     0.035 A 
HETATM    2  C5  UNL     1      23.995  -0.507  53.411  1.00  0.00     0.032 A 
HETATM    3  C6  UNL     1      22.661  -0.204  53.277  1.00  0.00     0.035 A 
HETATM    4  C7  UNL     1      22.250   1.055  52.902  1.00  0.00     0.070 A 
HETATM    5  N2  UNL     1      20.956   1.385  52.765  1.00  0.00    -0.241 NA
HETATM    6  C8  UNL     1      20.614   2.641  52.394  1.00  0.00     0.234 A 
HETATM    7  N3  UNL     1      21.589   3.532  52.172  1.00  0.00    -0.243 NA
HETATM    8  C9  UNL     1      22.902   3.249  52.296  1.00  0.00     0.085 A 
HETATM    9  C18 UNL     1      23.232   1.974  52.672  1.00  0.00     0.022 A 
HETATM   10  C19 UNL     1      24.546   1.661  52.808  1.00  0.00     0.045 A 
ENDROOT
BRANCH   8  11
HETATM   11  C10 UNL     1      23.811   4.370  52.000  1.00  0.00     0.293 C 
BRANCH  11  12
HETATM   12  N4  UNL     1      23.765   5.379  53.044  1.00  0.00     0.092 N 
HETATM   13  H9  UNL     1      23.152   6.167  52.758  1.00  0.00     0.314 HD
HETATM   14  H10 UNL     1      23.415   4.963  53.927  1.00  0.00     0.314 HD
ENDBRANCH  11  12
BRANCH  11  15
HETATM   15  C11 UNL     1      23.310   4.966  50.700  1.00  0.00     0.010 C 
HETATM   16  C12 UNL     1      23.902   5.143  49.525  1.00  0.00    -0.027 C 
BRANCH  16  17
HETATM   17  C13 UNL     1      23.294   5.744  48.325  1.00  0.00     0.035 C 
BRANCH  17  18
HETATM   18  C14 UNL     1      23.934   7.095  47.990  1.00  0.00    -0.048 C 
HETATM   19  C15 UNL     1      23.428   8.174  48.900  1.00  0.00     0.014 C 
HETATM   20  C16 UNL     1      25.432   6.977  48.171  1.00  0.00     0.014 C 
HETATM   21  C17 UNL     1      23.664   7.412  46.535  1.00  0.00     0.014 C 
ENDBRANCH  17  18
ENDBRANCH  16  17
ENDBRANCH  11  15
ENDBRANCH   8  11
BRANCH   1  22
HETATM   22  N1  UNL     1      26.330  -0.012  53.351  1.00  0.00    -0.324 N 
HETATM   23  C3  UNL     1      27.225   0.255  54.414  1.00  0.00     0.244 C 
HETATM   24  O1  UNL     1      26.836   0.969  55.349  1.00  0.00    -0.268 OA
HETATM   25  H4  UNL     1      26.775  -0.629  52.617  1.00  0.00     0.169 HD
BRANCH  23  26
HETATM   26  C2  UNL     1      28.580  -0.270  54.463  1.00  0.00     0.064 C 
HETATM   27  C1  UNL     1      29.426  -0.112  53.472  1.00  0.00     0.017 C 
ENDBRANCH  23  26
ENDBRANCH   1  22
TORSDOF 7
ENDMDL
MODEL 3
REMARK VINA RESULT:      -7.1      1.661      2.200
REMARK  7 active torsions:
REMARK  status: ('A' for Active; 'I' for Inactive)
REMARK    1  A    between atoms: C2_2  and  C3_3 
REMARK       I    between atoms: C3_3  and  N1_5 
REMARK    2  A    between atoms: N1_5  and  C4_6 
REMARK    3  A    between atoms: C9_13  and  C10_14 
REMARK    4  A    between atoms: C10_14  and  N4_15 
REMARK    5  A    between atoms: C10_14  and  C11_16 
REMARK    6  A    between atoms: C12_17  and  C13_18 
REMARK    7  A    between atoms: C13_18  and  C14_19 
ROOT
HETATM    1  C4  UNL     1      25.201  -0.683  54.262  1.00  0.00     0.035 A 
HETATM    2  C5  UNL     1      24.517  -1.312  55.298  1.00  0.00     0.032 A 
HETATM    3  C6  UNL     1      23.147  -1.269  55.403  1.00  0.00     0.035 A 
HETATM    4  C7  UNL     1      22.383  -0.592  54.480  1.00  0.00     0.070 A 
HETATM    5  N2  UNL     1      21.044  -0.527  54.554  1.00  0.00    -0.241 NA
HETATM    6  C8  UNL     1      20.347   0.154  53.616  1.00  0.00     0.234 A 
HETATM    7  N3  UNL     1      21.021   0.754  52.625  1.00  0.00    -0.243 NA
HETATM    8  C9  UNL     1      22.364   0.718  52.507  1.00  0.00     0.085 A 
HETATM    9  C18 UNL     1      23.055   0.024  53.465  1.00  0.00     0.022 A 
HETATM   10  C19 UNL     1      24.409  -0.027  53.373  1.00  0.00     0.045 A 
ENDROOT
BRANCH   8  11
HETATM   11  C10 UNL     1      22.906   1.439  51.342  1.00  0.00     0.293 C 
BRANCH  11  12
HETATM   12  N4  UNL     1      23.412   2.747  51.717  1.00  0.00     0.092 N 
HETATM   13  H9  UNL     1      22.958   3.488  51.149  1.00  0.00     0.314 HD
HETATM   14  H10 UNL     1      23.240   2.922  52.725  1.00  0.00     0.314 HD
ENDBRANCH  11  12
BRANCH  11  15
HETATM   15  C11 UNL     1      21.740   1.604  50.389  1.00  0.00     0.010 C 
HETATM   16  C12 UNL     1      21.685   1.985  49.118  1.00  0.00    -0.027 C 
BRANCH  16  17
HETATM   17  C13 UNL     1      20.470   2.105  48.296  1.00  0.00     0.035 C 
BRANCH  17  18
HETATM   18  C14 UNL     1      20.499   3.373  47.436  1.00  0.00    -0.048 C 
HETATM   19  C15 UNL     1      19.399   3.362  46.418  1.00  0.00     0.014 C 
HETATM   20  C16 UNL     1      20.306   4.573  48.339  1.00  0.00     0.014 C 
HETATM   21  C17 UNL     1      21.863   3.490  46.790  1.00  0.00     0.014 C 
ENDBRANCH  17  18
ENDBRANCH  16  17
ENDBRANCH  11  15
ENDBRANCH   8  11
BRANCH   1  22
HETATM   22  N1  UNL     1      26.613  -0.806  54.272  1.00  0.00    -0.324 N 
HETATM   23  C3  UNL     1      27.591   0.177  54.561  1.00  0.00     0.244 C 
HETATM   24  O1  UNL     1      27.212   1.320  54.853  1.00  0.00    -0.268 OA
HETATM   25  H4  UNL     1      27.058  -1.736  54.038  1.00  0.00     0.169 HD
BRANCH  23  26
HETATM   26  C2  UNL     1      29.019  -0.091  54.532  1.00  0.00     0.064 C 
HETATM   27  C1  UNL     1      29.555  -0.936  53.682  1.00  0.00     0.017 C 
ENDBRANCH  23  26
ENDBRANCH   1  22
TORSDOF 7
ENDMDL
MODEL 4
REMARK VINA RESULT:      -7.0      2.586      4.901
REMARK  7 active torsions:
REMARK  status: ('A' for Active; 'I' for Inactive)
REMARK    1  A    between atoms: C2_2  and  C3_3 
REMARK       I    between atoms: C3_3  and  N1_5 
REMARK    2  A    between atoms: N1_5  and  C4_6 
REMARK    3  A    between atoms: C9_13  and  C10_14 
REMARK    4  A    between atoms: C10_14  and  N4_15 
REMARK    5  A    between atoms: C10_14  and  C11_16 
REMARK    6  A    between atoms: C12_17  and  C13_18 
REMARK    7  A    between atoms: C13_18  and  C14_19 
ROOT
HETATM    1  C4  UNL     1      24.249  -0.374  53.625  1.00  0.00     0.035 A 
HETATM    2  C5  UNL     1      24.925  -0.700  54.796  1.00  0.00     0.032 A 
HETATM    3  C6  UNL     1      26.155  -0.169  55.103  1.00  0.00     0.035 A 
HETATM    4  C7  UNL     1      26.780   0.718  54.256  1.00  0.00     0.070 A 
HETATM    5  N2  UNL     1      27.982   1.253  54.523  1.00  0.00    -0.241 NA
HETATM    6  C8  UNL     1      28.546   2.118  53.650  1.00  0.00     0.234 A 
HETATM    7  N3  UNL     1      27.882   2.422  52.527  1.00  0.00    -0.243 NA
HETATM    8  C9  UNL     1      26.674   1.911  52.213  1.00  0.00     0.085 A 
HETATM    9  C18 UNL     1      26.116   1.036  53.107  1.00  0.00     0.022 A 
HETATM   10  C19 UNL     1      24.901   0.504  52.817  1.00  0.00     0.045 A 
ENDROOT
BRANCH   8  11
HETATM   11  C10 UNL     1      26.113   2.379  50.933  1.00  0.00     0.293 C 
BRANCH  11  12
HETATM   12  N4  UNL     1      26.705   3.643  50.528  1.00  0.00     0.092 N 
HETATM   13  H9  UNL     1      25.963   4.331  50.295  1.00  0.00     0.314 HD
HETATM   14  H10 UNL     1      27.306   4.016  51.287  1.00  0.00     0.314 HD
ENDBRANCH  11  12
BRANCH  11  15
HETATM   15  C11 UNL     1      24.632   2.573  51.186  1.00  0.00     0.010 C 
HETATM   16  C12 UNL     1      23.599   2.654  50.356  1.00  0.00    -0.027 C 
BRANCH  16  17
HETATM   17  C13 UNL     1      22.189   2.847  50.736  1.00  0.00     0.035 C 
BRANCH  17  18
HETATM   18  C14 UNL     1      21.268   1.890  49.972  1.00  0.00    -0.048 C 
HETATM   19  C15 UNL     1      21.639   1.825  48.522  1.00  0.00     0.014 C 
HETATM   20  C16 UNL     1      21.409   0.506  50.568  1.00  0.00     0.014 C 
HETATM   21  C17 UNL     1      19.835   2.338  50.167  1.00  0.00     0.014 C 
ENDBRANCH  17  18
ENDBRANCH  16  17
ENDBRANCH  11  15
ENDBRANCH   8  11
BRANCH   1  22
HETATM   22  N1  UNL     1      22.988  -0.992  53.431  1.00  0.00    -0.324 N 
HETATM   23  C3  UNL     1      21.768  -0.759  54.109  1.00  0.00     0.244 C 
HETATM   24  O1  UNL     1      21.744   0.097  55.006  1.00  0.00    -0.268 OA
HETATM   25  H4  UNL     1      22.882  -1.741  52.693  1.00  0.00     0.169 HD
BRANCH  23  26
HETATM   26  C2  UNL     1      20.540  -1.475  53.805  1.00  0.00     0.064 C 
HETATM   27  C1  UNL     1      19.453  -0.858  53.403  1.00  0.00     0.017 C 
ENDBRANCH  23  26
ENDBRANCH   1  22
TORSDOF 7
ENDMDL
MODEL 5
REMARK VINA RESULT:      -6.9      2.985      6.731
REMARK  7 active torsions:
REMARK  status: ('A' for Active; 'I' for Inactive)
REMARK    1  A    between atoms: C2_2  and  C3_3 
REMARK       I    between atoms: C3_3  and  N1_5 
REMARK    2  A    between atoms: N1_5  and  C4_6 
REMARK    3  A    between atoms: C9_13  and  C10_14 
REMARK    4  A    between atoms: C10_14  and  N4_15 
REMARK    5  A    between atoms: C10_14  and  C11_16 
REMARK    6  A    between atoms: C12_17  and  C13_18 
REMARK    7  A    between atoms: C13_18  and  C14_19 
ROOT
HETATM    1  C4  UNL     1      21.025   1.080  50.730  1.00  0.00     0.035 A 
HETATM    2  C5  UNL     1      21.199   0.959  49.355  1.00  0.00     0.032 A 
HETATM    3  C6  UNL     1      22.112   1.720  48.664  1.00  0.00     0.035 A 
HETATM    4  C7  UNL     1      22.900   2.647  49.307  1.00  0.00     0.070 A 
HETATM    5  N2  UNL     1      23.798   3.409  48.663  1.00  0.00    -0.241 NA
HETATM    6  C8  UNL     1      24.544   4.304  49.351  1.00  0.00     0.234 A 
HETATM    7  N3  UNL     1      24.363   4.408  50.674  1.00  0.00    -0.243 NA
HETATM    8  C9  UNL     1      23.474   3.666  51.367  1.00  0.00     0.085 A 
HETATM    9  C18 UNL     1      22.727   2.765  50.656  1.00  0.00     0.022 A 
HETATM   10  C19 UNL     1      21.822   2.006  51.326  1.00  0.00     0.045 A 
ENDROOT
BRANCH   8  11
HETATM   11  C10 UNL     1      23.436   3.932  52.815  1.00  0.00     0.293 C 
BRANCH  11  12
HETATM   12  N4  UNL     1      23.706   5.330  53.104  1.00  0.00     0.092 N 
HETATM   13  H9  UNL     1      22.855   5.792  53.476  1.00  0.00     0.314 HD
HETATM   14  H10 UNL     1      24.480   5.411  53.789  1.00  0.00     0.314 HD
ENDBRANCH  11  12
BRANCH  11  15
HETATM   15  C11 UNL     1      24.532   3.073  53.414  1.00  0.00     0.010 C 
HETATM   16  C12 UNL     1      24.900   1.820  53.176  1.00  0.00    -0.027 C 
BRANCH  16  17
HETATM   17  C13 UNL     1      25.997   1.095  53.838  1.00  0.00     0.035 C 
BRANCH  17  18
HETATM   18  C14 UNL     1      26.958   0.481  52.815  1.00  0.00    -0.048 C 
HETATM   19  C15 UNL     1      26.679  -0.979  52.617  1.00  0.00     0.014 C 
HETATM   20  C16 UNL     1      26.771   1.189  51.490  1.00  0.00     0.014 C 
HETATM   21  C17 UNL     1      28.379   0.725  53.276  1.00  0.00     0.014 C 
ENDBRANCH  17  18
ENDBRANCH  16  17
ENDBRANCH  11  15
ENDBRANCH   8  11
BRANCH   1  22
HETATM   22  N1  UNL     1      20.050   0.235  51.318  1.00  0.00    -0.324 N 
HETATM   23  C3  UNL     1      18.677   0.487  51.553  1.00  0.00     0.244 C 
HETATM   24  O1  UNL     1      18.211   1.584  51.213  1.00  0.00    -0.268 OA
HETATM   25  H4  UNL     1      20.327  -0.730  51.650  1.00  0.00     0.169 HD
BRANCH  23  26
HETATM   26  C2  UNL     1      17.786  -0.479  52.173  1.00  0.00     0.064 C 
HETATM   27  C1  UNL     1      18.169  -1.246  53.168  1.00  0.00     0.017 C 
ENDBRANCH  23  26
ENDBRANCH   1  22
TORSDOF 7
ENDMDL
MODEL 6
REMARK VINA RESULT:      -6.8      4.828      7.369
REMARK  7 active torsions:
REMARK  status: ('A' for Active; 'I' for Inactive)
REMARK    1  A    between atoms: C2_2  and  C3_3 
REMARK       I    between atoms: C3_3  and  N1_5 
REMARK    2  A    between atoms: N1_5  and  C4_6 
REMARK    3  A    between atoms: C9_13  and  C10_14 
REMARK    4  A    between atoms: C10_14  and  N4_15 
REMARK    5  A    between atoms: C10_14  and  C11_16 
REMARK    6  A    between atoms: C12_17  and  C13_18 
REMARK    7  A    between atoms: C13_18  and  C14_19 
ROOT
HETATM    1  C4  UNL     1      28.465   6.481  48.188  1.00  0.00     0.035 A 
HETATM    2  C5  UNL     1      28.264   7.812  48.538  1.00  0.00     0.032 A 
HETATM    3  C6  UNL     1      27.174   8.219  49.271  1.00  0.00     0.035 A 
HETATM    4  C7  UNL     1      26.223   7.319  49.693  1.00  0.00     0.070 A 
HETATM    5  N2  UNL     1      25.146   7.682  50.407  1.00  0.00    -0.241 NA
HETATM    6  C8  UNL     1      24.244   6.750  50.793  1.00  0.00     0.234 A 
HETATM    7  N3  UNL     1      24.453   5.473  50.447  1.00  0.00    -0.243 NA
HETATM    8  C9  UNL     1      25.518   5.058  49.731  1.00  0.00     0.085 A 
HETATM    9  C18 UNL     1      26.422   6.014  49.349  1.00  0.00     0.022 A 
HETATM   10  C19 UNL     1      27.503   5.626  48.625  1.00  0.00     0.045 A 
ENDROOT
BRANCH   8  11
HETATM   11  C10 UNL     1      25.562   3.610  49.463  1.00  0.00     0.293 C 
BRANCH  11  12
HETATM   12  N4  UNL     1      24.228   3.036  49.441  1.00  0.00     0.092 N 
HETATM   13  H9  UNL     1      24.279   2.005  49.332  1.00  0.00     0.314 HD
HETATM   14  H10 UNL     1      23.721   3.273  50.315  1.00  0.00     0.314 HD
ENDBRANCH  11  12
BRANCH  11  15
HETATM   15  C11 UNL     1      26.350   3.009  50.609  1.00  0.00     0.010 C 
HETATM   16  C12 UNL     1      26.149   1.921  51.343  1.00  0.00    -0.027 C 
BRANCH  16  17
HETATM   17  C13 UNL     1      27.004   1.442  52.443  1.00  0.00     0.035 C 
BRANCH  17  18
HETATM   18  C14 UNL     1      26.363   0.260  53.176  1.00  0.00    -0.048 C 
HETATM   19  C15 UNL     1      26.751   0.245  54.623  1.00  0.00     0.014 C 
HETATM   20  C16 UNL     1      24.858   0.393  53.083  1.00  0.00     0.014 C 
HETATM   21  C17 UNL     1      26.761  -1.020  52.473  1.00  0.00     0.014 C 
ENDBRANCH  17  18
ENDBRANCH  16  17
ENDBRANCH  11  15
ENDBRANCH   8  11
BRANCH   1  22
HETATM   22  N1  UNL     1      29.629   6.197  47.431  1.00  0.00    -0.324 N 
HETATM   23  C3  UNL     1      30.852   5.625  47.857  1.00  0.00     0.244 C 
HETATM   24  O1  UNL     1      30.971   5.308  49.050  1.00  0.00    -0.268 OA
HETATM   25  H4  UNL     1      29.649   6.424  46.398  1.00  0.00     0.169 HD
BRANCH  23  26
HETATM   26  C2  UNL     1      31.974   5.389  46.964  1.00  0.00     0.064 C 
HETATM   27  C1  UNL     1      32.528   4.206  46.835  1.00  0.00     0.017 C 
ENDBRANCH  23  26
ENDBRANCH   1  22
TORSDOF 7
ENDMDL
MODEL 7
REMARK VINA RESULT:      -6.8      2.719      5.472
REMARK  7 active torsions:
REMARK  status: ('A' for Active; 'I' for Inactive)
REMARK    1  A    between atoms: C2_2  and  C3_3 
REMARK       I    between atoms: C3_3  and  N1_5 
REMARK    2  A    between atoms: N1_5  and  C4_6 
REMARK    3  A    between atoms: C9_13  and  C10_14 
REMARK    4  A    between atoms: C10_14  and  N4_15 
REMARK    5  A    between atoms: C10_14  and  C11_16 
REMARK    6  A    between atoms: C12_17  and  C13_18 
REMARK    7  A    between atoms: C13_18  and  C14_19 
ROOT
HETATM    1  C4  UNL     1      22.394  -0.801  53.784  1.00  0.00     0.035 A 
HETATM    2  C5  UNL     1      22.726  -1.416  54.986  1.00  0.00     0.032 A 
HETATM    3  C6  UNL     1      23.983  -1.318  55.536  1.00  0.00     0.035 A 
HETATM    4  C7  UNL     1      24.978  -0.599  54.913  1.00  0.00     0.070 A 
HETATM    5  N2  UNL     1      26.216  -0.485  55.420  1.00  0.00    -0.241 NA
HETATM    6  C8  UNL     1      27.153   0.234  54.761  1.00  0.00     0.234 A 
HETATM    7  N3  UNL     1      26.816   0.821  53.604  1.00  0.00    -0.243 NA
HETATM    8  C9  UNL     1      25.587   0.735  53.054  1.00  0.00     0.085 A 
HETATM    9  C18 UNL     1      24.650   0.004  53.734  1.00  0.00     0.022 A 
HETATM   10  C19 UNL     1      23.405  -0.102  53.203  1.00  0.00     0.045 A 
ENDROOT
BRANCH   8  11
HETATM   11  C10 UNL     1      25.424   1.459  51.781  1.00  0.00     0.293 C 
BRANCH  11  12
HETATM   12  N4  UNL     1      26.710   1.823  51.211  1.00  0.00     0.092 N 
HETATM   13  H9  UNL     1      26.667   1.795  50.175  1.00  0.00     0.314 HD
HETATM   14  H10 UNL     1      26.984   2.773  51.527  1.00  0.00     0.314 HD
ENDBRANCH  11  12
BRANCH  11  15
HETATM   15  C11 UNL     1      24.650   2.715  52.125  1.00  0.00     0.010 C 
HETATM   16  C12 UNL     1      23.667   3.346  51.494  1.00  0.00    -0.027 C 
BRANCH  16  17
HETATM   17  C13 UNL     1      22.993   4.576  51.943  1.00  0.00     0.035 C 
BRANCH  17  18
HETATM   18  C14 UNL     1      21.882   4.991  50.972  1.00  0.00    -0.048 C 
HETATM   19  C15 UNL     1      22.188   4.540  49.576  1.00  0.00     0.014 C 
HETATM   20  C16 UNL     1      20.588   4.343  51.414  1.00  0.00     0.014 C 
HETATM   21  C17 UNL     1      21.704   6.492  51.053  1.00  0.00     0.014 C 
ENDBRANCH  17  18
ENDBRANCH  16  17
ENDBRANCH  11  15
ENDBRANCH   8  11
BRANCH   1  22
HETATM   22  N1  UNL     1      21.063  -0.982  53.329  1.00  0.00    -0.324 N 
HETATM   23  C3  UNL     1      20.063  -0.009  53.089  1.00  0.00     0.244 C 
HETATM   24  O1  UNL     1      20.339   1.183  53.287  1.00  0.00    -0.268 OA
HETATM   25  H4  UNL     1      20.709  -1.957  53.126  1.00  0.00     0.169 HD
BRANCH  23  26
HETATM   26  C2  UNL     1      18.728  -0.340  52.620  1.00  0.00     0.064 C 
HETATM   27  C1  UNL     1      18.038  -1.337  53.124  1.00  0.00     0.017 C 
ENDBRANCH  23  26
ENDBRANCH   1  22
TORSDOF 7
ENDMDL
MODEL 8
REMARK VINA RESULT:      -6.6      3.026      5.774
REMARK  7 active torsions:
REMARK  status: ('A' for Active; 'I' for Inactive)
REMARK    1  A    between atoms: C2_2  and  C3_3 
REMARK       I    between atoms: C3_3  and  N1_5 
REMARK    2  A    between atoms: N1_5  and  C4_6 
REMARK    3  A    between atoms: C9_13  and  C10_14 
REMARK    4  A    between atoms: C10_14  and  N4_15 
REMARK    5  A    between atoms: C10_14  and  C11_16 
REMARK    6  A    between atoms: C12_17  and  C13_18 
REMARK    7  A    between atoms: C13_18  and  C14_19 
ROOT
HETATM    1  C4  UNL     1      21.287  -0.100  52.344  1.00  0.00     0.035 A 
HETATM    2  C5  UNL     1      20.582  -0.601  53.433  1.00  0.00     0.032 A 
HETATM    3  C6  UNL     1      21.212  -1.036  54.575  1.00  0.00     0.035 A 
HETATM    4  C7  UNL     1      22.583  -0.997  54.691  1.00  0.00     0.070 A 
HETATM    5  N2  UNL     1      23.230  -1.417  55.790  1.00  0.00    -0.241 NA
HETATM    6  C8  UNL     1      24.580  -1.355  55.845  1.00  0.00     0.234 A 
HETATM    7  N3  UNL     1      25.244  -0.870  54.787  1.00  0.00    -0.243 NA
HETATM    8  C9  UNL     1      24.640  -0.436  53.661  1.00  0.00     0.085 A 
HETATM    9  C18 UNL     1      23.273  -0.506  53.621  1.00  0.00     0.022 A 
HETATM   10  C19 UNL     1      22.637  -0.079  52.500  1.00  0.00     0.045 A 
ENDROOT
BRANCH   8  11
HETATM   11  C10 UNL     1      25.553   0.064  52.619  1.00  0.00     0.293 C 
BRANCH  11  12
HETATM   12  N4  UNL     1      26.937   0.004  53.054  1.00  0.00     0.092 N 
HETATM   13  H9  UNL     1      27.506   0.712  52.552  1.00  0.00     0.314 HD
HETATM   14  H10 UNL     1      26.997   0.165  54.078  1.00  0.00     0.314 HD
ENDBRANCH  11  12
BRANCH  11  15
HETATM   15  C11 UNL     1      25.158   1.509  52.393  1.00  0.00     0.010 C 
HETATM   16  C12 UNL     1      25.118   2.252  51.293  1.00  0.00    -0.027 C 
BRANCH  16  17
HETATM   17  C13 UNL     1      24.710   3.664  51.211  1.00  0.00     0.035 C 
BRANCH  17  18
HETATM   18  C14 UNL     1      23.493   3.842  50.296  1.00  0.00    -0.048 C 
HETATM   19  C15 UNL     1      23.806   4.758  49.151  1.00  0.00     0.014 C 
HETATM   20  C16 UNL     1      23.108   2.489  49.737  1.00  0.00     0.014 C 
HETATM   21  C17 UNL     1      22.333   4.351  51.124  1.00  0.00     0.014 C 
ENDBRANCH  17  18
ENDBRANCH  16  17
ENDBRANCH  11  15
ENDBRANCH   8  11
BRANCH   1  22
HETATM   22  N1  UNL     1      20.515   0.315  51.229  1.00  0.00    -0.324 N 
HETATM   23  C3  UNL     1      19.730   1.483  51.075  1.00  0.00     0.244 C 
HETATM   24  O1  UNL     1      19.677   2.288  52.015  1.00  0.00    -0.268 OA
HETATM   25  H4  UNL     1      20.480  -0.291  50.363  1.00  0.00     0.169 HD
BRANCH  23  26
HETATM   26  C2  UNL     1      18.982   1.783  49.865  1.00  0.00     0.064 C 
HETATM   27  C1  UNL     1      19.433   2.612  48.952  1.00  0.00     0.017 C 
ENDBRANCH  23  26
ENDBRANCH   1  22
TORSDOF 7
ENDMDL
MODEL 9
REMARK VINA RESULT:      -6.5      2.120      2.989
REMARK  7 active torsions:
REMARK  status: ('A' for Active; 'I' for Inactive)
REMARK    1  A    between atoms: C2_2  and  C3_3 
REMARK       I    between atoms: C3_3  and  N1_5 
REMARK    2  A    between atoms: N1_5  and  C4_6 
REMARK    3  A    between atoms: C9_13  and  C10_14 
REMARK    4  A    between atoms: C10_14  and  N4_15 
REMARK    5  A    between atoms: C10_14  and  C11_16 
REMARK    6  A    between atoms: C12_17  and  C13_18 
REMARK    7  A    between atoms: C13_18  and  C14_19 
ROOT
HETATM    1  C4  UNL     1      25.125  -0.639  54.303  1.00  0.00     0.035 A 
HETATM    2  C5  UNL     1      24.442  -1.343  55.289  1.00  0.00     0.032 A 
HETATM    3  C6  UNL     1      23.071  -1.321  55.387  1.00  0.00     0.035 A 
HETATM    4  C7  UNL     1      22.305  -0.592  54.505  1.00  0.00     0.070 A 
HETATM    5  N2  UNL     1      20.965  -0.547  54.574  1.00  0.00    -0.241 NA
HETATM    6  C8  UNL     1      20.267   0.189  53.679  1.00  0.00     0.234 A 
HETATM    7  N3  UNL     1      20.940   0.861  52.736  1.00  0.00    -0.243 NA
HETATM    8  C9  UNL     1      22.285   0.847  52.625  1.00  0.00     0.085 A 
HETATM    9  C18 UNL     1      22.977   0.098  53.539  1.00  0.00     0.022 A 
HETATM   10  C19 UNL     1      24.332   0.067  53.454  1.00  0.00     0.045 A 
ENDROOT
BRANCH   8  11
HETATM   11  C10 UNL     1      22.826   1.649  51.514  1.00  0.00     0.293 C 
BRANCH  11  12
HETATM   12  N4  UNL     1      24.262   1.472  51.385  1.00  0.00     0.092 N 
HETATM   13  H9  UNL     1      24.745   2.390  51.428  1.00  0.00     0.314 HD
HETATM   14  H10 UNL     1      24.615   0.852  52.138  1.00  0.00     0.314 HD
ENDBRANCH  11  12
BRANCH  11  15
HETATM   15  C11 UNL     1      22.526   3.091  51.871  1.00  0.00     0.010 C 
HETATM   16  C12 UNL     1      22.355   4.169  51.115  1.00  0.00    -0.027 C 
BRANCH  16  17
HETATM   17  C13 UNL     1      22.064   5.531  51.595  1.00  0.00     0.035 C 
BRANCH  17  18
HETATM   18  C14 UNL     1      22.399   6.582  50.531  1.00  0.00    -0.048 C 
HETATM   19  C15 UNL     1      21.316   7.613  50.430  1.00  0.00     0.014 C 
HETATM   20  C16 UNL     1      23.687   7.274  50.924  1.00  0.00     0.014 C 
HETATM   21  C17 UNL     1      22.632   5.879  49.211  1.00  0.00     0.014 C 
ENDBRANCH  17  18
ENDBRANCH  16  17
ENDBRANCH  11  15
ENDBRANCH   8  11
BRANCH   1  22
HETATM   22  N1  UNL     1      26.538  -0.747  54.315  1.00  0.00    -0.324 N 
HETATM   23  C3  UNL     1      27.507   0.257  54.556  1.00  0.00     0.244 C 
HETATM   24  O1  UNL     1      27.117   1.408  54.796  1.00  0.00    -0.268 OA
HETATM   25  H4  UNL     1      26.992  -1.683  54.123  1.00  0.00     0.169 HD
BRANCH  23  26
HETATM   26  C2  UNL     1      28.938   0.002  54.535  1.00  0.00     0.064 C 
HETATM   27  C1  UNL     1      29.482  -0.866  53.714  1.00  0.00     0.017 C 
ENDBRANCH  23  26
ENDBRANCH   1  22
TORSDOF 7
ENDMDL
