MODEL 1
REMARK VINA RESULT:      -8.7      0.000      0.000
REMARK  3 active torsions:
REMARK  status: ('A' for Active; 'I' for Inactive)
REMARK    1  A    between atoms: C14_18  and  C15_19 
REMARK    2  A    between atoms: C15_19  and  O3_21 
REMARK    3  A    between atoms: C18_24  and  N3_25 
ROOT
HETATM    1  C1  UNL     1      21.822  -0.459  55.043  1.00  0.00     0.055 C 
HETATM    2  C2  UNL     1      21.136  -0.208  53.704  1.00  0.00     0.139 C 
HETATM    3  F1  UNL     1      20.795   1.156  53.791  1.00  0.00    -0.240 F 
HETATM    4  C3  UNL     1      19.887  -0.984  53.556  1.00  0.00     0.044 C 
HETATM    5  C4  UNL     1      19.034  -0.317  52.796  1.00  0.00     0.024 C 
HETATM    6  C5  UNL     1      17.726  -0.286  52.176  1.00  0.00    -0.019 C 
HETATM    7  C6  UNL     1      17.553   0.829  51.483  1.00  0.00     0.028 C 
HETATM    8  C7  UNL     1      18.638   1.831  51.430  1.00  0.00     0.062 A 
HETATM    9  C8  UNL     1      19.710   1.173  50.891  1.00  0.00     0.089 A 
HETATM   10  C9  UNL     1      20.899   1.862  50.783  1.00  0.00     0.173 A 
HETATM   11  N1  UNL     1      20.965   3.161  51.206  1.00  0.00    -0.217 NA
HETATM   12  C10 UNL     1      19.872   3.763  51.729  1.00  0.00     0.236 A 
HETATM   13  N2  UNL     1      18.716   3.087  51.836  1.00  0.00    -0.242 NA
HETATM   14  O1  UNL     1      22.177   1.497  50.301  1.00  0.00    -0.291 OA
HETATM   15  C11 UNL     1      23.112   1.372  51.366  1.00  0.00     0.086 A 
HETATM   16  C12 UNL     1      24.087   2.351  51.141  1.00  0.00     0.039 A 
HETATM   17  C13 UNL     1      25.174   2.519  52.007  1.00  0.00     0.021 A 
HETATM   18  C14 UNL     1      25.270   1.688  53.104  1.00  0.00     0.038 A 
HETATM   19  C16 UNL     1      24.292   0.740  53.289  1.00  0.00     0.030 A 
HETATM   20  C17 UNL     1      23.210   0.523  52.487  1.00  0.00     0.013 A 
HETATM   21  C18 UNL     1      22.127  -0.475  52.613  1.00  0.00     0.293 C 
ENDROOT
BRANCH  18  22
HETATM   22  C15 UNL     1      26.369   1.797  54.054  1.00  0.00     0.176 C 
HETATM   23  O2  UNL     1      26.444   0.945  54.967  1.00  0.00    -0.646 OA
BRANCH  22  24
HETATM   24  O3  UNL     1      27.300   2.817  53.945  1.00  0.00    -0.773 OA
HETATM   25  H12 UNL     1      28.269   2.712  54.221  1.00  0.00     0.167 HD
ENDBRANCH  22  24
ENDBRANCH  18  22
BRANCH  21  26
HETATM   26  N3  UNL     1      22.709  -1.800  52.982  1.00  0.00     0.090 N 
HETATM   27  H15 UNL     1      23.095  -1.723  53.946  1.00  0.00     0.313 HD
HETATM   28  H16 UNL     1      21.891  -2.436  53.064  1.00  0.00     0.313 HD
ENDBRANCH  21  26
TORSDOF 3
ENDMDL
MODEL 2
REMARK VINA RESULT:      -8.5      2.615      4.135
REMARK  3 active torsions:
REMARK  status: ('A' for Active; 'I' for Inactive)
REMARK    1  A    between atoms: C14_18  and  C15_19 
REMARK    2  A    between atoms: C15_19  and  O3_21 
REMARK    3  A    between atoms: C18_24  and  N3_25 
ROOT
HETATM    1  C1  UNL     1      26.026   2.457  53.548  1.00  0.00     0.055 C 
HETATM    2  C2  UNL     1      24.896   1.555  53.058  1.00  0.00     0.139 C 
HETATM    3  F1  UNL     1      23.750   2.312  53.368  1.00  0.00    -0.240 F 
HETATM    4  C3  UNL     1      24.822   0.284  53.809  1.00  0.00     0.044 C 
HETATM    5  C4  UNL     1      23.569  -0.135  53.856  1.00  0.00     0.024 C 
HETATM    6  C5  UNL     1      22.643  -1.150  54.313  1.00  0.00    -0.019 C 
HETATM    7  C6  UNL     1      21.404  -0.868  53.941  1.00  0.00     0.028 C 
HETATM    8  C7  UNL     1      21.138   0.359  53.161  1.00  0.00     0.062 A 
HETATM    9  C8  UNL     1      21.890   0.233  52.024  1.00  0.00     0.089 A 
HETATM   10  C9  UNL     1      21.883   1.281  51.130  1.00  0.00     0.173 A 
HETATM   11  N1  UNL     1      21.132   2.392  51.400  1.00  0.00    -0.217 NA
HETATM   12  C10 UNL     1      20.405   2.461  52.539  1.00  0.00     0.236 A 
HETATM   13  N2  UNL     1      20.417   1.438  53.411  1.00  0.00    -0.242 NA
HETATM   14  O1  UNL     1      22.538   1.491  49.894  1.00  0.00    -0.291 OA
HETATM   15  C11 UNL     1      23.564   2.469  50.016  1.00  0.00     0.086 A 
HETATM   16  C12 UNL     1      23.183   3.532  49.187  1.00  0.00     0.039 A 
HETATM   17  C13 UNL     1      23.969   4.684  49.062  1.00  0.00     0.021 A 
HETATM   18  C14 UNL     1      25.144   4.756  49.781  1.00  0.00     0.038 A 
HETATM   19  C16 UNL     1      25.481   3.691  50.583  1.00  0.00     0.030 A 
HETATM   20  C17 UNL     1      24.764   2.542  50.751  1.00  0.00     0.013 A 
HETATM   21  C18 UNL     1      25.062   1.357  51.583  1.00  0.00     0.293 C 
ENDROOT
BRANCH  18  22
HETATM   22  C15 UNL     1      26.018   5.918  49.707  1.00  0.00     0.176 C 
HETATM   23  O2  UNL     1      26.793   6.012  48.730  1.00  0.00    -0.646 OA
BRANCH  22  24
HETATM   24  O3  UNL     1      25.988   6.889  50.696  1.00  0.00    -0.773 OA
HETATM   25  H12 UNL     1      25.139   7.161  51.177  1.00  0.00     0.167 HD
ENDBRANCH  22  24
ENDBRANCH  18  22
BRANCH  21  26
HETATM   26  N3  UNL     1      26.503   0.993  51.436  1.00  0.00     0.090 N 
HETATM   27  H15 UNL     1      26.584   0.307  50.657  1.00  0.00     0.313 HD
HETATM   28  H16 UNL     1      26.962   1.858  51.088  1.00  0.00     0.313 HD
ENDBRANCH  21  26
TORSDOF 3
ENDMDL
MODEL 3
REMARK VINA RESULT:      -8.0      2.901      5.943
REMARK  3 active torsions:
REMARK  status: ('A' for Active; 'I' for Inactive)
REMARK    1  A    between atoms: C14_18  and  C15_19 
REMARK    2  A    between atoms: C15_19  and  O3_21 
REMARK    3  A    between atoms: C18_24  and  N3_25 
ROOT
HETATM    1  C1  UNL     1      21.935  -1.637  53.703  1.00  0.00     0.055 C 
HETATM    2  C2  UNL     1      21.964  -0.229  53.114  1.00  0.00     0.139 C 
HETATM    3  F1  UNL     1      21.893  -0.481  51.730  1.00  0.00    -0.240 F 
HETATM    4  C3  UNL     1      23.237   0.470  53.386  1.00  0.00     0.044 C 
HETATM    5  C4  UNL     1      23.506   1.310  52.401  1.00  0.00     0.024 C 
HETATM    6  C5  UNL     1      24.416   2.298  51.859  1.00  0.00    -0.019 C 
HETATM    7  C6  UNL     1      23.978   2.765  50.700  1.00  0.00     0.028 C 
HETATM    8  C7  UNL     1      22.708   2.256  50.141  1.00  0.00     0.062 A 
HETATM    9  C8  UNL     1      21.759   2.545  51.085  1.00  0.00     0.089 A 
HETATM   10  C9  UNL     1      20.470   2.119  50.850  1.00  0.00     0.173 A 
HETATM   11  N1  UNL     1      20.184   1.439  49.698  1.00  0.00    -0.217 NA
HETATM   12  C10 UNL     1      21.162   1.184  48.798  1.00  0.00     0.236 A 
HETATM   13  N2  UNL     1      22.419   1.598  49.033  1.00  0.00    -0.242 NA
HETATM   14  O1  UNL     1      19.274   2.227  51.597  1.00  0.00    -0.291 OA
HETATM   15  C11 UNL     1      18.887   0.968  52.133  1.00  0.00     0.086 A 
HETATM   16  C12 UNL     1      17.655   0.659  51.542  1.00  0.00     0.039 A 
HETATM   17  C13 UNL     1      16.973  -0.526  51.842  1.00  0.00     0.021 A 
HETATM   18  C14 UNL     1      17.544  -1.399  52.743  1.00  0.00     0.038 A 
HETATM   19  C16 UNL     1      18.753  -1.059  53.301  1.00  0.00     0.030 A 
HETATM   20  C17 UNL     1      19.470   0.076  53.055  1.00  0.00     0.013 A 
HETATM   21  C18 UNL     1      20.765   0.514  53.616  1.00  0.00     0.293 C 
ENDROOT
BRANCH  18  22
HETATM   22  C15 UNL     1      16.900  -2.653  53.109  1.00  0.00     0.176 C 
HETATM   23  O2  UNL     1      17.624  -3.594  53.502  1.00  0.00    -0.646 OA
BRANCH  22  24
HETATM   24  O3  UNL     1      15.524  -2.794  53.021  1.00  0.00    -0.773 OA
HETATM   25  H12 UNL     1      14.901  -2.019  52.832  1.00  0.00     0.167 HD
ENDBRANCH  22  24
ENDBRANCH  18  22
BRANCH  21  26
HETATM   26  N3  UNL     1      20.784   0.258  55.088  1.00  0.00     0.090 N 
HETATM   27  H15 UNL     1      21.716   0.545  55.452  1.00  0.00     0.313 HD
HETATM   28  H16 UNL     1      20.111   0.943  55.485  1.00  0.00     0.313 HD
ENDBRANCH  21  26
TORSDOF 3
ENDMDL
MODEL 4
REMARK VINA RESULT:      -7.9      2.940      5.266
REMARK  3 active torsions:
REMARK  status: ('A' for Active; 'I' for Inactive)
REMARK    1  A    between atoms: C14_18  and  C15_19 
REMARK    2  A    between atoms: C15_19  and  O3_21 
REMARK    3  A    between atoms: C18_24  and  N3_25 
ROOT
HETATM    1  C1  UNL     1      25.435   1.794  51.655  1.00  0.00     0.055 C 
HETATM    2  C2  UNL     1      24.497   2.883  51.142  1.00  0.00     0.139 C 
HETATM    3  F1  UNL     1      23.779   2.211  50.134  1.00  0.00    -0.240 F 
HETATM    4  C3  UNL     1      25.224   4.006  50.514  1.00  0.00     0.044 C 
HETATM    5  C4  UNL     1      24.482   4.543  49.561  1.00  0.00     0.024 C 
HETATM    6  C5  UNL     1      24.370   5.557  48.534  1.00  0.00    -0.019 C 
HETATM    7  C6  UNL     1      23.203   5.477  47.911  1.00  0.00     0.028 C 
HETATM    8  C7  UNL     1      22.231   4.440  48.312  1.00  0.00     0.062 A 
HETATM    9  C8  UNL     1      21.975   4.679  49.635  1.00  0.00     0.089 A 
HETATM   10  C9  UNL     1      21.135   3.807  50.294  1.00  0.00     0.173 A 
HETATM   11  N1  UNL     1      20.589   2.754  49.614  1.00  0.00    -0.217 NA
HETATM   12  C10 UNL     1      20.875   2.567  48.304  1.00  0.00     0.236 A 
HETATM   13  N2  UNL     1      21.698   3.417  47.667  1.00  0.00    -0.242 NA
HETATM   14  O1  UNL     1      20.676   3.745  51.631  1.00  0.00    -0.291 OA
HETATM   15  C11 UNL     1      21.270   2.656  52.327  1.00  0.00     0.086 A 
HETATM   16  C12 UNL     1      20.218   1.799  52.673  1.00  0.00     0.039 A 
HETATM   17  C13 UNL     1      20.440   0.609  53.375  1.00  0.00     0.021 A 
HETATM   18  C14 UNL     1      21.734   0.288  53.727  1.00  0.00     0.038 A 
HETATM   19  C16 UNL     1      22.738   1.156  53.369  1.00  0.00     0.030 A 
HETATM   20  C17 UNL     1      22.593   2.329  52.687  1.00  0.00     0.013 A 
HETATM   21  C18 UNL     1      23.615   3.313  52.274  1.00  0.00     0.293 C 
ENDROOT
BRANCH  18  22
HETATM   22  C15 UNL     1      22.051  -0.931  54.457  1.00  0.00     0.176 C 
HETATM   23  O2  UNL     1      23.253  -1.182  54.691  1.00  0.00    -0.646 OA
BRANCH  22  24
HETATM   24  O3  UNL     1      21.044  -1.786  54.878  1.00  0.00    -0.773 OA
HETATM   25  H12 UNL     1      20.991  -2.156  55.819  1.00  0.00     0.167 HD
ENDBRANCH  22  24
ENDBRANCH  18  22
BRANCH  21  26
HETATM   26  N3  UNL     1      24.573   3.541  53.398  1.00  0.00     0.090 N 
HETATM   27  H15 UNL     1      24.184   3.082  54.249  1.00  0.00     0.313 HD
HETATM   28  H16 UNL     1      25.414   2.985  53.147  1.00  0.00     0.313 HD
ENDBRANCH  21  26
TORSDOF 3
ENDMDL
MODEL 5
REMARK VINA RESULT:      -7.9      2.584      4.157
REMARK  3 active torsions:
REMARK  status: ('A' for Active; 'I' for Inactive)
REMARK    1  A    between atoms: C14_18  and  C15_19 
REMARK    2  A    between atoms: C15_19  and  O3_21 
REMARK    3  A    between atoms: C18_24  and  N3_25 
ROOT
HETATM    1  C1  UNL     1      24.512   5.356  50.767  1.00  0.00     0.055 C 
HETATM    2  C2  UNL     1      23.135   4.747  51.015  1.00  0.00     0.139 C 
HETATM    3  F1  UNL     1      23.054   3.766  50.007  1.00  0.00    -0.240 F 
HETATM    4  C3  UNL     1      22.041   5.717  50.798  1.00  0.00     0.044 C 
HETATM    5  C4  UNL     1      20.960   5.085  50.375  1.00  0.00     0.024 C 
HETATM    6  C5  UNL     1      19.578   5.188  49.955  1.00  0.00    -0.019 C 
HETATM    7  C6  UNL     1      19.084   3.999  49.644  1.00  0.00     0.028 C 
HETATM    8  C7  UNL     1      19.941   2.801  49.757  1.00  0.00     0.062 A 
HETATM    9  C8  UNL     1      20.326   2.756  51.070  1.00  0.00     0.089 A 
HETATM   10  C9  UNL     1      21.197   1.758  51.450  1.00  0.00     0.173 A 
HETATM   11  N1  UNL     1      21.637   0.857  50.520  1.00  0.00    -0.217 NA
HETATM   12  C10 UNL     1      21.221   0.947  49.235  1.00  0.00     0.236 A 
HETATM   13  N2  UNL     1      20.374   1.924  48.868  1.00  0.00    -0.242 NA
HETATM   14  O1  UNL     1      21.799   1.431  52.688  1.00  0.00    -0.291 OA
HETATM   15  C11 UNL     1      23.190   1.731  52.678  1.00  0.00     0.086 A 
HETATM   16  C12 UNL     1      23.849   0.506  52.841  1.00  0.00     0.039 A 
HETATM   17  C13 UNL     1      25.246   0.423  52.876  1.00  0.00     0.021 A 
HETATM   18  C14 UNL     1      25.974   1.587  52.746  1.00  0.00     0.038 A 
HETATM   19  C16 UNL     1      25.289   2.768  52.588  1.00  0.00     0.030 A 
HETATM   20  C17 UNL     1      23.933   2.921  52.545  1.00  0.00     0.013 A 
HETATM   21  C18 UNL     1      23.127   4.149  52.388  1.00  0.00     0.293 C 
ENDROOT
BRANCH  18  22
HETATM   22  C15 UNL     1      27.430   1.587  52.771  1.00  0.00     0.176 C 
HETATM   23  O2  UNL     1      28.015   0.514  53.036  1.00  0.00    -0.646 OA
BRANCH  22  24
HETATM   24  O3  UNL     1      28.142   2.748  52.510  1.00  0.00    -0.773 OA
HETATM   25  H12 UNL     1      28.046   3.590  53.063  1.00  0.00     0.167 HD
ENDBRANCH  22  24
ENDBRANCH  18  22
BRANCH  21  26
HETATM   26  N3  UNL     1      23.693   5.233  53.246  1.00  0.00     0.090 N 
HETATM   27  H15 UNL     1      24.009   4.802  54.140  1.00  0.00     0.313 HD
HETATM   28  H16 UNL     1      24.563   5.528  52.761  1.00  0.00     0.313 HD
ENDBRANCH  21  26
TORSDOF 3
ENDMDL
MODEL 6
REMARK VINA RESULT:      -7.7      2.434      5.547
REMARK  3 active torsions:
REMARK  status: ('A' for Active; 'I' for Inactive)
REMARK    1  A    between atoms: C14_18  and  C15_19 
REMARK    2  A    between atoms: C15_19  and  O3_21 
REMARK    3  A    between atoms: C18_24  and  N3_25 
ROOT
HETATM    1  C1  UNL     1      20.921   0.274  51.207  1.00  0.00     0.055 C 
HETATM    2  C2  UNL     1      21.957   0.463  52.312  1.00  0.00     0.139 C 
HETATM    3  F1  UNL     1      23.086  -0.189  51.780  1.00  0.00    -0.240 F 
HETATM    4  C3  UNL     1      21.578  -0.226  53.564  1.00  0.00     0.044 C 
HETATM    5  C4  UNL     1      22.667  -0.607  54.211  1.00  0.00     0.024 C 
HETATM    6  C5  UNL     1      23.220  -1.265  55.376  1.00  0.00    -0.019 C 
HETATM    7  C6  UNL     1      24.544  -1.269  55.337  1.00  0.00     0.028 C 
HETATM    8  C7  UNL     1      25.243  -0.647  54.194  1.00  0.00     0.062 A 
HETATM    9  C8  UNL     1      24.835   0.660  54.191  1.00  0.00     0.089 A 
HETATM   10  C9  UNL     1      25.290   1.473  53.175  1.00  0.00     0.173 A 
HETATM   11  N1  UNL     1      26.124   0.957  52.222  1.00  0.00    -0.217 NA
HETATM   12  C10 UNL     1      26.497  -0.343  52.275  1.00  0.00     0.236 A 
HETATM   13  N2  UNL     1      26.048  -1.133  53.266  1.00  0.00    -0.242 NA
HETATM   14  O1  UNL     1      25.063   2.833  52.862  1.00  0.00    -0.291 OA
HETATM   15  C11 UNL     1      24.244   2.966  51.707  1.00  0.00     0.086 A 
HETATM   16  C12 UNL     1      25.034   3.609  50.746  1.00  0.00     0.039 A 
HETATM   17  C13 UNL     1      24.543   3.904  49.469  1.00  0.00     0.021 A 
HETATM   18  C14 UNL     1      23.246   3.543  49.167  1.00  0.00     0.038 A 
HETATM   19  C16 UNL     1      22.505   2.913  50.138  1.00  0.00     0.030 A 
HETATM   20  C17 UNL     1      22.919   2.597  51.399  1.00  0.00     0.013 A 
HETATM   21  C18 UNL     1      22.184   1.932  52.495  1.00  0.00     0.293 C 
ENDROOT
BRANCH  18  22
HETATM   22  C15 UNL     1      22.659   3.812  47.862  1.00  0.00     0.176 C 
HETATM   23  O2  UNL     1      22.644   4.995  47.455  1.00  0.00    -0.646 OA
BRANCH  22  24
HETATM   24  O3  UNL     1      22.133   2.783  47.097  1.00  0.00    -0.773 OA
HETATM   25  H12 UNL     1      21.226   2.371  47.276  1.00  0.00     0.167 HD
ENDBRANCH  22  24
ENDBRANCH  18  22
BRANCH  21  26
HETATM   26  N3  UNL     1      20.803   2.493  52.583  1.00  0.00     0.090 N 
HETATM   27  H15 UNL     1      20.624   2.752  53.576  1.00  0.00     0.313 HD
HETATM   28  H16 UNL     1      20.849   3.395  52.069  1.00  0.00     0.313 HD
ENDBRANCH  21  26
TORSDOF 3
ENDMDL
MODEL 7
REMARK VINA RESULT:      -7.7     10.564     13.397
REMARK  3 active torsions:
REMARK  status: ('A' for Active; 'I' for Inactive)
REMARK    1  A    between atoms: C14_18  and  C15_19 
REMARK    2  A    between atoms: C15_19  and  O3_21 
REMARK    3  A    between atoms: C18_24  and  N3_25 
ROOT
HETATM    1  C1  UNL     1      29.451   5.413  48.226  1.00  0.00     0.055 C 
HETATM    2  C2  UNL     1      30.847   5.766  47.718  1.00  0.00     0.139 C 
HETATM    3  F1  UNL     1      30.569   6.400  46.492  1.00  0.00    -0.240 F 
HETATM    4  C3  UNL     1      31.665   4.568  47.439  1.00  0.00     0.044 C 
HETATM    5  C4  UNL     1      32.511   4.823  46.455  1.00  0.00     0.024 C 
HETATM    6  C5  UNL     1      33.571   4.326  45.604  1.00  0.00    -0.019 C 
HETATM    7  C6  UNL     1      33.979   5.258  44.755  1.00  0.00     0.028 C 
HETATM    8  C7  UNL     1      33.347   6.593  44.780  1.00  0.00     0.062 A 
HETATM    9  C8  UNL     1      33.560   7.068  46.047  1.00  0.00     0.089 A 
HETATM   10  C9  UNL     1      33.014   8.290  46.374  1.00  0.00     0.173 A 
HETATM   11  N1  UNL     1      32.293   8.979  45.438  1.00  0.00    -0.217 NA
HETATM   12  C10 UNL     1      32.117   8.463  44.199  1.00  0.00     0.236 A 
HETATM   13  N2  UNL     1      32.648   7.269  43.885  1.00  0.00    -0.242 NA
HETATM   14  O1  UNL     1      33.021   9.056  47.564  1.00  0.00    -0.291 OA
HETATM   15  C11 UNL     1      31.739   9.061  48.180  1.00  0.00     0.086 A 
HETATM   16  C12 UNL     1      31.309  10.393  48.164  1.00  0.00     0.039 A 
HETATM   17  C13 UNL     1      30.071  10.772  48.695  1.00  0.00     0.021 A 
HETATM   18  C14 UNL     1      29.267   9.794  49.243  1.00  0.00     0.038 A 
HETATM   19  C16 UNL     1      29.726   8.498  49.238  1.00  0.00     0.030 A 
HETATM   20  C17 UNL     1      30.919   8.061  48.740  1.00  0.00     0.013 A 
HETATM   21  C18 UNL     1      31.483   6.696  48.705  1.00  0.00     0.293 C 
ENDROOT
BRANCH  18  22
HETATM   22  C15 UNL     1      27.964  10.103  49.815  1.00  0.00     0.176 C 
HETATM   23  O2  UNL     1      27.144  10.730  49.109  1.00  0.00    -0.646 OA
BRANCH  22  24
HETATM   24  O3  UNL     1      27.648   9.712  51.107  1.00  0.00    -0.773 OA
HETATM   25  H12 UNL     1      27.828   8.781  51.461  1.00  0.00     0.167 HD
ENDBRANCH  22  24
ENDBRANCH  18  22
BRANCH  21  26
HETATM   26  N3  UNL     1      31.251   6.025  50.020  1.00  0.00     0.090 N 
HETATM   27  H15 UNL     1      31.444   6.718  50.772  1.00  0.00     0.313 HD
HETATM   28  H16 UNL     1      30.226   5.859  50.056  1.00  0.00     0.313 HD
ENDBRANCH  21  26
TORSDOF 3
ENDMDL
MODEL 8
REMARK VINA RESULT:      -7.6      3.009      5.456
REMARK  3 active torsions:
REMARK  status: ('A' for Active; 'I' for Inactive)
REMARK    1  A    between atoms: C14_18  and  C15_19 
REMARK    2  A    between atoms: C15_19  and  O3_21 
REMARK    3  A    between atoms: C18_24  and  N3_25 
ROOT
HETATM    1  C1  UNL     1      19.627   2.327  49.838  1.00  0.00     0.055 C 
HETATM    2  C2  UNL     1      21.050   2.822  49.597  1.00  0.00     0.139 C 
HETATM    3  F1  UNL     1      21.236   3.732  50.656  1.00  0.00    -0.240 F 
HETATM    4  C3  UNL     1      21.181   3.566  48.327  1.00  0.00     0.044 C 
HETATM    5  C4  UNL     1      22.125   4.485  48.442  1.00  0.00     0.024 C 
HETATM    6  C5  UNL     1      22.865   5.554  47.804  1.00  0.00    -0.019 C 
HETATM    7  C6  UNL     1      23.756   6.076  48.633  1.00  0.00     0.028 C 
HETATM    8  C7  UNL     1      23.877   5.544  50.005  1.00  0.00     0.062 A 
HETATM    9  C8  UNL     1      24.187   4.219  49.851  1.00  0.00     0.089 A 
HETATM   10  C9  UNL     1      24.297   3.449  50.989  1.00  0.00     0.173 A 
HETATM   11  N1  UNL     1      24.103   4.025  52.214  1.00  0.00    -0.217 NA
HETATM   12  C10 UNL     1      23.802   5.341  52.307  1.00  0.00     0.236 A 
HETATM   13  N2  UNL     1      23.692   6.088  51.195  1.00  0.00    -0.242 NA
HETATM   14  O1  UNL     1      24.581   2.079  51.195  1.00  0.00    -0.291 OA
HETATM   15  C11 UNL     1      23.424   1.373  51.629  1.00  0.00     0.086 A 
HETATM   16  C12 UNL     1      23.721   0.899  52.912  1.00  0.00     0.039 A 
HETATM   17  C13 UNL     1      22.796   0.153  53.653  1.00  0.00     0.021 A 
HETATM   18  C14 UNL     1      21.567  -0.111  53.086  1.00  0.00     0.038 A 
HETATM   19  C16 UNL     1      21.315   0.372  51.824  1.00  0.00     0.030 A 
HETATM   20  C17 UNL     1      22.168   1.103  51.049  1.00  0.00     0.013 A 
HETATM   21  C18 UNL     1      21.976   1.649  49.690  1.00  0.00     0.293 C 
ENDROOT
BRANCH  18  22
HETATM   22  C15 UNL     1      20.548  -0.879  53.789  1.00  0.00     0.176 C 
HETATM   23  O2  UNL     1      19.369  -0.806  53.380  1.00  0.00    -0.646 OA
BRANCH  22  24
HETATM   24  O3  UNL     1      20.882  -1.666  54.880  1.00  0.00    -0.773 OA
HETATM   25  H12 UNL     1      20.760  -1.362  55.838  1.00  0.00     0.167 HD
ENDBRANCH  22  24
ENDBRANCH  18  22
BRANCH  21  26
HETATM   26  N3  UNL     1      21.325   0.618  48.825  1.00  0.00     0.090 N 
HETATM   27  H15 UNL     1      20.707   1.111  48.148  1.00  0.00     0.313 HD
HETATM   28  H16 UNL     1      22.098   0.223  48.255  1.00  0.00     0.313 HD
ENDBRANCH  21  26
TORSDOF 3
ENDMDL
MODEL 9
REMARK VINA RESULT:      -7.5      2.688      3.964
REMARK  3 active torsions:
REMARK  status: ('A' for Active; 'I' for Inactive)
REMARK    1  A    between atoms: C14_18  and  C15_19 
REMARK    2  A    between atoms: C15_19  and  O3_21 
REMARK    3  A    between atoms: C18_24  and  N3_25 
ROOT
HETATM    1  C1  UNL     1      24.467   3.084  53.275  1.00  0.00     0.055 C 
HETATM    2  C2  UNL     1      23.537   2.015  52.707  1.00  0.00     0.139 C 
HETATM    3  F1  UNL     1      22.296   2.681  52.677  1.00  0.00    -0.240 F 
HETATM    4  C3  UNL     1      23.407   0.847  53.603  1.00  0.00     0.044 C 
HETATM    5  C4  UNL     1      22.208   0.308  53.463  1.00  0.00     0.024 C 
HETATM    6  C5  UNL     1      21.288  -0.734  53.871  1.00  0.00    -0.019 C 
HETATM    7  C6  UNL     1      20.136  -0.631  53.227  1.00  0.00     0.028 C 
HETATM    8  C7  UNL     1      19.943   0.454  52.244  1.00  0.00     0.062 A 
HETATM    9  C8  UNL     1      20.923   0.268  51.306  1.00  0.00     0.089 A 
HETATM   10  C9  UNL     1      21.020   1.191  50.287  1.00  0.00     0.173 A 
HETATM   11  N1  UNL     1      20.146   2.241  50.244  1.00  0.00    -0.217 NA
HETATM   12  C10 UNL     1      19.195   2.375  51.197  1.00  0.00     0.236 A 
HETATM   13  N2  UNL     1      19.105   1.475  52.191  1.00  0.00    -0.242 NA
HETATM   14  O1  UNL     1      21.900   1.313  49.186  1.00  0.00    -0.291 OA
HETATM   15  C11 UNL     1      22.799   2.401  49.365  1.00  0.00     0.086 A 
HETATM   16  C12 UNL     1      22.518   3.307  48.335  1.00  0.00     0.039 A 
HETATM   17  C13 UNL     1      23.221   4.510  48.202  1.00  0.00     0.021 A 
HETATM   18  C14 UNL     1      24.212   4.793  49.119  1.00  0.00     0.038 A 
HETATM   19  C16 UNL     1      24.456   3.878  50.115  1.00  0.00     0.030 A 
HETATM   20  C17 UNL     1      23.812   2.689  50.302  1.00  0.00     0.013 A 
HETATM   21  C18 UNL     1      24.020   1.655  51.336  1.00  0.00     0.293 C 
ENDROOT
BRANCH  18  22
HETATM   22  C15 UNL     1      24.989   6.023  49.053  1.00  0.00     0.176 C 
HETATM   23  O2  UNL     1      25.785   6.267  49.987  1.00  0.00    -0.646 OA
BRANCH  22  24
HETATM   24  O3  UNL     1      24.847   6.894  47.984  1.00  0.00    -0.773 OA
HETATM   25  H12 UNL     1      25.399   6.825  47.139  1.00  0.00     0.167 HD
ENDBRANCH  22  24
ENDBRANCH  18  22
BRANCH  21  26
HETATM   26  N3  UNL     1      25.485   1.428  51.528  1.00  0.00     0.090 N 
HETATM   27  H15 UNL     1      25.603   0.639  52.196  1.00  0.00     0.313 HD
HETATM   28  H16 UNL     1      25.819   1.067  50.613  1.00  0.00     0.313 HD
ENDBRANCH  21  26
TORSDOF 3
ENDMDL
