MODEL 1
REMARK VINA RESULT:      -7.9      0.000      0.000
REMARK  3 active torsions:
REMARK  status: ('A' for Active; 'I' for Inactive)
REMARK    1  A    between atoms: C7_9  and  P1_10 
REMARK    2  A    between atoms: C10_13  and  N3_14 
REMARK    3  A    between atoms: N3_14  and  C11_15 
ROOT
HETATM    1  N1  UNL     1      21.920  -1.599  54.961  1.00  0.00    -0.191 NA
HETATM    2  C1  UNL     1      22.009  -0.932  54.004  1.00  0.00     0.103 C 
HETATM    3  C2  UNL     1      22.114  -0.097  52.828  1.00  0.00     0.089 A 
HETATM    4  C3  UNL     1      21.042  -0.163  51.961  1.00  0.00     0.142 A 
HETATM    5  N2  UNL     1      21.075   0.596  50.835  1.00  0.00    -0.259 NA
HETATM    6  C4  UNL     1      22.151   1.382  50.609  1.00  0.00     0.069 A 
HETATM    7  C5  UNL     1      22.147   2.144  49.445  1.00  0.00     0.033 A 
HETATM    8  C6  UNL     1      23.231   2.965  49.174  1.00  0.00     0.014 A 
HETATM    9  C7  UNL     1      24.300   3.016  50.062  1.00  0.00    -0.036 A 
HETATM   10  C8  UNL     1      24.295   2.257  51.213  1.00  0.00     0.028 A 
HETATM   11  C9  UNL     1      23.211   1.436  51.485  1.00  0.00     0.022 A 
HETATM   12  C10 UNL     1      23.240   0.683  52.657  1.00  0.00     0.067 A 
ENDROOT
BRANCH  12  13
HETATM   13  N3  UNL     1      24.309   0.721  53.566  1.00  0.00    -0.354 N 
HETATM   14  H7  UNL     1      23.905   1.207  54.396  1.00  0.00     0.166 HD
BRANCH  13  15
HETATM   15  C11 UNL     1      25.629   0.238  53.448  1.00  0.00     0.033 A 
HETATM   16  C12 UNL     1      25.834  -0.995  52.911  1.00  0.00     0.029 A 
HETATM   17  C13 UNL     1      27.144  -1.457  52.801  1.00  0.00     0.004 A 
HETATM   18  C14 UNL     1      28.170  -0.625  53.250  1.00  0.00     0.019 A 
HETATM   19  C15 UNL     1      27.930   0.621  53.790  1.00  0.00     0.013 A 
HETATM   20 BR1  UNL     1      29.342   1.720  54.387  1.00  0.00    -0.051 Br
HETATM   21  C16 UNL     1      26.616   1.090  53.902  1.00  0.00     0.048 A 
ENDBRANCH  13  15
ENDBRANCH  12  13
BRANCH   9  22
HETATM   22  P1  UNL     1      25.729   4.084  49.727  1.00  0.00    -0.106 P 
HETATM   23  H4  UNL     1      25.822   4.490  48.349  1.00  0.00     0.059 HD
HETATM   24  H5  UNL     1      26.958   3.573  50.262  1.00  0.00     0.059 HD
ENDBRANCH   9  22
TORSDOF 3
ENDMDL
MODEL 2
REMARK VINA RESULT:      -7.8      3.103      5.727
REMARK  3 active torsions:
REMARK  status: ('A' for Active; 'I' for Inactive)
REMARK    1  A    between atoms: C7_9  and  P1_10 
REMARK    2  A    between atoms: C10_13  and  N3_14 
REMARK    3  A    between atoms: N3_14  and  C11_15 
ROOT
HETATM    1  N1  UNL     1      27.886   1.878  52.337  1.00  0.00    -0.191 NA
HETATM    2  C1  UNL     1      26.965   1.313  52.785  1.00  0.00     0.103 C 
HETATM    3  C2  UNL     1      25.824   0.626  53.347  1.00  0.00     0.089 A 
HETATM    4  C3  UNL     1      26.095  -0.169  54.443  1.00  0.00     0.142 A 
HETATM    5  N2  UNL     1      25.067  -0.844  55.020  1.00  0.00    -0.259 NA
HETATM    6  C4  UNL     1      23.826  -0.712  54.502  1.00  0.00     0.069 A 
HETATM    7  C5  UNL     1      22.800  -1.419  55.122  1.00  0.00     0.033 A 
HETATM    8  C6  UNL     1      21.512  -1.312  54.623  1.00  0.00     0.014 A 
HETATM    9  C7  UNL     1      21.261  -0.505  53.518  1.00  0.00    -0.036 A 
HETATM   10  C8  UNL     1      22.284   0.192  52.910  1.00  0.00     0.028 A 
HETATM   11  C9  UNL     1      23.574   0.086  53.409  1.00  0.00     0.022 A 
HETATM   12  C10 UNL     1      24.583   0.804  52.770  1.00  0.00     0.067 A 
ENDROOT
BRANCH  12  13
HETATM   13  N3  UNL     1      24.350   1.623  51.654  1.00  0.00    -0.354 N 
HETATM   14  H7  UNL     1      24.276   0.944  50.866  1.00  0.00     0.166 HD
BRANCH  13  15
HETATM   15  C11 UNL     1      24.232   3.025  51.555  1.00  0.00     0.033 A 
HETATM   16  C12 UNL     1      23.459   3.687  52.459  1.00  0.00     0.029 A 
HETATM   17  C13 UNL     1      23.353   5.071  52.348  1.00  0.00     0.004 A 
HETATM   18  C14 UNL     1      24.048   5.699  51.314  1.00  0.00     0.019 A 
HETATM   19  C15 UNL     1      24.824   5.001  50.413  1.00  0.00     0.013 A 
HETATM   20 BR1  UNL     1      25.751   5.882  49.027  1.00  0.00    -0.051 Br
HETATM   21  C16 UNL     1      24.934   3.609  50.521  1.00  0.00     0.048 A 
ENDBRANCH  13  15
ENDBRANCH  12  13
BRANCH   9  22
HETATM   22  P1  UNL     1      19.582  -0.351  52.848  1.00  0.00    -0.106 P 
HETATM   23  H4  UNL     1      19.241  -1.401  51.923  1.00  0.00     0.059 HD
HETATM   24  H5  UNL     1      19.281   0.965  52.363  1.00  0.00     0.059 HD
ENDBRANCH   9  22
TORSDOF 3
ENDMDL
MODEL 3
REMARK VINA RESULT:      -7.7      3.175      5.411
REMARK  3 active torsions:
REMARK  status: ('A' for Active; 'I' for Inactive)
REMARK    1  A    between atoms: C7_9  and  P1_10 
REMARK    2  A    between atoms: C10_13  and  N3_14 
REMARK    3  A    between atoms: N3_14  and  C11_15 
ROOT
HETATM    1  N1  UNL     1      22.250  -1.680  55.290  1.00  0.00    -0.191 NA
HETATM    2  C1  UNL     1      22.986  -1.071  54.615  1.00  0.00     0.103 C 
HETATM    3  C2  UNL     1      23.892  -0.325  53.771  1.00  0.00     0.089 A 
HETATM    4  C3  UNL     1      25.186  -0.802  53.730  1.00  0.00     0.142 A 
HETATM    5  N2  UNL     1      26.091  -0.147  52.955  1.00  0.00    -0.259 NA
HETATM    6  C4  UNL     1      25.689   0.939  52.258  1.00  0.00     0.069 A 
HETATM    7  C5  UNL     1      26.645   1.581  51.477  1.00  0.00     0.033 A 
HETATM    8  C6  UNL     1      26.275   2.699  50.746  1.00  0.00     0.014 A 
HETATM    9  C7  UNL     1      24.965   3.162  50.802  1.00  0.00    -0.036 A 
HETATM   10  C8  UNL     1      24.025   2.519  51.579  1.00  0.00     0.028 A 
HETATM   11  C9  UNL     1      24.393   1.399  52.311  1.00  0.00     0.022 A 
HETATM   12  C10 UNL     1      23.417   0.775  53.085  1.00  0.00     0.067 A 
ENDROOT
BRANCH  12  13
HETATM   13  N3  UNL     1      22.090   1.227  53.155  1.00  0.00    -0.354 N 
HETATM   14  H7  UNL     1      22.116   1.941  53.915  1.00  0.00     0.166 HD
BRANCH  13  15
HETATM   15  C11 UNL     1      20.954   0.851  52.408  1.00  0.00     0.033 A 
HETATM   16  C12 UNL     1      20.855   1.253  51.111  1.00  0.00     0.029 A 
HETATM   17  C13 UNL     1      19.728   0.873  50.387  1.00  0.00     0.004 A 
HETATM   18  C14 UNL     1      18.764   0.101  51.036  1.00  0.00     0.019 A 
HETATM   19  C15 UNL     1      18.893  -0.291  52.352  1.00  0.00     0.013 A 
HETATM   20 BR1  UNL     1      17.570  -1.336  53.198  1.00  0.00    -0.051 Br
HETATM   21  C16 UNL     1      20.024   0.087  53.084  1.00  0.00     0.048 A 
ENDBRANCH  13  15
ENDBRANCH  12  13
BRANCH   9  22
HETATM   22  P1  UNL     1      24.460   4.624  49.853  1.00  0.00    -0.106 P 
HETATM   23  H4  UNL     1      24.332   5.808  50.661  1.00  0.00     0.059 HD
HETATM   24  H5  UNL     1      23.334   4.386  48.997  1.00  0.00     0.059 HD
ENDBRANCH   9  22
TORSDOF 3
ENDMDL
MODEL 4
REMARK VINA RESULT:      -7.6      2.750      4.305
REMARK  3 active torsions:
REMARK  status: ('A' for Active; 'I' for Inactive)
REMARK    1  A    between atoms: C7_9  and  P1_10 
REMARK    2  A    between atoms: C10_13  and  N3_14 
REMARK    3  A    between atoms: N3_14  and  C11_15 
ROOT
HETATM    1  N1  UNL     1      26.886   3.604  49.461  1.00  0.00    -0.191 NA
HETATM    2  C1  UNL     1      25.901   3.324  50.026  1.00  0.00     0.103 C 
HETATM    3  C2  UNL     1      24.680   2.970  50.714  1.00  0.00     0.089 A 
HETATM    4  C3  UNL     1      23.624   3.839  50.524  1.00  0.00     0.142 A 
HETATM    5  N2  UNL     1      22.445   3.566  51.143  1.00  0.00    -0.259 NA
HETATM    6  C4  UNL     1      22.354   2.460  51.915  1.00  0.00     0.069 A 
HETATM    7  C5  UNL     1      21.130   2.216  52.531  1.00  0.00     0.033 A 
HETATM    8  C6  UNL     1      20.992   1.093  53.332  1.00  0.00     0.014 A 
HETATM    9  C7  UNL     1      22.069   0.231  53.509  1.00  0.00    -0.036 A 
HETATM   10  C8  UNL     1      23.278   0.482  52.894  1.00  0.00     0.028 A 
HETATM   11  C9  UNL     1      23.417   1.605  52.092  1.00  0.00     0.022 A 
HETATM   12  C10 UNL     1      24.653   1.827  51.487  1.00  0.00     0.067 A 
ENDROOT
BRANCH  12  13
HETATM   13  N3  UNL     1      25.751   0.969  51.653  1.00  0.00    -0.354 N 
HETATM   14  H7  UNL     1      25.545   0.182  51.000  1.00  0.00     0.166 HD
BRANCH  13  15
HETATM   15  C11 UNL     1      26.888   1.085  52.480  1.00  0.00     0.033 A 
HETATM   16  C12 UNL     1      27.161   2.285  53.060  1.00  0.00     0.029 A 
HETATM   17  C13 UNL     1      28.287   2.383  53.875  1.00  0.00     0.004 A 
HETATM   18  C14 UNL     1      29.069   1.240  54.048  1.00  0.00     0.019 A 
HETATM   19  C15 UNL     1      28.766   0.038  53.446  1.00  0.00     0.013 A 
HETATM   20 BR1  UNL     1      29.846  -1.487  53.703  1.00  0.00    -0.051 Br
HETATM   21  C16 UNL     1      27.635  -0.066  52.627  1.00  0.00     0.048 A 
ENDBRANCH  13  15
ENDBRANCH  12  13
BRANCH   9  22
HETATM   22  P1  UNL     1      21.910  -1.244  54.553  1.00  0.00    -0.106 P 
HETATM   23  H4  UNL     1      22.876  -2.265  54.243  1.00  0.00     0.059 HD
HETATM   24  H5  UNL     1      20.565  -1.733  54.645  1.00  0.00     0.059 HD
ENDBRANCH   9  22
TORSDOF 3
ENDMDL
MODEL 5
REMARK VINA RESULT:      -7.5      2.572      5.131
REMARK  3 active torsions:
REMARK  status: ('A' for Active; 'I' for Inactive)
REMARK    1  A    between atoms: C7_9  and  P1_10 
REMARK    2  A    between atoms: C10_13  and  N3_14 
REMARK    3  A    between atoms: N3_14  and  C11_15 
ROOT
HETATM    1  N1  UNL     1      19.156   0.537  51.172  1.00  0.00    -0.191 NA
HETATM    2  C1  UNL     1      19.982   0.221  51.939  1.00  0.00     0.103 C 
HETATM    3  C2  UNL     1      21.005  -0.179  52.878  1.00  0.00     0.089 A 
HETATM    4  C3  UNL     1      20.563  -0.935  53.945  1.00  0.00     0.142 A 
HETATM    5  N2  UNL     1      21.474  -1.344  54.866  1.00  0.00    -0.259 NA
HETATM    6  C4  UNL     1      22.770  -0.999  54.702  1.00  0.00     0.069 A 
HETATM    7  C5  UNL     1      23.671  -1.438  55.668  1.00  0.00     0.033 A 
HETATM    8  C6  UNL     1      25.010  -1.106  55.538  1.00  0.00     0.014 A 
HETATM    9  C7  UNL     1      25.434  -0.344  54.454  1.00  0.00    -0.036 A 
HETATM   10  C8  UNL     1      24.534   0.087  53.503  1.00  0.00     0.028 A 
HETATM   11  C9  UNL     1      23.193  -0.246  53.631  1.00  0.00     0.022 A 
HETATM   12  C10 UNL     1      22.312   0.207  52.652  1.00  0.00     0.067 A 
ENDROOT
BRANCH  12  13
HETATM   13  N3  UNL     1      22.720   0.977  51.551  1.00  0.00    -0.354 N 
HETATM   14  H7  UNL     1      22.760   0.284  50.772  1.00  0.00     0.166 HD
BRANCH  13  15
HETATM   15  C11 UNL     1      23.016   2.353  51.454  1.00  0.00     0.033 A 
HETATM   16  C12 UNL     1      22.218   3.246  52.101  1.00  0.00     0.029 A 
HETATM   17  C13 UNL     1      22.525   4.601  51.996  1.00  0.00     0.004 A 
HETATM   18  C14 UNL     1      23.634   4.962  51.231  1.00  0.00     0.019 A 
HETATM   19  C15 UNL     1      24.424   4.033  50.587  1.00  0.00     0.013 A 
HETATM   20 BR1  UNL     1      25.917   4.557  49.561  1.00  0.00    -0.051 Br
HETATM   21  C16 UNL     1      24.121   2.670  50.690  1.00  0.00     0.048 A 
ENDBRANCH  13  15
ENDBRANCH  12  13
BRANCH   9  22
HETATM   22  P1  UNL     1      27.183   0.102  54.266  1.00  0.00    -0.106 P 
HETATM   23  H4  UNL     1      27.377   1.403  53.682  1.00  0.00     0.059 HD
HETATM   24  H5  UNL     1      27.970  -0.929  53.653  1.00  0.00     0.059 HD
ENDBRANCH   9  22
TORSDOF 3
ENDMDL
MODEL 6
REMARK VINA RESULT:      -7.2      2.848      5.211
REMARK  3 active torsions:
REMARK  status: ('A' for Active; 'I' for Inactive)
REMARK    1  A    between atoms: C7_9  and  P1_10 
REMARK    2  A    between atoms: C10_13  and  N3_14 
REMARK    3  A    between atoms: N3_14  and  C11_15 
ROOT
HETATM    1  N1  UNL     1      19.838   2.235  52.278  1.00  0.00    -0.191 NA
HETATM    2  C1  UNL     1      20.868   1.739  52.524  1.00  0.00     0.103 C 
HETATM    3  C2  UNL     1      22.144   1.125  52.815  1.00  0.00     0.089 A 
HETATM    4  C3  UNL     1      22.103  -0.234  53.055  1.00  0.00     0.142 A 
HETATM    5  N2  UNL     1      23.267  -0.875  53.336  1.00  0.00    -0.259 NA
HETATM    6  C4  UNL     1      24.415  -0.161  53.368  1.00  0.00     0.069 A 
HETATM    7  C5  UNL     1      25.586  -0.854  53.659  1.00  0.00     0.033 A 
HETATM    8  C6  UNL     1      26.785  -0.161  53.701  1.00  0.00     0.014 A 
HETATM    9  C7  UNL     1      26.804   1.208  53.455  1.00  0.00    -0.036 A 
HETATM   10  C8  UNL     1      25.638   1.887  53.168  1.00  0.00     0.028 A 
HETATM   11  C9  UNL     1      24.437   1.193  53.124  1.00  0.00     0.022 A 
HETATM   12  C10 UNL     1      23.279   1.911  52.831  1.00  0.00     0.067 A 
ENDROOT
BRANCH  12  13
HETATM   13  N3  UNL     1      23.277   3.291  52.580  1.00  0.00    -0.354 N 
HETATM   14  H7  UNL     1      23.058   3.708  53.511  1.00  0.00     0.166 HD
BRANCH  13  15
HETATM   15  C11 UNL     1      23.509   4.006  51.386  1.00  0.00     0.033 A 
HETATM   16  C12 UNL     1      23.560   3.324  50.209  1.00  0.00     0.029 A 
HETATM   17  C13 UNL     1      23.788   4.044  49.039  1.00  0.00     0.004 A 
HETATM   18  C14 UNL     1      23.951   5.426  49.143  1.00  0.00     0.019 A 
HETATM   19  C15 UNL     1      23.894   6.089  50.351  1.00  0.00     0.013 A 
HETATM   20 BR1  UNL     1      24.118   7.959  50.455  1.00  0.00    -0.051 Br
HETATM   21  C16 UNL     1      23.664   5.370  51.530  1.00  0.00     0.048 A 
ENDBRANCH  13  15
ENDBRANCH  12  13
BRANCH   9  22
HETATM   22  P1  UNL     1      28.363   2.135  53.506  1.00  0.00    -0.106 P 
HETATM   23  H4  UNL     1      28.424   3.083  54.588  1.00  0.00     0.059 HD
HETATM   24  H5  UNL     1      28.739   2.685  52.236  1.00  0.00     0.059 HD
ENDBRANCH   9  22
TORSDOF 3
ENDMDL
MODEL 7
REMARK VINA RESULT:      -7.2      3.321      5.323
REMARK  3 active torsions:
REMARK  status: ('A' for Active; 'I' for Inactive)
REMARK    1  A    between atoms: C7_9  and  P1_10 
REMARK    2  A    between atoms: C10_13  and  N3_14 
REMARK    3  A    between atoms: N3_14  and  C11_15 
ROOT
HETATM    1  N1  UNL     1      21.112   5.116  50.875  1.00  0.00    -0.191 NA
HETATM    2  C1  UNL     1      21.562   4.163  51.384  1.00  0.00     0.103 C 
HETATM    3  C2  UNL     1      22.122   2.981  52.000  1.00  0.00     0.089 A 
HETATM    4  C3  UNL     1      21.232   1.948  52.210  1.00  0.00     0.142 A 
HETATM    5  N2  UNL     1      21.693   0.807  52.787  1.00  0.00    -0.259 NA
HETATM    6  C4  UNL     1      22.998   0.729  53.129  1.00  0.00     0.069 A 
HETATM    7  C5  UNL     1      23.430  -0.457  53.716  1.00  0.00     0.033 A 
HETATM    8  C6  UNL     1      24.761  -0.579  54.082  1.00  0.00     0.014 A 
HETATM    9  C7  UNL     1      25.642   0.475  53.861  1.00  0.00    -0.036 A 
HETATM   10  C8  UNL     1      25.204   1.645  53.278  1.00  0.00     0.028 A 
HETATM   11  C9  UNL     1      23.871   1.769  52.910  1.00  0.00     0.022 A 
HETATM   12  C10 UNL     1      23.465   2.966  52.325  1.00  0.00     0.067 A 
ENDROOT
BRANCH  12  13
HETATM   13  N3  UNL     1      24.337   4.041  52.093  1.00  0.00    -0.354 N 
HETATM   14  H7  UNL     1      24.301   4.580  52.985  1.00  0.00     0.166 HD
BRANCH  13  15
HETATM   15  C11 UNL     1      25.106   4.368  50.956  1.00  0.00     0.033 A 
HETATM   16  C12 UNL     1      26.028   3.475  50.505  1.00  0.00     0.029 A 
HETATM   17  C13 UNL     1      26.778   3.813  49.381  1.00  0.00     0.004 A 
HETATM   18  C14 UNL     1      26.539   5.051  48.783  1.00  0.00     0.019 A 
HETATM   19  C15 UNL     1      25.597   5.935  49.265  1.00  0.00     0.013 A 
HETATM   20 BR1  UNL     1      25.299   7.601  48.431  1.00  0.00    -0.051 Br
HETATM   21  C16 UNL     1      24.839   5.600  50.394  1.00  0.00     0.048 A 
ENDBRANCH  13  15
ENDBRANCH  12  13
BRANCH   9  22
HETATM   22  P1  UNL     1      27.388   0.335  54.333  1.00  0.00    -0.106 P 
HETATM   23  H4  UNL     1      27.619  -0.638  55.368  1.00  0.00     0.059 HD
HETATM   24  H5  UNL     1      28.013   1.602  54.583  1.00  0.00     0.059 HD
ENDBRANCH   9  22
TORSDOF 3
ENDMDL
MODEL 8
REMARK VINA RESULT:      -7.2      3.653      6.574
REMARK  3 active torsions:
REMARK  status: ('A' for Active; 'I' for Inactive)
REMARK    1  A    between atoms: C7_9  and  P1_10 
REMARK    2  A    between atoms: C10_13  and  N3_14 
REMARK    3  A    between atoms: N3_14  and  C11_15 
ROOT
HETATM    1  N1  UNL     1      26.885   4.157  49.463  1.00  0.00    -0.191 NA
HETATM    2  C1  UNL     1      26.459   3.349  50.193  1.00  0.00     0.103 C 
HETATM    3  C2  UNL     1      25.933   2.359  51.107  1.00  0.00     0.089 A 
HETATM    4  C3  UNL     1      26.869   1.503  51.650  1.00  0.00     0.142 A 
HETATM    5  N2  UNL     1      26.443   0.547  52.517  1.00  0.00    -0.259 NA
HETATM    6  C4  UNL     1      25.126   0.474  52.812  1.00  0.00     0.069 A 
HETATM    7  C5  UNL     1      24.730  -0.518  53.705  1.00  0.00     0.033 A 
HETATM    8  C6  UNL     1      23.388  -0.629  54.035  1.00  0.00     0.014 A 
HETATM    9  C7  UNL     1      22.462   0.245  53.475  1.00  0.00    -0.036 A 
HETATM   10  C8  UNL     1      22.864   1.225  52.592  1.00  0.00     0.028 A 
HETATM   11  C9  UNL     1      24.207   1.337  52.261  1.00  0.00     0.022 A 
HETATM   12  C10 UNL     1      24.577   2.338  51.365  1.00  0.00     0.067 A 
ENDROOT
BRANCH  12  13
HETATM   13  N3  UNL     1      23.658   3.229  50.791  1.00  0.00    -0.354 N 
HETATM   14  H7  UNL     1      23.484   3.923  51.550  1.00  0.00     0.166 HD
BRANCH  13  15
HETATM   15  C11 UNL     1      23.074   3.243  49.507  1.00  0.00     0.033 A 
HETATM   16  C12 UNL     1      22.594   2.079  48.989  1.00  0.00     0.029 A 
HETATM   17  C13 UNL     1      22.019   2.109  47.720  1.00  0.00     0.004 A 
HETATM   18  C14 UNL     1      21.971   3.334  47.054  1.00  0.00     0.019 A 
HETATM   19  C15 UNL     1      22.467   4.497  47.605  1.00  0.00     0.013 A 
HETATM   20 BR1  UNL     1      22.384   6.136  46.675  1.00  0.00    -0.051 Br
HETATM   21  C16 UNL     1      23.044   4.472  48.880  1.00  0.00     0.048 A 
ENDBRANCH  13  15
ENDBRANCH  12  13
BRANCH   9  22
HETATM   22  P1  UNL     1      20.701   0.117  53.894  1.00  0.00    -0.106 P 
HETATM   23  H4  UNL     1      20.189   1.288  54.556  1.00  0.00     0.059 HD
HETATM   24  H5  UNL     1      20.361  -1.112  54.551  1.00  0.00     0.059 HD
ENDBRANCH   9  22
TORSDOF 3
ENDMDL
MODEL 9
REMARK VINA RESULT:      -7.1      3.605      6.461
REMARK  3 active torsions:
REMARK  status: ('A' for Active; 'I' for Inactive)
REMARK    1  A    between atoms: C7_9  and  P1_10 
REMARK    2  A    between atoms: C10_13  and  N3_14 
REMARK    3  A    between atoms: N3_14  and  C11_15 
ROOT
HETATM    1  N1  UNL     1      26.938   3.332  50.139  1.00  0.00    -0.191 NA
HETATM    2  C1  UNL     1      26.553   2.594  50.962  1.00  0.00     0.103 C 
HETATM    3  C2  UNL     1      26.074   1.694  51.987  1.00  0.00     0.089 A 
HETATM    4  C3  UNL     1      27.030   1.261  52.883  1.00  0.00     0.142 A 
HETATM    5  N2  UNL     1      26.647   0.411  53.873  1.00  0.00    -0.259 NA
HETATM    6  C4  UNL     1      25.353   0.027  53.940  1.00  0.00     0.069 A 
HETATM    7  C5  UNL     1      25.002  -0.843  54.968  1.00  0.00     0.033 A 
HETATM    8  C6  UNL     1      23.685  -1.262  55.074  1.00  0.00     0.014 A 
HETATM    9  C7  UNL     1      22.739  -0.812  54.159  1.00  0.00    -0.036 A 
HETATM   10  C8  UNL     1      23.096   0.050  53.144  1.00  0.00     0.028 A 
HETATM   11  C9  UNL     1      24.414   0.471  53.037  1.00  0.00     0.022 A 
HETATM   12  C10 UNL     1      24.739   1.341  51.999  1.00  0.00     0.067 A 
ENDROOT
BRANCH  12  13
HETATM   13  N3  UNL     1      23.799   1.806  51.067  1.00  0.00    -0.354 N 
HETATM   14  H7  UNL     1      23.625   0.974  50.462  1.00  0.00     0.166 HD
BRANCH  13  15
HETATM   15  C11 UNL     1      23.196   3.074  50.928  1.00  0.00     0.033 A 
HETATM   16  C12 UNL     1      22.659   3.672  52.026  1.00  0.00     0.029 A 
HETATM   17  C13 UNL     1      22.068   4.924  51.872  1.00  0.00     0.004 A 
HETATM   18  C14 UNL     1      22.062   5.492  50.598  1.00  0.00     0.019 A 
HETATM   19  C15 UNL     1      22.615   4.860  49.504  1.00  0.00     0.013 A 
HETATM   20 BR1  UNL     1      22.590   5.657  47.794  1.00  0.00    -0.051 Br
HETATM   21  C16 UNL     1      23.211   3.602  49.653  1.00  0.00     0.048 A 
ENDBRANCH  13  15
ENDBRANCH  12  13
BRANCH   9  22
HETATM   22  P1  UNL     1      21.010  -1.349  54.280  1.00  0.00    -0.106 P 
HETATM   23  H4  UNL     1      20.619  -2.246  53.223  1.00  0.00     0.059 HD
HETATM   24  H5  UNL     1      20.091  -0.267  54.486  1.00  0.00     0.059 HD
ENDBRANCH   9  22
TORSDOF 3
ENDMDL
