MODEL 1
REMARK VINA RESULT:      -6.9      0.000      0.000
REMARK  11 active torsions:
REMARK  status: ('A' for Active; 'I' for Inactive)
REMARK    1  A    between atoms: N1_2  and  C2_3 
REMARK    2  A    between atoms: C3_4  and  C4_5 
REMARK    3  A    between atoms: C4_5  and  C5_6 
REMARK    4  A    between atoms: C6_7  and  N2_8 
REMARK    5  A    between atoms: N3_10  and  C8_11 
REMARK    6  A    between atoms: C8_11  and  N4_12 
REMARK    7  A    between atoms: N4_12  and  C9_13 
REMARK    8  A    between atoms: C13_17  and  O1_18 
REMARK    9  A    between atoms: O1_18  and  C14_19 
REMARK   10  A    between atoms: C14_19  and  C15_20 
REMARK   11  A    between atoms: C15_20  and  N5_21 
ROOT
HETATM    1  C9  UNL     1      22.491   0.494  53.055  1.00  0.00     0.031 A 
HETATM    2  C10 UNL     1      21.647  -0.012  54.022  1.00  0.00     0.029 A 
HETATM    3  C11 UNL     1      22.037  -0.847  55.048  1.00  0.00     0.005 A 
HETATM    4  C12 UNL     1      23.366  -1.211  55.125  1.00  0.00     0.037 A 
HETATM    5  C13 UNL     1      24.269  -0.746  54.193  1.00  0.00     0.070 A 
HETATM    6  C19 UNL     1      23.803   0.091  53.189  1.00  0.00     0.065 A 
ENDROOT
BRANCH   1   7
HETATM    7  N4  UNL     1      22.060   1.352  52.009  1.00  0.00    -0.372 N 
HETATM    8  H13 UNL     1      21.533   0.915  51.223  1.00  0.00     0.161 HD
BRANCH   7   9
HETATM    9  C8  UNL     1      22.338   2.752  52.036  1.00  0.00     0.271 C 
BRANCH   9  10
HETATM   10  N3  UNL     1      23.503   3.119  51.291  1.00  0.00    -0.270 NA
HETATM   11  C4  UNL     1      23.848   4.309  51.020  1.00  0.00     0.055 C 
BRANCH  11  12
HETATM   12  C3  UNL     1      25.057   4.584  50.254  1.00  0.00     0.050 C 
HETATM   13  C2  UNL     1      25.939   3.620  50.048  1.00  0.00     0.117 C 
BRANCH  13  14
HETATM   14  N1  UNL     1      27.135   3.814  49.312  1.00  0.00    -0.284 NA
HETATM   15  C1  UNL     1      27.414   4.882  48.676  1.00  0.00     0.148 C 
ENDBRANCH  13  14
ENDBRANCH  11  12
BRANCH  11  16
HETATM   16  C5  UNL     1      23.065   5.456  51.457  1.00  0.00     0.048 C 
HETATM   17  C6  UNL     1      22.797   6.466  50.648  1.00  0.00     0.084 C 
BRANCH  17  18
HETATM   18  N2  UNL     1      22.064   7.636  50.902  1.00  0.00    -0.403 N 
HETATM   19  C7  UNL     1      21.273   8.394  49.929  1.00  0.00     0.145 C 
HETATM   20  H7  UNL     1      21.995   8.113  51.829  1.00  0.00     0.158 HD
ENDBRANCH  17  18
ENDBRANCH  11  16
ENDBRANCH   9  10
ENDBRANCH   7   9
ENDBRANCH   1   7
BRANCH   5  21
HETATM   21  O1  UNL     1      25.627  -1.080  54.216  1.00  0.00    -0.349 OA
BRANCH  21  22
HETATM   22  C14 UNL     1      26.287  -1.038  52.957  1.00  0.00     0.196 C 
BRANCH  22  23
HETATM   23  C15 UNL     1      27.793  -0.999  53.126  1.00  0.00     0.156 C 
BRANCH  23  24
HETATM   24  N5  UNL     1      28.256   0.298  53.559  1.00  0.00    -0.348 N 
HETATM   25  C16 UNL     1      28.062   1.499  52.998  1.00  0.00     0.111 A 
HETATM   26  C17 UNL     1      28.653   2.524  53.689  1.00  0.00     0.135 A 
HETATM   27  N6  UNL     1      29.233   1.892  54.724  1.00  0.00    -0.255 NA
HETATM   28  C18 UNL     1      28.996   0.561  54.648  1.00  0.00     0.209 A 
ENDBRANCH  23  24
ENDBRANCH  22  23
ENDBRANCH  21  22
ENDBRANCH   5  21
TORSDOF 11
ENDMDL
MODEL 2
REMARK VINA RESULT:      -6.7      2.046      3.330
REMARK  11 active torsions:
REMARK  status: ('A' for Active; 'I' for Inactive)
REMARK    1  A    between atoms: N1_2  and  C2_3 
REMARK    2  A    between atoms: C3_4  and  C4_5 
REMARK    3  A    between atoms: C4_5  and  C5_6 
REMARK    4  A    between atoms: C6_7  and  N2_8 
REMARK    5  A    between atoms: N3_10  and  C8_11 
REMARK    6  A    between atoms: C8_11  and  N4_12 
REMARK    7  A    between atoms: N4_12  and  C9_13 
REMARK    8  A    between atoms: C13_17  and  O1_18 
REMARK    9  A    between atoms: O1_18  and  C14_19 
REMARK   10  A    between atoms: C14_19  and  C15_20 
REMARK   11  A    between atoms: C15_20  and  N5_21 
ROOT
HETATM    1  C9  UNL     1      22.494   4.032  52.422  1.00  0.00     0.031 A 
HETATM    2  C10 UNL     1      21.152   3.752  52.266  1.00  0.00     0.029 A 
HETATM    3  C11 UNL     1      20.604   2.486  52.301  1.00  0.00     0.005 A 
HETATM    4  C12 UNL     1      21.448   1.414  52.506  1.00  0.00     0.037 A 
HETATM    5  C13 UNL     1      22.802   1.616  52.669  1.00  0.00     0.070 A 
HETATM    6  C19 UNL     1      23.282   2.917  52.622  1.00  0.00     0.065 A 
ENDROOT
BRANCH   1   7
HETATM    7  N4  UNL     1      23.031   5.346  52.381  1.00  0.00    -0.372 N 
HETATM    8  H13 UNL     1      23.128   5.847  53.290  1.00  0.00     0.161 HD
BRANCH   7   9
HETATM    9  C8  UNL     1      23.418   5.951  51.147  1.00  0.00     0.271 C 
BRANCH   9  10
HETATM   10  N3  UNL     1      24.679   5.489  50.654  1.00  0.00    -0.270 NA
HETATM   11  C4  UNL     1      24.831   4.723  49.654  1.00  0.00     0.055 C 
BRANCH  11  12
HETATM   12  C3  UNL     1      26.160   4.305  49.225  1.00  0.00     0.050 C 
HETATM   13  C2  UNL     1      27.062   5.214  48.895  1.00  0.00     0.117 C 
BRANCH  13  14
HETATM   14  N1  UNL     1      28.372   4.881  48.471  1.00  0.00    -0.284 NA
HETATM   15  C1  UNL     1      29.245   5.738  48.115  1.00  0.00     0.148 C 
ENDBRANCH  13  14
ENDBRANCH  11  12
BRANCH  11  16
HETATM   16  C5  UNL     1      23.698   4.225  48.886  1.00  0.00     0.048 C 
HETATM   17  C6  UNL     1      23.317   2.962  48.946  1.00  0.00     0.084 C 
BRANCH  17  18
HETATM   18  N2  UNL     1      22.260   2.322  48.280  1.00  0.00    -0.403 N 
HETATM   19  C7  UNL     1      21.529   1.139  48.745  1.00  0.00     0.145 C 
HETATM   20  H7  UNL     1      21.861   2.617  47.360  1.00  0.00     0.158 HD
ENDBRANCH  17  18
ENDBRANCH  11  16
ENDBRANCH   9  10
ENDBRANCH   7   9
ENDBRANCH   1   7
BRANCH   5  21
HETATM   21  O1  UNL     1      23.708   0.571  52.879  1.00  0.00    -0.349 OA
BRANCH  21  22
HETATM   22  C14 UNL     1      25.074   0.892  52.646  1.00  0.00     0.196 C 
BRANCH  22  23
HETATM   23  C15 UNL     1      25.983   0.178  53.627  1.00  0.00     0.156 C 
BRANCH  23  24
HETATM   24  N5  UNL     1      27.192   0.921  53.886  1.00  0.00    -0.348 N 
HETATM   25  C16 UNL     1      28.322   0.520  54.484  1.00  0.00     0.111 A 
HETATM   26  C17 UNL     1      29.276   1.501  54.559  1.00  0.00     0.135 A 
HETATM   27  N6  UNL     1      28.675   2.549  53.968  1.00  0.00    -0.255 NA
HETATM   28  C18 UNL     1      27.429   2.202  53.565  1.00  0.00     0.209 A 
ENDBRANCH  23  24
ENDBRANCH  22  23
ENDBRANCH  21  22
ENDBRANCH   5  21
TORSDOF 11
ENDMDL
MODEL 3
REMARK VINA RESULT:      -6.7      0.602      3.124
REMARK  11 active torsions:
REMARK  status: ('A' for Active; 'I' for Inactive)
REMARK    1  A    between atoms: N1_2  and  C2_3 
REMARK    2  A    between atoms: C3_4  and  C4_5 
REMARK    3  A    between atoms: C4_5  and  C5_6 
REMARK    4  A    between atoms: C6_7  and  N2_8 
REMARK    5  A    between atoms: N3_10  and  C8_11 
REMARK    6  A    between atoms: C8_11  and  N4_12 
REMARK    7  A    between atoms: N4_12  and  C9_13 
REMARK    8  A    between atoms: C13_17  and  O1_18 
REMARK    9  A    between atoms: O1_18  and  C14_19 
REMARK   10  A    between atoms: C14_19  and  C15_20 
REMARK   11  A    between atoms: C15_20  and  N5_21 
ROOT
HETATM    1  C9  UNL     1      22.523   0.558  52.872  1.00  0.00     0.031 A 
HETATM    2  C10 UNL     1      21.632   0.029  53.782  1.00  0.00     0.029 A 
HETATM    3  C11 UNL     1      21.974  -0.813  54.820  1.00  0.00     0.005 A 
HETATM    4  C12 UNL     1      23.301  -1.160  54.969  1.00  0.00     0.037 A 
HETATM    5  C13 UNL     1      24.250  -0.670  54.097  1.00  0.00     0.070 A 
HETATM    6  C19 UNL     1      23.831   0.172  53.077  1.00  0.00     0.065 A 
ENDROOT
BRANCH   1   7
HETATM    7  N4  UNL     1      22.141   1.424  51.812  1.00  0.00    -0.372 N 
HETATM    8  H13 UNL     1      21.125   1.475  51.585  1.00  0.00     0.161 HD
BRANCH   7   9
HETATM    9  C8  UNL     1      23.109   2.188  51.092  1.00  0.00     0.271 C 
BRANCH   9  10
HETATM   10  N3  UNL     1      22.761   3.568  50.955  1.00  0.00    -0.270 NA
HETATM   11  C4  UNL     1      23.592   4.516  50.816  1.00  0.00     0.055 C 
BRANCH  11  12
HETATM   12  C3  UNL     1      23.141   5.896  50.683  1.00  0.00     0.050 C 
HETATM   13  C2  UNL     1      21.850   6.176  50.752  1.00  0.00     0.117 C 
BRANCH  13  14
HETATM   14  N1  UNL     1      21.339   7.492  50.632  1.00  0.00    -0.284 NA
HETATM   15  C1  UNL     1      20.308   7.796  49.949  1.00  0.00     0.148 C 
ENDBRANCH  13  14
ENDBRANCH  11  12
BRANCH  11  16
HETATM   16  C5  UNL     1      25.029   4.283  50.781  1.00  0.00     0.048 C 
HETATM   17  C6  UNL     1      25.794   4.786  49.830  1.00  0.00     0.084 C 
BRANCH  17  18
HETATM   18  N2  UNL     1      27.181   4.662  49.647  1.00  0.00    -0.403 N 
HETATM   19  C7  UNL     1      27.959   5.183  48.520  1.00  0.00     0.145 C 
HETATM   20  H7  UNL     1      27.833   4.175  50.303  1.00  0.00     0.158 HD
ENDBRANCH  17  18
ENDBRANCH  11  16
ENDBRANCH   9  10
ENDBRANCH   7   9
ENDBRANCH   1   7
BRANCH   5  21
HETATM   21  O1  UNL     1      25.610  -0.985  54.195  1.00  0.00    -0.349 OA
BRANCH  21  22
HETATM   22  C14 UNL     1      26.280  -1.185  52.957  1.00  0.00     0.196 C 
BRANCH  22  23
HETATM   23  C15 UNL     1      27.784  -1.103  53.127  1.00  0.00     0.156 C 
BRANCH  23  24
HETATM   24  N5  UNL     1      28.211   0.208  53.553  1.00  0.00    -0.348 N 
HETATM   25  C16 UNL     1      27.917   1.407  53.032  1.00  0.00     0.111 A 
HETATM   26  C17 UNL     1      28.503   2.450  53.701  1.00  0.00     0.135 A 
HETATM   27  N6  UNL     1      29.186   1.831  54.680  1.00  0.00    -0.255 NA
HETATM   28  C18 UNL     1      29.012   0.491  54.593  1.00  0.00     0.209 A 
ENDBRANCH  23  24
ENDBRANCH  22  23
ENDBRANCH  21  22
ENDBRANCH   5  21
TORSDOF 11
ENDMDL
MODEL 4
REMARK VINA RESULT:      -6.6      3.642      8.131
REMARK  11 active torsions:
REMARK  status: ('A' for Active; 'I' for Inactive)
REMARK    1  A    between atoms: N1_2  and  C2_3 
REMARK    2  A    between atoms: C3_4  and  C4_5 
REMARK    3  A    between atoms: C4_5  and  C5_6 
REMARK    4  A    between atoms: C6_7  and  N2_8 
REMARK    5  A    between atoms: N3_10  and  C8_11 
REMARK    6  A    between atoms: C8_11  and  N4_12 
REMARK    7  A    between atoms: N4_12  and  C9_13 
REMARK    8  A    between atoms: C13_17  and  O1_18 
REMARK    9  A    between atoms: O1_18  and  C14_19 
REMARK   10  A    between atoms: C14_19  and  C15_20 
REMARK   11  A    between atoms: C15_20  and  N5_21 
ROOT
HETATM    1  C9  UNL     1      25.778   4.259  49.441  1.00  0.00     0.031 A 
HETATM    2  C10 UNL     1      25.148   5.433  49.085  1.00  0.00     0.029 A 
HETATM    3  C11 UNL     1      25.773   6.517  48.503  1.00  0.00     0.005 A 
HETATM    4  C12 UNL     1      27.127   6.433  48.253  1.00  0.00     0.037 A 
HETATM    5  C13 UNL     1      27.826   5.290  48.581  1.00  0.00     0.070 A 
HETATM    6  C19 UNL     1      27.130   4.241  49.164  1.00  0.00     0.065 A 
ENDROOT
BRANCH   1   7
HETATM    7  N4  UNL     1      25.108   3.159  50.040  1.00  0.00    -0.372 N 
HETATM    8  H13 UNL     1      24.561   2.536  49.408  1.00  0.00     0.161 HD
BRANCH   7   9
HETATM    9  C8  UNL     1      25.183   2.921  51.445  1.00  0.00     0.271 C 
BRANCH   9  10
HETATM   10  N3  UNL     1      25.901   1.731  51.786  1.00  0.00    -0.270 NA
HETATM   11  C4  UNL     1      25.387   0.698  52.312  1.00  0.00     0.055 C 
BRANCH  11  12
HETATM   12  C3  UNL     1      26.202  -0.470  52.624  1.00  0.00     0.050 C 
HETATM   13  C2  UNL     1      27.466  -0.314  52.979  1.00  0.00     0.117 C 
BRANCH  13  14
HETATM   14  N1  UNL     1      28.317  -1.401  53.297  1.00  0.00    -0.284 NA
HETATM   15  C1  UNL     1      29.551  -1.279  53.588  1.00  0.00     0.148 C 
ENDBRANCH  13  14
ENDBRANCH  11  12
BRANCH  11  16
HETATM   16  C5  UNL     1      23.967   0.619  52.628  1.00  0.00     0.048 C 
HETATM   17  C6  UNL     1      23.494  -0.256  53.496  1.00  0.00     0.084 C 
BRANCH  17  18
HETATM   18  N2  UNL     1      22.170  -0.465  53.915  1.00  0.00    -0.403 N 
HETATM   19  C7  UNL     1      21.645  -1.666  54.570  1.00  0.00     0.145 C 
HETATM   20  H7  UNL     1      21.390   0.222  53.806  1.00  0.00     0.158 HD
ENDBRANCH  17  18
ENDBRANCH  11  16
ENDBRANCH   9  10
ENDBRANCH   7   9
ENDBRANCH   1   7
BRANCH   5  21
HETATM   21  O1  UNL     1      29.198   5.145  48.353  1.00  0.00    -0.349 OA
BRANCH  21  22
HETATM   22  C14 UNL     1      29.840   6.268  47.762  1.00  0.00     0.196 C 
BRANCH  22  23
HETATM   23  C15 UNL     1      30.796   6.930  48.734  1.00  0.00     0.156 C 
BRANCH  23  24
HETATM   24  N5  UNL     1      30.637   8.365  48.757  1.00  0.00    -0.348 N 
HETATM   25  C16 UNL     1      31.481   9.318  48.338  1.00  0.00     0.111 A 
HETATM   26  C17 UNL     1      30.998  10.588  48.514  1.00  0.00     0.135 A 
HETATM   27  N6  UNL     1      29.793  10.375  49.073  1.00  0.00    -0.255 NA
HETATM   28  C18 UNL     1      29.577   9.046  49.218  1.00  0.00     0.209 A 
ENDBRANCH  23  24
ENDBRANCH  22  23
ENDBRANCH  21  22
ENDBRANCH   5  21
TORSDOF 11
ENDMDL
MODEL 5
REMARK VINA RESULT:      -6.6      3.674      8.172
REMARK  11 active torsions:
REMARK  status: ('A' for Active; 'I' for Inactive)
REMARK    1  A    between atoms: N1_2  and  C2_3 
REMARK    2  A    between atoms: C3_4  and  C4_5 
REMARK    3  A    between atoms: C4_5  and  C5_6 
REMARK    4  A    between atoms: C6_7  and  N2_8 
REMARK    5  A    between atoms: N3_10  and  C8_11 
REMARK    6  A    between atoms: C8_11  and  N4_12 
REMARK    7  A    between atoms: N4_12  and  C9_13 
REMARK    8  A    between atoms: C13_17  and  O1_18 
REMARK    9  A    between atoms: O1_18  and  C14_19 
REMARK   10  A    between atoms: C14_19  and  C15_20 
REMARK   11  A    between atoms: C15_20  and  N5_21 
ROOT
HETATM    1  C9  UNL     1      25.843   4.445  49.459  1.00  0.00     0.031 A 
HETATM    2  C10 UNL     1      25.381   5.716  49.191  1.00  0.00     0.029 A 
HETATM    3  C11 UNL     1      26.127   6.717  48.603  1.00  0.00     0.005 A 
HETATM    4  C12 UNL     1      27.432   6.439  48.254  1.00  0.00     0.037 A 
HETATM    5  C13 UNL     1      27.965   5.190  48.492  1.00  0.00     0.070 A 
HETATM    6  C19 UNL     1      27.154   4.233  49.086  1.00  0.00     0.065 A 
ENDROOT
BRANCH   1   7
HETATM    7  N4  UNL     1      25.051   3.434  50.066  1.00  0.00    -0.372 N 
HETATM    8  H13 UNL     1      24.060   3.355  49.750  1.00  0.00     0.161 HD
BRANCH   7   9
HETATM    9  C8  UNL     1      25.590   2.567  51.064  1.00  0.00     0.271 C 
BRANCH   9  10
HETATM   10  N3  UNL     1      24.621   1.693  51.648  1.00  0.00    -0.270 NA
HETATM   11  C4  UNL     1      24.828   0.945  52.652  1.00  0.00     0.055 C 
BRANCH  11  12
HETATM   12  C3  UNL     1      23.773   0.087  53.177  1.00  0.00     0.050 C 
HETATM   13  C2  UNL     1      22.548   0.563  53.324  1.00  0.00     0.117 C 
BRANCH  13  14
HETATM   14  N1  UNL     1      21.475  -0.213  53.828  1.00  0.00    -0.284 NA
HETATM   15  C1  UNL     1      21.616  -1.357  54.368  1.00  0.00     0.148 C 
ENDBRANCH  13  14
ENDBRANCH  11  12
BRANCH  11  16
HETATM   16  C5  UNL     1      26.117   0.903  53.328  1.00  0.00     0.048 C 
HETATM   17  C6  UNL     1      26.413  -0.040  54.204  1.00  0.00     0.084 C 
BRANCH  17  18
HETATM   18  N2  UNL     1      27.595  -0.229  54.939  1.00  0.00    -0.403 N 
HETATM   19  C7  UNL     1      28.938   0.211  54.552  1.00  0.00     0.145 C 
HETATM   20  H7  UNL     1      27.657  -0.713  55.863  1.00  0.00     0.158 HD
ENDBRANCH  17  18
ENDBRANCH  11  16
ENDBRANCH   9  10
ENDBRANCH   7   9
ENDBRANCH   1   7
BRANCH   5  21
HETATM   21  O1  UNL     1      29.280   4.847  48.161  1.00  0.00    -0.349 OA
BRANCH  21  22
HETATM   22  C14 UNL     1      30.264   5.821  48.488  1.00  0.00     0.196 C 
BRANCH  22  23
HETATM   23  C15 UNL     1      31.294   5.954  47.383  1.00  0.00     0.156 C 
BRANCH  23  24
HETATM   24  N5  UNL     1      32.407   5.054  47.569  1.00  0.00    -0.348 N 
HETATM   25  C16 UNL     1      32.462   3.726  47.397  1.00  0.00     0.111 A 
HETATM   26  C17 UNL     1      33.695   3.193  47.668  1.00  0.00     0.135 A 
HETATM   27  N6  UNL     1      34.416   4.271  48.022  1.00  0.00    -0.255 NA
HETATM   28  C18 UNL     1      33.647   5.384  47.963  1.00  0.00     0.209 A 
ENDBRANCH  23  24
ENDBRANCH  22  23
ENDBRANCH  21  22
ENDBRANCH   5  21
TORSDOF 11
ENDMDL
MODEL 6
REMARK VINA RESULT:      -6.5      2.470      8.370
REMARK  11 active torsions:
REMARK  status: ('A' for Active; 'I' for Inactive)
REMARK    1  A    between atoms: N1_2  and  C2_3 
REMARK    2  A    between atoms: C3_4  and  C4_5 
REMARK    3  A    between atoms: C4_5  and  C5_6 
REMARK    4  A    between atoms: C6_7  and  N2_8 
REMARK    5  A    between atoms: N3_10  and  C8_11 
REMARK    6  A    between atoms: C8_11  and  N4_12 
REMARK    7  A    between atoms: N4_12  and  C9_13 
REMARK    8  A    between atoms: C13_17  and  O1_18 
REMARK    9  A    between atoms: O1_18  and  C14_19 
REMARK   10  A    between atoms: C14_19  and  C15_20 
REMARK   11  A    between atoms: C15_20  and  N5_21 
ROOT
HETATM    1  C9  UNL     1      26.587   4.315  49.435  1.00  0.00     0.031 A 
HETATM    2  C10 UNL     1      27.631   4.774  48.658  1.00  0.00     0.029 A 
HETATM    3  C11 UNL     1      27.834   6.094  48.314  1.00  0.00     0.005 A 
HETATM    4  C12 UNL     1      26.934   7.035  48.773  1.00  0.00     0.037 A 
HETATM    5  C13 UNL     1      25.865   6.652  49.554  1.00  0.00     0.070 A 
HETATM    6  C19 UNL     1      25.725   5.306  49.860  1.00  0.00     0.065 A 
ENDROOT
BRANCH   1   7
HETATM    7  N4  UNL     1      26.403   2.948  49.774  1.00  0.00    -0.372 N 
HETATM    8  H13 UNL     1      26.084   2.310  49.013  1.00  0.00     0.161 HD
BRANCH   7   9
HETATM    9  C8  UNL     1      26.644   2.473  51.098  1.00  0.00     0.271 C 
BRANCH   9  10
HETATM   10  N3  UNL     1      25.489   1.901  51.720  1.00  0.00    -0.270 NA
HETATM   11  C4  UNL     1      25.488   0.835  52.409  1.00  0.00     0.055 C 
BRANCH  11  12
HETATM   12  C3  UNL     1      24.258   0.330  53.005  1.00  0.00     0.050 C 
HETATM   13  C2  UNL     1      23.088   0.680  52.497  1.00  0.00     0.117 C 
BRANCH  13  14
HETATM   14  N1  UNL     1      21.853   0.227  53.024  1.00  0.00    -0.284 NA
HETATM   15  C1  UNL     1      21.677  -0.105  54.241  1.00  0.00     0.148 C 
ENDBRANCH  13  14
ENDBRANCH  11  12
BRANCH  11  16
HETATM   16  C5  UNL     1      26.703   0.067  52.642  1.00  0.00     0.048 C 
HETATM   17  C6  UNL     1      27.227  -0.058  53.848  1.00  0.00     0.084 C 
BRANCH  17  18
HETATM   18  N2  UNL     1      28.379  -0.755  54.246  1.00  0.00    -0.403 N 
HETATM   19  C7  UNL     1      29.646  -0.832  53.513  1.00  0.00     0.145 C 
HETATM   20  H7  UNL     1      28.472  -1.311  55.127  1.00  0.00     0.158 HD
ENDBRANCH  17  18
ENDBRANCH  11  16
ENDBRANCH   9  10
ENDBRANCH   7   9
ENDBRANCH   1   7
BRANCH   5  21
HETATM   21  O1  UNL     1      24.920   7.557  50.048  1.00  0.00    -0.349 OA
BRANCH  21  22
HETATM   22  C14 UNL     1      24.082   7.058  51.083  1.00  0.00     0.196 C 
BRANCH  22  23
HETATM   23  C15 UNL     1      22.621   7.111  50.681  1.00  0.00     0.156 C 
BRANCH  23  24
HETATM   24  N5  UNL     1      21.909   5.916  51.067  1.00  0.00    -0.348 N 
HETATM   25  C16 UNL     1      22.230   4.998  51.989  1.00  0.00     0.111 A 
HETATM   26  C17 UNL     1      21.312   3.985  52.092  1.00  0.00     0.135 A 
HETATM   27  N6  UNL     1      20.389   4.324  51.174  1.00  0.00    -0.255 NA
HETATM   28  C18 UNL     1      20.745   5.479  50.562  1.00  0.00     0.209 A 
ENDBRANCH  23  24
ENDBRANCH  22  23
ENDBRANCH  21  22
ENDBRANCH   5  21
TORSDOF 11
ENDMDL
MODEL 7
REMARK VINA RESULT:      -6.5      3.808      8.004
REMARK  11 active torsions:
REMARK  status: ('A' for Active; 'I' for Inactive)
REMARK    1  A    between atoms: N1_2  and  C2_3 
REMARK    2  A    between atoms: C3_4  and  C4_5 
REMARK    3  A    between atoms: C4_5  and  C5_6 
REMARK    4  A    between atoms: C6_7  and  N2_8 
REMARK    5  A    between atoms: N3_10  and  C8_11 
REMARK    6  A    between atoms: C8_11  and  N4_12 
REMARK    7  A    between atoms: N4_12  and  C9_13 
REMARK    8  A    between atoms: C13_17  and  O1_18 
REMARK    9  A    between atoms: O1_18  and  C14_19 
REMARK   10  A    between atoms: C14_19  and  C15_20 
REMARK   11  A    between atoms: C15_20  and  N5_21 
ROOT
HETATM    1  C9  UNL     1      25.821   4.319  49.390  1.00  0.00     0.031 A 
HETATM    2  C10 UNL     1      25.260   5.559  49.167  1.00  0.00     0.029 A 
HETATM    3  C11 UNL     1      25.938   6.650  48.664  1.00  0.00     0.005 A 
HETATM    4  C12 UNL     1      27.276   6.504  48.358  1.00  0.00     0.037 A 
HETATM    5  C13 UNL     1      27.906   5.294  48.555  1.00  0.00     0.070 A 
HETATM    6  C19 UNL     1      27.160   4.241  49.064  1.00  0.00     0.065 A 
ENDROOT
BRANCH   1   7
HETATM    7  N4  UNL     1      25.098   3.213  49.910  1.00  0.00    -0.372 N 
HETATM    8  H13 UNL     1      24.545   2.647  49.231  1.00  0.00     0.161 HD
BRANCH   7   9
HETATM    9  C8  UNL     1      25.128   2.893  51.301  1.00  0.00     0.271 C 
BRANCH   9  10
HETATM   10  N3  UNL     1      26.125   1.927  51.645  1.00  0.00    -0.270 NA
HETATM   11  C4  UNL     1      25.973   0.996  52.493  1.00  0.00     0.055 C 
BRANCH  11  12
HETATM   12  C3  UNL     1      27.050   0.056  52.776  1.00  0.00     0.050 C 
HETATM   13  C2  UNL     1      27.678   0.105  53.939  1.00  0.00     0.117 C 
BRANCH  13  14
HETATM   14  N1  UNL     1      28.733  -0.776  54.283  1.00  0.00    -0.284 NA
HETATM   15  C1  UNL     1      29.687  -1.085  53.497  1.00  0.00     0.148 C 
ENDBRANCH  13  14
ENDBRANCH  11  12
BRANCH  11  16
HETATM   16  C5  UNL     1      24.726   0.815  53.223  1.00  0.00     0.048 C 
HETATM   17  C6  UNL     1      23.999  -0.280  53.100  1.00  0.00     0.084 C 
BRANCH  17  18
HETATM   18  N2  UNL     1      22.786  -0.615  53.723  1.00  0.00    -0.403 N 
HETATM   19  C7  UNL     1      22.626  -1.193  55.060  1.00  0.00     0.145 C 
HETATM   20  H7  UNL     1      21.838  -0.490  53.300  1.00  0.00     0.158 HD
ENDBRANCH  17  18
ENDBRANCH  11  16
ENDBRANCH   9  10
ENDBRANCH   7   9
ENDBRANCH   1   7
BRANCH   5  21
HETATM   21  O1  UNL     1      29.258   5.083  48.265  1.00  0.00    -0.349 OA
BRANCH  21  22
HETATM   22  C14 UNL     1      29.946   6.202  47.719  1.00  0.00     0.196 C 
BRANCH  22  23
HETATM   23  C15 UNL     1      31.063   6.662  48.636  1.00  0.00     0.156 C 
BRANCH  23  24
HETATM   24  N5  UNL     1      32.360   6.248  48.159  1.00  0.00    -0.348 N 
HETATM   25  C16 UNL     1      33.426   5.828  48.855  1.00  0.00     0.111 A 
HETATM   26  C17 UNL     1      34.502   5.513  48.066  1.00  0.00     0.135 A 
HETATM   27  N6  UNL     1      34.046   5.761  46.826  1.00  0.00    -0.255 NA
HETATM   28  C18 UNL     1      32.766   6.200  46.880  1.00  0.00     0.209 A 
ENDBRANCH  23  24
ENDBRANCH  22  23
ENDBRANCH  21  22
ENDBRANCH   5  21
TORSDOF 11
ENDMDL
MODEL 8
REMARK VINA RESULT:      -6.4      3.948      6.819
REMARK  11 active torsions:
REMARK  status: ('A' for Active; 'I' for Inactive)
REMARK    1  A    between atoms: N1_2  and  C2_3 
REMARK    2  A    between atoms: C3_4  and  C4_5 
REMARK    3  A    between atoms: C4_5  and  C5_6 
REMARK    4  A    between atoms: C6_7  and  N2_8 
REMARK    5  A    between atoms: N3_10  and  C8_11 
REMARK    6  A    between atoms: C8_11  and  N4_12 
REMARK    7  A    between atoms: N4_12  and  C9_13 
REMARK    8  A    between atoms: C13_17  and  O1_18 
REMARK    9  A    between atoms: O1_18  and  C14_19 
REMARK   10  A    between atoms: C14_19  and  C15_20 
REMARK   11  A    between atoms: C15_20  and  N5_21 
ROOT
HETATM    1  C9  UNL     1      21.178   0.841  53.148  1.00  0.00     0.031 A 
HETATM    2  C10 UNL     1      20.807   0.039  54.208  1.00  0.00     0.029 A 
HETATM    3  C11 UNL     1      21.655  -0.811  54.887  1.00  0.00     0.005 A 
HETATM    4  C12 UNL     1      22.974  -0.873  54.487  1.00  0.00     0.037 A 
HETATM    5  C13 UNL     1      23.420  -0.102  53.434  1.00  0.00     0.070 A 
HETATM    6  C19 UNL     1      22.508   0.729  52.799  1.00  0.00     0.065 A 
ENDROOT
BRANCH   1   7
HETATM    7  N4  UNL     1      20.282   1.707  52.467  1.00  0.00    -0.372 N 
HETATM    8  H13 UNL     1      20.105   2.640  52.898  1.00  0.00     0.161 HD
BRANCH   7   9
HETATM    9  C8  UNL     1      19.652   1.313  51.248  1.00  0.00     0.271 C 
BRANCH   9  10
HETATM   10  N3  UNL     1      18.229   1.455  51.267  1.00  0.00    -0.270 NA
HETATM   11  C4  UNL     1      17.415   0.565  51.660  1.00  0.00     0.055 C 
BRANCH  11  12
HETATM   12  C3  UNL     1      15.977   0.803  51.643  1.00  0.00     0.050 C 
HETATM   13  C2  UNL     1      15.479   1.870  52.246  1.00  0.00     0.117 C 
BRANCH  13  14
HETATM   14  N1  UNL     1      14.093   2.165  52.269  1.00  0.00    -0.284 NA
HETATM   15  C1  UNL     1      13.607   3.317  52.025  1.00  0.00     0.148 C 
ENDBRANCH  13  14
ENDBRANCH  11  12
BRANCH  11  16
HETATM   16  C5  UNL     1      17.867  -0.731  52.147  1.00  0.00     0.048 C 
HETATM   17  C6  UNL     1      17.412  -1.250  53.274  1.00  0.00     0.084 C 
BRANCH  17  18
HETATM   18  N2  UNL     1      17.736  -2.473  53.882  1.00  0.00    -0.403 N 
HETATM   19  C7  UNL     1      17.093  -3.766  53.630  1.00  0.00     0.145 C 
HETATM   20  H7  UNL     1      18.485  -2.609  54.598  1.00  0.00     0.158 HD
ENDBRANCH  17  18
ENDBRANCH  11  16
ENDBRANCH   9  10
ENDBRANCH   7   9
ENDBRANCH   1   7
BRANCH   5  21
HETATM   21  O1  UNL     1      24.743  -0.122  52.982  1.00  0.00    -0.349 OA
BRANCH  21  22
HETATM   22  C14 UNL     1      25.166   1.043  52.285  1.00  0.00     0.196 C 
BRANCH  22  23
HETATM   23  C15 UNL     1      26.598   0.907  51.805  1.00  0.00     0.156 C 
BRANCH  23  24
HETATM   24  N5  UNL     1      27.548   1.096  52.875  1.00  0.00    -0.348 N 
HETATM   25  C16 UNL     1      28.204   0.178  53.599  1.00  0.00     0.111 A 
HETATM   26  C17 UNL     1      29.037   0.721  54.541  1.00  0.00     0.135 A 
HETATM   27  N6  UNL     1      28.866   2.043  54.365  1.00  0.00    -0.255 NA
HETATM   28  C18 UNL     1      27.977   2.268  53.369  1.00  0.00     0.209 A 
ENDBRANCH  23  24
ENDBRANCH  22  23
ENDBRANCH  21  22
ENDBRANCH   5  21
TORSDOF 11
ENDMDL
MODEL 9
REMARK VINA RESULT:      -6.4      2.640      7.986
REMARK  11 active torsions:
REMARK  status: ('A' for Active; 'I' for Inactive)
REMARK    1  A    between atoms: N1_2  and  C2_3 
REMARK    2  A    between atoms: C3_4  and  C4_5 
REMARK    3  A    between atoms: C4_5  and  C5_6 
REMARK    4  A    between atoms: C6_7  and  N2_8 
REMARK    5  A    between atoms: N3_10  and  C8_11 
REMARK    6  A    between atoms: C8_11  and  N4_12 
REMARK    7  A    between atoms: N4_12  and  C9_13 
REMARK    8  A    between atoms: C13_17  and  O1_18 
REMARK    9  A    between atoms: O1_18  and  C14_19 
REMARK   10  A    between atoms: C14_19  and  C15_20 
REMARK   11  A    between atoms: C15_20  and  N5_21 
ROOT
HETATM    1  C9  UNL     1      26.961   4.911  48.881  1.00  0.00     0.031 A 
HETATM    2  C10 UNL     1      28.089   5.534  48.387  1.00  0.00     0.029 A 
HETATM    3  C11 UNL     1      28.125   6.822  47.894  1.00  0.00     0.005 A 
HETATM    4  C12 UNL     1      26.954   7.552  47.889  1.00  0.00     0.037 A 
HETATM    5  C13 UNL     1      25.785   6.996  48.366  1.00  0.00     0.070 A 
HETATM    6  C19 UNL     1      25.826   5.695  48.846  1.00  0.00     0.065 A 
ENDROOT
BRANCH   1   7
HETATM    7  N4  UNL     1      26.954   3.582  49.382  1.00  0.00    -0.372 N 
HETATM    8  H13 UNL     1      27.465   2.864  48.825  1.00  0.00     0.161 HD
BRANCH   7   9
HETATM    9  C8  UNL     1      26.277   3.249  50.593  1.00  0.00     0.271 C 
BRANCH   9  10
HETATM   10  N3  UNL     1      26.980   2.301  51.400  1.00  0.00    -0.270 NA
HETATM   11  C4  UNL     1      26.439   1.349  52.040  1.00  0.00     0.055 C 
BRANCH  11  12
HETATM   12  C3  UNL     1      27.242   0.430  52.838  1.00  0.00     0.050 C 
HETATM   13  C2  UNL     1      28.364   0.851  53.397  1.00  0.00     0.117 C 
BRANCH  13  14
HETATM   14  N1  UNL     1      29.194   0.015  54.185  1.00  0.00    -0.284 NA
HETATM   15  C1  UNL     1      29.859  -0.968  53.722  1.00  0.00     0.148 C 
ENDBRANCH  13  14
ENDBRANCH  11  12
BRANCH  11  16
HETATM   16  C5  UNL     1      25.001   1.121  52.014  1.00  0.00     0.048 C 
HETATM   17  C6  UNL     1      24.330   0.775  53.097  1.00  0.00     0.084 C 
BRANCH  17  18
HETATM   18  N2  UNL     1      22.957   0.520  53.247  1.00  0.00    -0.403 N 
HETATM   19  C7  UNL     1      22.310  -0.794  53.225  1.00  0.00     0.145 C 
HETATM   20  H7  UNL     1      22.223   1.249  53.395  1.00  0.00     0.158 HD
ENDBRANCH  17  18
ENDBRANCH  11  16
ENDBRANCH   9  10
ENDBRANCH   7   9
ENDBRANCH   1   7
BRANCH   5  21
HETATM   21  O1  UNL     1      24.568   7.685  48.387  1.00  0.00    -0.349 OA
BRANCH  21  22
HETATM   22  C14 UNL     1      23.453   6.936  48.855  1.00  0.00     0.196 C 
BRANCH  22  23
HETATM   23  C15 UNL     1      23.119   7.288  50.292  1.00  0.00     0.156 C 
BRANCH  23  24
HETATM   24  N5  UNL     1      22.786   6.121  51.072  1.00  0.00    -0.348 N 
HETATM   25  C16 UNL     1      21.629   5.448  51.141  1.00  0.00     0.111 A 
HETATM   26  C17 UNL     1      21.672   4.376  51.995  1.00  0.00     0.135 A 
HETATM   27  N6  UNL     1      22.933   4.416  52.461  1.00  0.00    -0.255 NA
HETATM   28  C18 UNL     1      23.600   5.458  51.909  1.00  0.00     0.209 A 
ENDBRANCH  23  24
ENDBRANCH  22  23
ENDBRANCH  21  22
ENDBRANCH   5  21
TORSDOF 11
ENDMDL
