MODEL 1
REMARK VINA RESULT:      -7.2      0.000      0.000
REMARK  6 active torsions:
REMARK  status: ('A' for Active; 'I' for Inactive)
REMARK    1  A    between atoms: C2_2  and  N1_3 
REMARK    2  A    between atoms: C2_2  and  O1_18 
REMARK    3  A    between atoms: N1_3  and  C3_4 
REMARK    4  A    between atoms: O1_18  and  C13_19 
REMARK    5  A    between atoms: C13_19  and  C14_20 
REMARK    6  A    between atoms: C14_20  and  N6_21 
ROOT
HETATM    1  C3  UNL     1      23.065   1.100  51.987  1.00  0.00     0.126 A 
HETATM    2  C4  UNL     1      22.359   0.292  52.841  1.00  0.00     0.067 A 
HETATM    3  C5  UNL     1      21.055  -0.021  52.564  1.00  0.00     0.035 A 
HETATM    4  C6  UNL     1      20.483   0.491  51.424  1.00  0.00     0.087 A 
HETATM    5  C7  UNL     1      21.175   1.303  50.553  1.00  0.00     0.151 A 
HETATM    6  N2  UNL     1      22.469   1.582  50.876  1.00  0.00    -0.241 NA
HETATM    7  N3  UNL     1      19.327   0.431  50.868  1.00  0.00    -0.259 NA
HETATM    8  C8  UNL     1      18.106  -0.207  51.206  1.00  0.00     0.115 C 
HETATM    9  C9  UNL     1      17.734  -0.861  52.302  1.00  0.00     0.012 C 
HETATM   10  C10 UNL     1      18.095  -1.344  53.656  1.00  0.00     0.149 C 
HETATM   11  N4  UNL     1      19.518  -1.456  53.878  1.00  0.00    -0.377 N 
HETATM   12  C11 UNL     1      20.749  -0.797  53.581  1.00  0.00     0.122 C 
HETATM   13  C12 UNL     1      21.751  -1.077  54.560  1.00  0.00     0.118 C 
HETATM   14  N5  UNL     1      22.558  -1.320  55.370  1.00  0.00    -0.190 NA
HETATM   15  H12 UNL     1      19.717  -2.311  54.454  1.00  0.00     0.160 HD
ENDROOT
BRANCH   1  16
HETATM   16  N1  UNL     1      24.392   1.582  52.040  1.00  0.00    -0.349 N 
HETATM   17  H5  UNL     1      24.443   2.634  52.137  1.00  0.00     0.163 HD
BRANCH  16  18
HETATM   18  C2  UNL     1      25.697   0.897  51.977  1.00  0.00     0.217 C 
HETATM   19  C1  UNL     1      26.656   2.018  51.528  1.00  0.00     0.063 C 
BRANCH  18  20
HETATM   20  O1  UNL     1      26.048   0.202  52.947  1.00  0.00    -0.366 OA
BRANCH  20  21
HETATM   21  C13 UNL     1      26.404  -0.497  53.917  1.00  0.00     0.189 C 
BRANCH  21  22
HETATM   22  C14 UNL     1      27.403   0.127  54.907  1.00  0.00     0.142 C 
BRANCH  22  23
HETATM   23  N6  UNL     1      28.700   0.307  54.404  1.00  0.00    -0.419 N 
HETATM   24  C15 UNL     1      29.191   1.615  54.216  1.00  0.00     0.142 C 
HETATM   25  C16 UNL     1      29.347  -0.751  53.734  1.00  0.00     0.142 C 
ENDBRANCH  22  23
ENDBRANCH  21  22
ENDBRANCH  20  21
ENDBRANCH  18  20
ENDBRANCH  16  18
ENDBRANCH   1  16
TORSDOF 6
ENDMDL
MODEL 2
REMARK VINA RESULT:      -6.9      2.413      7.439
REMARK  6 active torsions:
REMARK  status: ('A' for Active; 'I' for Inactive)
REMARK    1  A    between atoms: C2_2  and  N1_3 
REMARK    2  A    between atoms: C2_2  and  O1_18 
REMARK    3  A    between atoms: N1_3  and  C3_4 
REMARK    4  A    between atoms: O1_18  and  C13_19 
REMARK    5  A    between atoms: C13_19  and  C14_20 
REMARK    6  A    between atoms: C14_20  and  N6_21 
ROOT
HETATM    1  C3  UNL     1      23.430   0.074  53.098  1.00  0.00     0.126 A 
HETATM    2  C4  UNL     1      24.366   0.979  52.669  1.00  0.00     0.067 A 
HETATM    3  C5  UNL     1      25.635   0.945  53.184  1.00  0.00     0.035 A 
HETATM    4  C6  UNL     1      25.937  -0.008  54.127  1.00  0.00     0.087 A 
HETATM    5  C7  UNL     1      25.011  -0.926  54.570  1.00  0.00     0.151 A 
HETATM    6  N2  UNL     1      23.764  -0.847  54.025  1.00  0.00    -0.241 NA
HETATM    7  N3  UNL     1      26.972  -0.322  54.819  1.00  0.00    -0.259 NA
HETATM    8  C8  UNL     1      28.289   0.198  54.908  1.00  0.00     0.115 C 
HETATM    9  C9  UNL     1      28.839   1.285  54.377  1.00  0.00     0.012 C 
HETATM   10  C10 UNL     1      28.667   2.492  53.532  1.00  0.00     0.149 C 
HETATM   11  N4  UNL     1      27.552   2.411  52.616  1.00  0.00    -0.377 N 
HETATM   12  C11 UNL     1      26.211   1.930  52.531  1.00  0.00     0.122 C 
HETATM   13  C12 UNL     1      25.446   2.659  51.569  1.00  0.00     0.118 C 
HETATM   14  N5  UNL     1      24.838   3.265  50.776  1.00  0.00    -0.190 NA
HETATM   15  H12 UNL     1      27.815   2.858  51.704  1.00  0.00     0.160 HD
ENDROOT
BRANCH   1  16
HETATM   16  N1  UNL     1      22.071  -0.099  52.750  1.00  0.00    -0.349 N 
HETATM   17  H5  UNL     1      21.927  -0.848  52.017  1.00  0.00     0.163 HD
BRANCH  16  18
HETATM   18  C2  UNL     1      20.839   0.570  53.208  1.00  0.00     0.217 C 
HETATM   19  C1  UNL     1      20.845   0.305  54.728  1.00  0.00     0.063 C 
BRANCH  18  20
HETATM   20  O1  UNL     1      20.626   1.737  52.836  1.00  0.00    -0.366 OA
BRANCH  20  21
HETATM   21  C13 UNL     1      20.415   2.907  52.458  1.00  0.00     0.189 C 
BRANCH  21  22
HETATM   22  C14 UNL     1      21.641   3.762  52.089  1.00  0.00     0.142 C 
BRANCH  22  23
HETATM   23  N6  UNL     1      21.435   4.668  51.038  1.00  0.00    -0.419 N 
HETATM   24  C15 UNL     1      21.290   4.179  49.725  1.00  0.00     0.142 C 
HETATM   25  C16 UNL     1      21.757   6.029  51.211  1.00  0.00     0.142 C 
ENDBRANCH  22  23
ENDBRANCH  21  22
ENDBRANCH  20  21
ENDBRANCH  18  20
ENDBRANCH  16  18
ENDBRANCH   1  16
TORSDOF 6
ENDMDL
MODEL 3
REMARK VINA RESULT:      -6.8      2.642      6.889
REMARK  6 active torsions:
REMARK  status: ('A' for Active; 'I' for Inactive)
REMARK    1  A    between atoms: C2_2  and  N1_3 
REMARK    2  A    between atoms: C2_2  and  O1_18 
REMARK    3  A    between atoms: N1_3  and  C3_4 
REMARK    4  A    between atoms: O1_18  and  C13_19 
REMARK    5  A    between atoms: C13_19  and  C14_20 
REMARK    6  A    between atoms: C14_20  and  N6_21 
ROOT
HETATM    1  C3  UNL     1      23.720   1.089  52.079  1.00  0.00     0.126 A 
HETATM    2  C4  UNL     1      24.406   0.494  53.106  1.00  0.00     0.067 A 
HETATM    3  C5  UNL     1      25.716   0.824  53.334  1.00  0.00     0.035 A 
HETATM    4  C6  UNL     1      26.312   1.754  52.515  1.00  0.00     0.087 A 
HETATM    5  C7  UNL     1      25.639   2.363  51.480  1.00  0.00     0.151 A 
HETATM    6  N2  UNL     1      24.339   1.998  51.298  1.00  0.00    -0.241 NA
HETATM    7  N3  UNL     1      27.480   2.279  52.418  1.00  0.00    -0.259 NA
HETATM    8  C8  UNL     1      28.693   2.118  53.135  1.00  0.00     0.115 C 
HETATM    9  C9  UNL     1      29.041   1.254  54.083  1.00  0.00     0.012 C 
HETATM   10  C10 UNL     1      28.652   0.107  54.938  1.00  0.00     0.149 C 
HETATM   11  N4  UNL     1      27.224  -0.044  55.100  1.00  0.00    -0.377 N 
HETATM   12  C11 UNL     1      26.000   0.073  54.375  1.00  0.00     0.122 C 
HETATM   13  C12 UNL     1      24.978  -0.762  54.921  1.00  0.00     0.118 C 
HETATM   14  N5  UNL     1      24.154  -1.450  55.385  1.00  0.00    -0.190 NA
HETATM   15  H12 UNL     1      27.013  -0.341  56.084  1.00  0.00     0.160 HD
ENDROOT
BRANCH   1  16
HETATM   16  N1  UNL     1      22.392   0.923  51.625  1.00  0.00    -0.349 N 
HETATM   17  H5  UNL     1      22.304   0.183  50.875  1.00  0.00     0.163 HD
BRANCH  16  18
HETATM   18  C2  UNL     1      21.130   1.591  51.994  1.00  0.00     0.217 C 
HETATM   19  C1  UNL     1      20.746   0.900  53.319  1.00  0.00     0.063 C 
BRANCH  18  20
HETATM   20  O1  UNL     1      21.088   2.834  51.968  1.00  0.00    -0.366 OA
BRANCH  20  21
HETATM   21  C13 UNL     1      21.049   4.080  51.939  1.00  0.00     0.189 C 
BRANCH  21  22
HETATM   22  C14 UNL     1      22.338   4.835  52.309  1.00  0.00     0.142 C 
BRANCH  22  23
HETATM   23  N6  UNL     1      22.744   5.803  51.378  1.00  0.00    -0.419 N 
HETATM   24  C15 UNL     1      21.793   6.710  50.869  1.00  0.00     0.142 C 
HETATM   25  C16 UNL     1      23.952   5.636  50.672  1.00  0.00     0.142 C 
ENDBRANCH  22  23
ENDBRANCH  21  22
ENDBRANCH  20  21
ENDBRANCH  18  20
ENDBRANCH  16  18
ENDBRANCH   1  16
TORSDOF 6
ENDMDL
MODEL 4
REMARK VINA RESULT:      -6.5      3.246      7.075
REMARK  6 active torsions:
REMARK  status: ('A' for Active; 'I' for Inactive)
REMARK    1  A    between atoms: C2_2  and  N1_3 
REMARK    2  A    between atoms: C2_2  and  O1_18 
REMARK    3  A    between atoms: N1_3  and  C3_4 
REMARK    4  A    between atoms: O1_18  and  C13_19 
REMARK    5  A    between atoms: C13_19  and  C14_20 
REMARK    6  A    between atoms: C14_20  and  N6_21 
ROOT
HETATM    1  C3  UNL     1      24.173   1.879  51.196  1.00  0.00     0.126 A 
HETATM    2  C4  UNL     1      24.508   1.102  52.276  1.00  0.00     0.067 A 
HETATM    3  C5  UNL     1      25.765   1.187  52.814  1.00  0.00     0.035 A 
HETATM    4  C6  UNL     1      26.665   2.060  52.250  1.00  0.00     0.087 A 
HETATM    5  C7  UNL     1      26.346   2.849  51.167  1.00  0.00     0.151 A 
HETATM    6  N2  UNL     1      25.083   2.724  50.671  1.00  0.00    -0.241 NA
HETATM    7  N3  UNL     1      27.888   2.385  52.464  1.00  0.00    -0.259 NA
HETATM    8  C8  UNL     1      28.866   1.969  53.403  1.00  0.00     0.115 C 
HETATM    9  C9  UNL     1      28.854   0.990  54.303  1.00  0.00     0.012 C 
HETATM   10  C10 UNL     1      28.112  -0.133  54.924  1.00  0.00     0.149 C 
HETATM   11  N4  UNL     1      26.679  -0.051  54.758  1.00  0.00    -0.377 N 
HETATM   12  C11 UNL     1      25.686   0.325  53.803  1.00  0.00     0.122 C 
HETATM   13  C12 UNL     1      24.453  -0.362  54.022  1.00  0.00     0.118 C 
HETATM   14  N5  UNL     1      23.452  -0.932  54.220  1.00  0.00    -0.190 NA
HETATM   15  H12 UNL     1      26.206  -0.379  55.634  1.00  0.00     0.160 HD
ENDROOT
BRANCH   1  16
HETATM   16  N1  UNL     1      22.975   1.975  50.452  1.00  0.00    -0.349 N 
HETATM   17  H5  UNL     1      22.114   1.773  51.031  1.00  0.00     0.163 HD
BRANCH  16  18
HETATM   18  C2  UNL     1      22.714   2.290  49.035  1.00  0.00     0.217 C 
HETATM   19  C1  UNL     1      21.601   1.292  48.657  1.00  0.00     0.063 C 
BRANCH  18  20
HETATM   20  O1  UNL     1      22.544   3.480  48.715  1.00  0.00    -0.366 OA
BRANCH  20  21
HETATM   21  C13 UNL     1      22.378   4.673  48.392  1.00  0.00     0.189 C 
BRANCH  21  22
HETATM   22  C14 UNL     1      23.204   5.729  49.146  1.00  0.00     0.142 C 
BRANCH  22  23
HETATM   23  N6  UNL     1      22.781   5.983  50.460  1.00  0.00    -0.419 N 
HETATM   24  C15 UNL     1      23.692   5.812  51.522  1.00  0.00     0.142 C 
HETATM   25  C16 UNL     1      21.405   6.018  50.761  1.00  0.00     0.142 C 
ENDBRANCH  22  23
ENDBRANCH  21  22
ENDBRANCH  20  21
ENDBRANCH  18  20
ENDBRANCH  16  18
ENDBRANCH   1  16
TORSDOF 6
ENDMDL
MODEL 5
REMARK VINA RESULT:      -6.4      2.510      7.170
REMARK  6 active torsions:
REMARK  status: ('A' for Active; 'I' for Inactive)
REMARK    1  A    between atoms: C2_2  and  N1_3 
REMARK    2  A    between atoms: C2_2  and  O1_18 
REMARK    3  A    between atoms: N1_3  and  C3_4 
REMARK    4  A    between atoms: O1_18  and  C13_19 
REMARK    5  A    between atoms: C13_19  and  C14_20 
REMARK    6  A    between atoms: C14_20  and  N6_21 
ROOT
HETATM    1  C3  UNL     1      24.143   1.923  50.980  1.00  0.00     0.126 A 
HETATM    2  C4  UNL     1      24.437   1.170  52.088  1.00  0.00     0.067 A 
HETATM    3  C5  UNL     1      25.672   1.268  52.672  1.00  0.00     0.035 A 
HETATM    4  C6  UNL     1      26.593   2.129  52.124  1.00  0.00     0.087 A 
HETATM    5  C7  UNL     1      26.316   2.895  51.013  1.00  0.00     0.151 A 
HETATM    6  N2  UNL     1      25.072   2.758  50.472  1.00  0.00    -0.241 NA
HETATM    7  N3  UNL     1      27.807   2.461  52.377  1.00  0.00    -0.259 NA
HETATM    8  C8  UNL     1      28.749   2.065  53.362  1.00  0.00     0.115 C 
HETATM    9  C9  UNL     1      28.703   1.106  54.281  1.00  0.00     0.012 C 
HETATM   10  C10 UNL     1      27.938  -0.004  54.897  1.00  0.00     0.149 C 
HETATM   11  N4  UNL     1      26.513   0.073  54.674  1.00  0.00    -0.377 N 
HETATM   12  C11 UNL     1      25.557   0.427  53.675  1.00  0.00     0.122 C 
HETATM   13  C12 UNL     1      24.316  -0.257  53.862  1.00  0.00     0.118 C 
HETATM   14  N5  UNL     1      23.308  -0.823  54.033  1.00  0.00    -0.190 NA
HETATM   15  H12 UNL     1      26.006  -0.237  55.539  1.00  0.00     0.160 HD
ENDROOT
BRANCH   1  16
HETATM   16  N1  UNL     1      22.975   2.002  50.188  1.00  0.00    -0.349 N 
HETATM   17  H5  UNL     1      22.441   1.090  50.153  1.00  0.00     0.163 HD
BRANCH  16  18
HETATM   18  C2  UNL     1      22.381   3.104  49.409  1.00  0.00     0.217 C 
HETATM   19  C1  UNL     1      22.367   2.544  47.971  1.00  0.00     0.063 C 
BRANCH  18  20
HETATM   20  O1  UNL     1      21.331   3.626  49.825  1.00  0.00    -0.366 OA
BRANCH  20  21
HETATM   21  C13 UNL     1      20.277   4.149  50.239  1.00  0.00     0.189 C 
BRANCH  21  22
HETATM   22  C14 UNL     1      19.814   3.777  51.658  1.00  0.00     0.142 C 
BRANCH  22  23
HETATM   23  N6  UNL     1      19.677   2.400  51.893  1.00  0.00    -0.419 N 
HETATM   24  C15 UNL     1      18.486   1.751  51.510  1.00  0.00     0.142 C 
HETATM   25  C16 UNL     1      20.514   1.760  52.829  1.00  0.00     0.142 C 
ENDBRANCH  22  23
ENDBRANCH  21  22
ENDBRANCH  20  21
ENDBRANCH  18  20
ENDBRANCH  16  18
ENDBRANCH   1  16
TORSDOF 6
ENDMDL
MODEL 6
REMARK VINA RESULT:      -6.4      1.928      7.716
REMARK  6 active torsions:
REMARK  status: ('A' for Active; 'I' for Inactive)
REMARK    1  A    between atoms: C2_2  and  N1_3 
REMARK    2  A    between atoms: C2_2  and  O1_18 
REMARK    3  A    between atoms: N1_3  and  C3_4 
REMARK    4  A    between atoms: O1_18  and  C13_19 
REMARK    5  A    between atoms: C13_19  and  C14_20 
REMARK    6  A    between atoms: C14_20  and  N6_21 
ROOT
HETATM    1  C3  UNL     1      23.633   1.183  52.195  1.00  0.00     0.126 A 
HETATM    2  C4  UNL     1      24.339   0.547  53.184  1.00  0.00     0.067 A 
HETATM    3  C5  UNL     1      25.661   0.844  53.377  1.00  0.00     0.035 A 
HETATM    4  C6  UNL     1      26.251   1.783  52.565  1.00  0.00     0.087 A 
HETATM    5  C7  UNL     1      25.559   2.434  51.568  1.00  0.00     0.151 A 
HETATM    6  N2  UNL     1      24.246   2.100  51.419  1.00  0.00    -0.241 NA
HETATM    7  N3  UNL     1      27.426   2.287  52.444  1.00  0.00    -0.259 NA
HETATM    8  C8  UNL     1      28.657   2.081  53.118  1.00  0.00     0.115 C 
HETATM    9  C9  UNL     1      29.017   1.184  54.030  1.00  0.00     0.012 C 
HETATM   10  C10 UNL     1      28.630   0.023  54.867  1.00  0.00     0.149 C 
HETATM   11  N4  UNL     1      27.205  -0.102  55.071  1.00  0.00    -0.377 N 
HETATM   12  C11 UNL     1      25.962   0.059  54.389  1.00  0.00     0.122 C 
HETATM   13  C12 UNL     1      24.940  -0.769  54.945  1.00  0.00     0.118 C 
HETATM   14  N5  UNL     1      24.117  -1.452  55.417  1.00  0.00    -0.190 NA
HETATM   15  H12 UNL     1      27.019  -0.422  56.053  1.00  0.00     0.160 HD
ENDROOT
BRANCH   1  16
HETATM   16  N1  UNL     1      22.288   1.058  51.779  1.00  0.00    -0.349 N 
HETATM   17  H5  UNL     1      22.037   1.721  50.995  1.00  0.00     0.163 HD
BRANCH  16  18
HETATM   18  C2  UNL     1      21.187   0.190  52.240  1.00  0.00     0.217 C 
HETATM   19  C1  UNL     1      21.110   0.499  53.749  1.00  0.00     0.063 C 
BRANCH  18  20
HETATM   20  O1  UNL     1      20.119   0.200  51.602  1.00  0.00    -0.366 OA
BRANCH  20  21
HETATM   21  C13 UNL     1      19.048   0.215  50.963  1.00  0.00     0.189 C 
BRANCH  21  22
HETATM   22  C14 UNL     1      17.770   0.583  51.737  1.00  0.00     0.142 C 
BRANCH  22  23
HETATM   23  N6  UNL     1      17.035  -0.511  52.219  1.00  0.00    -0.419 N 
HETATM   24  C15 UNL     1      17.568  -1.294  53.262  1.00  0.00     0.142 C 
HETATM   25  C16 UNL     1      15.996  -1.058  51.438  1.00  0.00     0.142 C 
ENDBRANCH  22  23
ENDBRANCH  21  22
ENDBRANCH  20  21
ENDBRANCH  18  20
ENDBRANCH  16  18
ENDBRANCH   1  16
TORSDOF 6
ENDMDL
MODEL 7
REMARK VINA RESULT:      -6.3      2.455      7.022
REMARK  6 active torsions:
REMARK  status: ('A' for Active; 'I' for Inactive)
REMARK    1  A    between atoms: C2_2  and  N1_3 
REMARK    2  A    between atoms: C2_2  and  O1_18 
REMARK    3  A    between atoms: N1_3  and  C3_4 
REMARK    4  A    between atoms: O1_18  and  C13_19 
REMARK    5  A    between atoms: C13_19  and  C14_20 
REMARK    6  A    between atoms: C14_20  and  N6_21 
ROOT
HETATM    1  C3  UNL     1      21.767   2.335  52.404  1.00  0.00     0.126 A 
HETATM    2  C4  UNL     1      22.343   1.256  53.024  1.00  0.00     0.067 A 
HETATM    3  C5  UNL     1      23.667   0.975  52.814  1.00  0.00     0.035 A 
HETATM    4  C6  UNL     1      24.389   1.794  51.979  1.00  0.00     0.087 A 
HETATM    5  C7  UNL     1      23.829   2.883  51.348  1.00  0.00     0.151 A 
HETATM    6  N2  UNL     1      22.508   3.116  51.591  1.00  0.00    -0.241 NA
HETATM    7  N3  UNL     1      25.598   1.832  51.547  1.00  0.00    -0.259 NA
HETATM    8  C8  UNL     1      26.742   1.018  51.756  1.00  0.00     0.115 C 
HETATM    9  C9  UNL     1      26.887  -0.144  52.384  1.00  0.00     0.012 C 
HETATM   10  C10 UNL     1      26.250  -1.243  53.149  1.00  0.00     0.149 C 
HETATM   11  N4  UNL     1      25.008  -0.870  53.786  1.00  0.00    -0.377 N 
HETATM   12  C11 UNL     1      23.833  -0.089  53.568  1.00  0.00     0.122 C 
HETATM   13  C12 UNL     1      22.722  -0.582  54.318  1.00  0.00     0.118 C 
HETATM   14  N5  UNL     1      21.826  -0.999  54.942  1.00  0.00    -0.190 NA
HETATM   15  H12 UNL     1      24.946  -1.329  54.727  1.00  0.00     0.160 HD
ENDROOT
BRANCH   1  16
HETATM   16  N1  UNL     1      20.444   2.832  52.434  1.00  0.00    -0.349 N 
HETATM   17  H5  UNL     1      20.365   3.759  52.937  1.00  0.00     0.163 HD
BRANCH  16  18
HETATM   18  C2  UNL     1      19.174   2.296  51.908  1.00  0.00     0.217 C 
HETATM   19  C1  UNL     1      18.996   3.064  50.582  1.00  0.00     0.063 C 
BRANCH  18  20
HETATM   20  O1  UNL     1      19.020   1.062  51.875  1.00  0.00    -0.366 OA
BRANCH  20  21
HETATM   21  C13 UNL     1      18.867  -0.175  51.838  1.00  0.00     0.189 C 
BRANCH  21  22
HETATM   22  C14 UNL     1      18.613  -0.895  53.173  1.00  0.00     0.142 C 
BRANCH  22  23
HETATM   23  N6  UNL     1      17.431  -1.651  53.222  1.00  0.00    -0.419 N 
HETATM   24  C15 UNL     1      17.506  -3.028  53.508  1.00  0.00     0.142 C 
HETATM   25  C16 UNL     1      16.256  -1.156  52.621  1.00  0.00     0.142 C 
ENDBRANCH  22  23
ENDBRANCH  21  22
ENDBRANCH  20  21
ENDBRANCH  18  20
ENDBRANCH  16  18
ENDBRANCH   1  16
TORSDOF 6
ENDMDL
MODEL 8
REMARK VINA RESULT:      -6.3      2.988      7.210
REMARK  6 active torsions:
REMARK  status: ('A' for Active; 'I' for Inactive)
REMARK    1  A    between atoms: C2_2  and  N1_3 
REMARK    2  A    between atoms: C2_2  and  O1_18 
REMARK    3  A    between atoms: N1_3  and  C3_4 
REMARK    4  A    between atoms: O1_18  and  C13_19 
REMARK    5  A    between atoms: C13_19  and  C14_20 
REMARK    6  A    between atoms: C14_20  and  N6_21 
ROOT
HETATM    1  C3  UNL     1      23.335   1.340  51.611  1.00  0.00     0.126 A 
HETATM    2  C4  UNL     1      24.610   1.838  51.523  1.00  0.00     0.067 A 
HETATM    3  C5  UNL     1      25.565   1.433  52.418  1.00  0.00     0.035 A 
HETATM    4  C6  UNL     1      25.213   0.527  53.390  1.00  0.00     0.087 A 
HETATM    5  C7  UNL     1      23.939   0.015  53.494  1.00  0.00     0.151 A 
HETATM    6  N2  UNL     1      23.029   0.452  52.579  1.00  0.00    -0.241 NA
HETATM    7  N3  UNL     1      25.809  -0.046  54.372  1.00  0.00    -0.259 NA
HETATM    8  C8  UNL     1      27.129   0.013  54.890  1.00  0.00     0.115 C 
HETATM    9  C9  UNL     1      28.155   0.801  54.584  1.00  0.00     0.012 C 
HETATM   10  C10 UNL     1      28.679   1.910  53.752  1.00  0.00     0.149 C 
HETATM   11  N4  UNL     1      27.945   2.118  52.525  1.00  0.00    -0.377 N 
HETATM   12  C11 UNL     1      26.617   2.104  52.003  1.00  0.00     0.122 C 
HETATM   13  C12 UNL     1      26.486   2.952  50.861  1.00  0.00     0.118 C 
HETATM   14  N5  UNL     1      26.400   3.648  49.926  1.00  0.00    -0.190 NA
HETATM   15  H12 UNL     1      28.614   2.364  51.755  1.00  0.00     0.160 HD
ENDROOT
BRANCH   1  16
HETATM   16  N1  UNL     1      22.178   1.596  50.841  1.00  0.00    -0.349 N 
HETATM   17  H5  UNL     1      21.994   0.848  50.116  1.00  0.00     0.163 HD
BRANCH  16  18
HETATM   18  C2  UNL     1      21.204   2.703  50.858  1.00  0.00     0.217 C 
HETATM   19  C1  UNL     1      19.912   2.020  51.353  1.00  0.00     0.063 C 
BRANCH  18  20
HETATM   20  O1  UNL     1      21.529   3.770  51.407  1.00  0.00    -0.366 OA
BRANCH  20  21
HETATM   21  C13 UNL     1      21.855   4.843  51.954  1.00  0.00     0.189 C 
BRANCH  21  22
HETATM   22  C14 UNL     1      23.318   5.296  51.804  1.00  0.00     0.142 C 
BRANCH  22  23
HETATM   23  N6  UNL     1      23.514   6.384  50.940  1.00  0.00    -0.419 N 
HETATM   24  C15 UNL     1      24.828   6.799  50.643  1.00  0.00     0.142 C 
HETATM   25  C16 UNL     1      22.458   7.283  50.691  1.00  0.00     0.142 C 
ENDBRANCH  22  23
ENDBRANCH  21  22
ENDBRANCH  20  21
ENDBRANCH  18  20
ENDBRANCH  16  18
ENDBRANCH   1  16
TORSDOF 6
ENDMDL
MODEL 9
REMARK VINA RESULT:      -6.1      2.962      6.343
REMARK  6 active torsions:
REMARK  status: ('A' for Active; 'I' for Inactive)
REMARK    1  A    between atoms: C2_2  and  N1_3 
REMARK    2  A    between atoms: C2_2  and  O1_18 
REMARK    3  A    between atoms: N1_3  and  C3_4 
REMARK    4  A    between atoms: O1_18  and  C13_19 
REMARK    5  A    between atoms: C13_19  and  C14_20 
REMARK    6  A    between atoms: C14_20  and  N6_21 
ROOT
HETATM    1  C3  UNL     1      22.966   1.751  50.709  1.00  0.00     0.126 A 
HETATM    2  C4  UNL     1      24.222   1.771  51.259  1.00  0.00     0.067 A 
HETATM    3  C5  UNL     1      24.498   1.004  52.360  1.00  0.00     0.035 A 
HETATM    4  C6  UNL     1      23.495   0.225  52.887  1.00  0.00     0.087 A 
HETATM    5  C7  UNL     1      22.228   0.190  52.348  1.00  0.00     0.151 A 
HETATM    6  N2  UNL     1      22.008   0.973  51.254  1.00  0.00    -0.241 NA
HETATM    7  N3  UNL     1      23.381  -0.578  53.883  1.00  0.00    -0.259 NA
HETATM    8  C8  UNL     1      24.270  -1.019  54.896  1.00  0.00     0.115 C 
HETATM    9  C9  UNL     1      25.500  -0.627  55.213  1.00  0.00     0.012 C 
HETATM   10  C10 UNL     1      26.642   0.273  54.923  1.00  0.00     0.149 C 
HETATM   11  N4  UNL     1      26.648   0.798  53.577  1.00  0.00    -0.377 N 
HETATM   12  C11 UNL     1      25.766   1.284  52.566  1.00  0.00     0.122 C 
HETATM   13  C12 UNL     1      26.424   2.188  51.677  1.00  0.00     0.118 C 
HETATM   14  N5  UNL     1      26.981   2.924  50.960  1.00  0.00    -0.190 NA
HETATM   15  H12 UNL     1      27.633   0.837  53.221  1.00  0.00     0.160 HD
ENDROOT
BRANCH   1  16
HETATM   16  N1  UNL     1      22.420   2.443  49.604  1.00  0.00    -0.349 N 
HETATM   17  H5  UNL     1      21.442   2.123  49.362  1.00  0.00     0.163 HD
BRANCH  16  18
HETATM   18  C2  UNL     1      22.961   3.506  48.737  1.00  0.00     0.217 C 
HETATM   19  C1  UNL     1      21.705   4.047  48.025  1.00  0.00     0.063 C 
BRANCH  18  20
HETATM   20  O1  UNL     1      23.735   4.341  49.237  1.00  0.00    -0.366 OA
BRANCH  20  21
HETATM   21  C13 UNL     1      24.514   5.179  49.735  1.00  0.00     0.189 C 
BRANCH  21  22
HETATM   22  C14 UNL     1      24.049   5.905  51.009  1.00  0.00     0.142 C 
BRANCH  22  23
HETATM   23  N6  UNL     1      22.694   5.729  51.329  1.00  0.00    -0.419 N 
HETATM   24  C15 UNL     1      21.753   6.680  50.888  1.00  0.00     0.142 C 
HETATM   25  C16 UNL     1      22.327   4.865  52.380  1.00  0.00     0.142 C 
ENDBRANCH  22  23
ENDBRANCH  21  22
ENDBRANCH  20  21
ENDBRANCH  18  20
ENDBRANCH  16  18
ENDBRANCH   1  16
TORSDOF 6
ENDMDL
