MODEL 1
REMARK VINA RESULT:      -8.2      0.000      0.000
REMARK  3 active torsions:
REMARK  status: ('A' for Active; 'I' for Inactive)
REMARK    1  A    between atoms: C4_4  and  C5_5 
REMARK    2  A    between atoms: C9_11  and  C11_13 
REMARK    3  A    between atoms: C12_14  and  N1_15 
ROOT
HETATM    1  C5  UNL     1      23.449   1.154  51.942  1.00  0.00     0.035 C 
HETATM    2  C6  UNL     1      22.278   0.185  51.890  1.00  0.00     0.037 C 
HETATM    3  C7  UNL     1      21.376   0.244  50.750  1.00  0.00     0.173 C 
HETATM    4  O1  UNL     1      20.070   0.416  51.305  1.00  0.00    -0.367 OA
HETATM    5  P1  UNL     1      20.411   1.588  52.586  1.00  0.00     0.013 P 
HETATM    6  C8  UNL     1      21.540   2.758  51.779  1.00  0.00     0.074 C 
HETATM    7  C9  UNL     1      23.020   2.477  51.731  1.00  0.00    -0.012 C 
HETATM    8  C10 UNL     1      23.304   3.042  50.321  1.00  0.00     0.021 C 
HETATM    9  H9  UNL     1      19.221   2.234  53.045  1.00  0.00     0.087 HD
ENDROOT
BRANCH   1  10
HETATM   10  C4  UNL     1      24.385   0.607  52.887  1.00  0.00    -0.020 A 
HETATM   11  C3  UNL     1      25.848   0.728  53.090  1.00  0.00     0.050 A 
HETATM   12  C2  UNL     1      26.756   1.399  52.395  1.00  0.00    -0.035 A 
HETATM   13  N2  UNL     1      26.311  -0.035  54.202  1.00  0.00    -0.310 N 
HETATM   14  C1  UNL     1      26.375   2.183  51.212  1.00  0.00     0.050 C 
HETATM   15  C17 UNL     1      28.148   1.299  52.859  1.00  0.00     0.006 A 
HETATM   16  C16 UNL     1      28.618   0.621  53.888  1.00  0.00    -0.006 A 
HETATM   17  C15 UNL     1      27.651  -0.137  54.682  1.00  0.00     0.160 A 
HETATM   18  C14 UNL     1      25.163  -0.650  54.716  1.00  0.00     0.248 A 
HETATM   19  C13 UNL     1      24.031  -0.239  53.899  1.00  0.00     0.084 A 
HETATM   20  O2  UNL     1      25.139  -1.418  55.710  1.00  0.00    -0.268 OA
ENDBRANCH   1  10
BRANCH   7  21
HETATM   21  C11 UNL     1      23.446   3.498  52.767  1.00  0.00     0.000 C 
HETATM   22  C12 UNL     1      23.642   4.769  52.580  1.00  0.00     0.077 C 
BRANCH  22  23
HETATM   23  N1  UNL     1      24.048   5.759  53.548  1.00  0.00    -0.408 N 
HETATM   24  H17 UNL     1      24.278   5.757  54.549  1.00  0.00     0.155 HD
HETATM   25  H18 UNL     1      24.225   6.804  53.480  1.00  0.00     0.155 HD
ENDBRANCH  22  23
ENDBRANCH   7  21
TORSDOF 3
ENDMDL
MODEL 2
REMARK VINA RESULT:      -7.9      1.376      1.675
REMARK  3 active torsions:
REMARK  status: ('A' for Active; 'I' for Inactive)
REMARK    1  A    between atoms: C4_4  and  C5_5 
REMARK    2  A    between atoms: C9_11  and  C11_13 
REMARK    3  A    between atoms: C12_14  and  N1_15 
ROOT
HETATM    1  C5  UNL     1      22.998   1.829  50.811  1.00  0.00     0.035 C 
HETATM    2  C6  UNL     1      21.886   1.022  50.161  1.00  0.00     0.037 C 
HETATM    3  C7  UNL     1      21.507   1.337  48.792  1.00  0.00     0.173 C 
HETATM    4  O1  UNL     1      20.101   1.589  48.832  1.00  0.00    -0.367 OA
HETATM    5  P1  UNL     1      19.983   2.535  50.323  1.00  0.00     0.013 P 
HETATM    6  C8  UNL     1      21.404   3.657  50.209  1.00  0.00     0.074 C 
HETATM    7  C9  UNL     1      22.766   3.210  50.678  1.00  0.00    -0.012 C 
HETATM    8  C10 UNL     1      23.613   3.917  49.594  1.00  0.00     0.021 C 
HETATM    9  H9  UNL     1      18.749   3.254  50.399  1.00  0.00     0.087 HD
ENDROOT
BRANCH   1  10
HETATM   10  C4  UNL     1      23.456   1.055  51.935  1.00  0.00    -0.020 A 
HETATM   11  C3  UNL     1      24.779   0.796  52.549  1.00  0.00     0.050 A 
HETATM   12  C2  UNL     1      25.985   1.215  52.191  1.00  0.00    -0.035 A 
HETATM   13  N2  UNL     1      24.697  -0.066  53.681  1.00  0.00    -0.310 N 
HETATM   14  C1  UNL     1      26.169   2.076  51.015  1.00  0.00     0.050 C 
HETATM   15  C17 UNL     1      27.113   0.759  53.018  1.00  0.00     0.006 A 
HETATM   16  C16 UNL     1      27.082  -0.022  54.080  1.00  0.00    -0.006 A 
HETATM   17  C15 UNL     1      25.772  -0.510  54.509  1.00  0.00     0.160 A 
HETATM   18  C14 UNL     1      23.335  -0.367  53.803  1.00  0.00     0.248 A 
HETATM   19  C13 UNL     1      22.627   0.324  52.736  1.00  0.00     0.084 A 
HETATM   20  O2  UNL     1      22.836  -1.108  54.686  1.00  0.00    -0.268 OA
ENDBRANCH   1  10
BRANCH   7  21
HETATM   21  C11 UNL     1      22.813   4.029  51.953  1.00  0.00     0.000 C 
HETATM   22  C12 UNL     1      23.819   4.713  52.407  1.00  0.00     0.077 C 
BRANCH  22  23
HETATM   23  N1  UNL     1      23.887   5.498  53.616  1.00  0.00    -0.408 N 
HETATM   24  H17 UNL     1      23.213   5.839  54.312  1.00  0.00     0.155 HD
HETATM   25  H18 UNL     1      24.695   5.957  54.134  1.00  0.00     0.155 HD
ENDBRANCH  22  23
ENDBRANCH   7  21
TORSDOF 3
ENDMDL
MODEL 3
REMARK VINA RESULT:      -7.2      3.006      4.479
REMARK  3 active torsions:
REMARK  status: ('A' for Active; 'I' for Inactive)
REMARK    1  A    between atoms: C4_4  and  C5_5 
REMARK    2  A    between atoms: C9_11  and  C11_13 
REMARK    3  A    between atoms: C12_14  and  N1_15 
ROOT
HETATM    1  C5  UNL     1      23.124   3.805  50.786  1.00  0.00     0.035 C 
HETATM    2  C6  UNL     1      22.437   4.913  51.570  1.00  0.00     0.037 C 
HETATM    3  C7  UNL     1      21.448   5.736  50.891  1.00  0.00     0.173 C 
HETATM    4  O1  UNL     1      21.886   7.085  51.071  1.00  0.00    -0.367 OA
HETATM    5  P1  UNL     1      23.627   6.900  50.814  1.00  0.00     0.013 P 
HETATM    6  C8  UNL     1      23.713   5.787  49.383  1.00  0.00     0.074 C 
HETATM    7  C9  UNL     1      23.649   4.294  49.576  1.00  0.00    -0.012 C 
HETATM    8  C10 UNL     1      22.824   3.946  48.314  1.00  0.00     0.021 C 
HETATM    9  H9  UNL     1      24.260   8.154  50.546  1.00  0.00     0.087 HD
ENDROOT
BRANCH   1  10
HETATM   10  C4  UNL     1      23.683   2.906  51.760  1.00  0.00    -0.020 A 
HETATM   11  C3  UNL     1      23.331   1.552  52.248  1.00  0.00     0.050 A 
HETATM   12  C2  UNL     1      22.323   0.758  51.914  1.00  0.00    -0.035 A 
HETATM   13  N2  UNL     1      24.226   1.082  53.252  1.00  0.00    -0.310 N 
HETATM   14  C1  UNL     1      21.329   1.175  50.915  1.00  0.00     0.050 C 
HETATM   15  C17 UNL     1      22.248  -0.539  52.605  1.00  0.00     0.006 A 
HETATM   16  C16 UNL     1      23.062  -1.020  53.524  1.00  0.00    -0.006 A 
HETATM   17  C15 UNL     1      24.187  -0.176  53.925  1.00  0.00     0.160 A 
HETATM   18  C14 UNL     1      25.151   2.119  53.419  1.00  0.00     0.248 A 
HETATM   19  C13 UNL     1      24.789   3.194  52.507  1.00  0.00     0.084 A 
HETATM   20  O2  UNL     1      26.117   2.103  54.222  1.00  0.00    -0.268 OA
ENDBRANCH   1  10
BRANCH   7  21
HETATM   21  C11 UNL     1      25.111   3.999  49.306  1.00  0.00     0.000 C 
HETATM   22  C12 UNL     1      26.087   4.854  49.263  1.00  0.00     0.077 C 
BRANCH  22  23
HETATM   23  N1  UNL     1      27.484   4.598  49.007  1.00  0.00    -0.408 N 
HETATM   24  H17 UNL     1      28.089   3.768  48.992  1.00  0.00     0.155 HD
HETATM   25  H18 UNL     1      28.300   5.231  48.754  1.00  0.00     0.155 HD
ENDBRANCH  22  23
ENDBRANCH   7  21
TORSDOF 3
ENDMDL
MODEL 4
REMARK VINA RESULT:      -7.1      2.826      3.839
REMARK  3 active torsions:
REMARK  status: ('A' for Active; 'I' for Inactive)
REMARK    1  A    between atoms: C4_4  and  C5_5 
REMARK    2  A    between atoms: C9_11  and  C11_13 
REMARK    3  A    between atoms: C12_14  and  N1_15 
ROOT
HETATM    1  C5  UNL     1      22.455   1.680  51.219  1.00  0.00     0.035 C 
HETATM    2  C6  UNL     1      21.854   2.531  52.327  1.00  0.00     0.037 C 
HETATM    3  C7  UNL     1      20.465   2.311  52.697  1.00  0.00     0.173 C 
HETATM    4  O1  UNL     1      19.831   3.586  52.577  1.00  0.00    -0.367 OA
HETATM    5  P1  UNL     1      20.560   4.173  51.076  1.00  0.00     0.013 P 
HETATM    6  C8  UNL     1      20.528   2.708  50.006  1.00  0.00     0.074 C 
HETATM    7  C9  UNL     1      21.640   1.693  50.073  1.00  0.00    -0.012 C 
HETATM    8  C10 UNL     1      20.788   0.420  49.859  1.00  0.00     0.021 C 
HETATM    9  H9  UNL     1      19.814   5.254  50.511  1.00  0.00     0.087 HD
ENDROOT
BRANCH   1  10
HETATM   10  C4  UNL     1      23.883   1.781  51.360  1.00  0.00    -0.020 A 
HETATM   11  C3  UNL     1      24.908   1.034  52.127  1.00  0.00     0.050 A 
HETATM   12  C2  UNL     1      24.775   0.016  52.966  1.00  0.00    -0.035 A 
HETATM   13  N2  UNL     1      26.224   1.542  51.921  1.00  0.00    -0.310 N 
HETATM   14  C1  UNL     1      23.452  -0.548  53.268  1.00  0.00     0.050 C 
HETATM   15  C17 UNL     1      26.009  -0.496  53.582  1.00  0.00     0.006 A 
HETATM   16  C16 UNL     1      27.245  -0.069  53.408  1.00  0.00    -0.006 A 
HETATM   17  C15 UNL     1      27.438   1.055  52.492  1.00  0.00     0.160 A 
HETATM   18  C14 UNL     1      26.059   2.610  51.031  1.00  0.00     0.248 A 
HETATM   19  C13 UNL     1      24.641   2.720  50.721  1.00  0.00     0.084 A 
HETATM   20  O2  UNL     1      26.987   3.334  50.592  1.00  0.00    -0.268 OA
ENDBRANCH   1  10
BRANCH   7  21
HETATM   21  C11 UNL     1      22.317   2.058  48.767  1.00  0.00     0.000 C 
HETATM   22  C12 UNL     1      21.781   2.659  47.748  1.00  0.00     0.077 C 
BRANCH  22  23
HETATM   23  N1  UNL     1      22.404   3.016  46.496  1.00  0.00    -0.408 N 
HETATM   24  H17 UNL     1      22.075   3.266  45.556  1.00  0.00     0.155 HD
HETATM   25  H18 UNL     1      23.419   3.121  46.199  1.00  0.00     0.155 HD
ENDBRANCH  22  23
ENDBRANCH   7  21
TORSDOF 3
ENDMDL
MODEL 5
REMARK VINA RESULT:      -7.0      3.176      4.932
REMARK  3 active torsions:
REMARK  status: ('A' for Active; 'I' for Inactive)
REMARK    1  A    between atoms: C4_4  and  C5_5 
REMARK    2  A    between atoms: C9_11  and  C11_13 
REMARK    3  A    between atoms: C12_14  and  N1_15 
ROOT
HETATM    1  C5  UNL     1      22.843   3.421  51.683  1.00  0.00     0.035 C 
HETATM    2  C6  UNL     1      23.833   4.475  52.154  1.00  0.00     0.037 C 
HETATM    3  C7  UNL     1      23.490   5.879  51.983  1.00  0.00     0.173 C 
HETATM    4  O1  UNL     1      24.576   6.451  51.250  1.00  0.00    -0.367 OA
HETATM    5  P1  UNL     1      24.882   5.170  50.068  1.00  0.00     0.013 P 
HETATM    6  C8  UNL     1      23.213   4.679  49.556  1.00  0.00     0.074 C 
HETATM    7  C9  UNL     1      22.439   3.663  50.358  1.00  0.00    -0.012 C 
HETATM    8  C10 UNL     1      21.033   4.287  50.203  1.00  0.00     0.021 C 
HETATM    9  H9  UNL     1      25.655   5.644  48.962  1.00  0.00     0.087 HD
ENDROOT
BRANCH   1  10
HETATM   10  C4  UNL     1      23.206   2.199  52.349  1.00  0.00    -0.020 A 
HETATM   11  C3  UNL     1      22.451   1.128  53.040  1.00  0.00     0.050 A 
HETATM   12  C2  UNL     1      21.150   1.009  53.270  1.00  0.00    -0.035 A 
HETATM   13  N2  UNL     1      23.299   0.099  53.545  1.00  0.00    -0.310 N 
HETATM   14  C1  UNL     1      20.205   2.040  52.819  1.00  0.00     0.050 C 
HETATM   15  C17 UNL     1      20.718  -0.188  54.008  1.00  0.00     0.006 A 
HETATM   16  C16 UNL     1      21.463  -1.170  54.477  1.00  0.00    -0.006 A 
HETATM   17  C15 UNL     1      22.904  -1.079  54.249  1.00  0.00     0.160 A 
HETATM   18  C14 UNL     1      24.593   0.497  53.190  1.00  0.00     0.248 A 
HETATM   19  C13 UNL     1      24.493   1.760  52.475  1.00  0.00     0.084 A 
HETATM   20  O2  UNL     1      25.642  -0.143  53.453  1.00  0.00    -0.268 OA
ENDBRANCH   1  10
BRANCH   7  21
HETATM   21  C11 UNL     1      22.574   2.505  49.389  1.00  0.00     0.000 C 
HETATM   22  C12 UNL     1      22.546   2.563  48.092  1.00  0.00     0.077 C 
BRANCH  22  23
HETATM   23  N1  UNL     1      22.671   1.476  47.150  1.00  0.00    -0.408 N 
HETATM   24  H17 UNL     1      22.734   1.392  46.128  1.00  0.00     0.155 HD
HETATM   25  H18 UNL     1      22.735   0.422  47.269  1.00  0.00     0.155 HD
ENDBRANCH  22  23
ENDBRANCH   7  21
TORSDOF 3
ENDMDL
MODEL 6
REMARK VINA RESULT:      -6.9      3.153      4.543
REMARK  3 active torsions:
REMARK  status: ('A' for Active; 'I' for Inactive)
REMARK    1  A    between atoms: C4_4  and  C5_5 
REMARK    2  A    between atoms: C9_11  and  C11_13 
REMARK    3  A    between atoms: C12_14  and  N1_15 
ROOT
HETATM    1  C5  UNL     1      22.591   2.001  49.726  1.00  0.00     0.035 C 
HETATM    2  C6  UNL     1      21.948   1.724  48.375  1.00  0.00     0.037 C 
HETATM    3  C7  UNL     1      22.723   1.979  47.170  1.00  0.00     0.173 C 
HETATM    4  O1  UNL     1      21.922   2.863  46.382  1.00  0.00    -0.367 OA
HETATM    5  P1  UNL     1      21.314   3.956  47.634  1.00  0.00     0.013 P 
HETATM    6  C8  UNL     1      22.778   4.254  48.663  1.00  0.00     0.074 C 
HETATM    7  C9  UNL     1      23.140   3.295  49.768  1.00  0.00    -0.012 C 
HETATM    8  C10 UNL     1      24.678   3.361  49.621  1.00  0.00     0.021 C 
HETATM    9  H9  UNL     1      20.805   5.170  47.076  1.00  0.00     0.087 HD
ENDROOT
BRANCH   1  10
HETATM   10  C4  UNL     1      21.820   1.272  50.697  1.00  0.00    -0.020 A 
HETATM   11  C3  UNL     1      22.135   0.593  51.976  1.00  0.00     0.050 A 
HETATM   12  C2  UNL     1      23.294   0.440  52.602  1.00  0.00    -0.035 A 
HETATM   13  N2  UNL     1      20.986   0.001  52.579  1.00  0.00    -0.310 N 
HETATM   14  C1  UNL     1      24.536   0.984  52.036  1.00  0.00     0.050 C 
HETATM   15  C17 UNL     1      23.267  -0.310  53.867  1.00  0.00     0.006 A 
HETATM   16  C16 UNL     1      22.228  -0.858  54.467  1.00  0.00    -0.006 A 
HETATM   17  C15 UNL     1      20.929  -0.717  53.811  1.00  0.00     0.160 A 
HETATM   18  C14 UNL     1      19.934   0.290  51.701  1.00  0.00     0.248 A 
HETATM   19  C13 UNL     1      20.477   1.052  50.586  1.00  0.00     0.084 A 
HETATM   20  O2  UNL     1      18.739  -0.060  51.867  1.00  0.00    -0.268 OA
ENDBRANCH   1  10
BRANCH   7  21
HETATM   21  C11 UNL     1      22.718   4.170  50.932  1.00  0.00     0.000 C 
HETATM   22  C12 UNL     1      22.328   5.408  50.880  1.00  0.00     0.077 C 
BRANCH  22  23
HETATM   23  N1  UNL     1      21.923   6.260  51.972  1.00  0.00    -0.408 N 
HETATM   24  H17 UNL     1      21.124   6.875  52.168  1.00  0.00     0.155 HD
HETATM   25  H18 UNL     1      22.366   6.489  52.911  1.00  0.00     0.155 HD
ENDBRANCH  22  23
ENDBRANCH   7  21
TORSDOF 3
ENDMDL
MODEL 7
REMARK VINA RESULT:      -6.8      4.663      6.747
REMARK  3 active torsions:
REMARK  status: ('A' for Active; 'I' for Inactive)
REMARK    1  A    between atoms: C4_4  and  C5_5 
REMARK    2  A    between atoms: C9_11  and  C11_13 
REMARK    3  A    between atoms: C12_14  and  N1_15 
ROOT
HETATM    1  C5  UNL     1      23.675   4.506  49.603  1.00  0.00     0.035 C 
HETATM    2  C6  UNL     1      23.170   4.984  50.956  1.00  0.00     0.037 C 
HETATM    3  C7  UNL     1      22.598   4.007  51.869  1.00  0.00     0.173 C 
HETATM    4  O1  UNL     1      21.298   4.503  52.195  1.00  0.00    -0.367 OA
HETATM    5  P1  UNL     1      20.760   5.074  50.609  1.00  0.00     0.013 P 
HETATM    6  C8  UNL     1      21.296   3.747  49.494  1.00  0.00     0.074 C 
HETATM    7  C9  UNL     1      22.699   3.738  48.942  1.00  0.00    -0.012 C 
HETATM    8  C10 UNL     1      22.936   2.210  48.972  1.00  0.00     0.021 C 
HETATM    9  H9  UNL     1      19.343   5.259  50.564  1.00  0.00     0.087 HD
ENDROOT
BRANCH   1  10
HETATM   10  C4  UNL     1      24.554   5.534  49.113  1.00  0.00    -0.020 A 
HETATM   11  C3  UNL     1      26.001   5.602  48.801  1.00  0.00     0.050 A 
HETATM   12  C2  UNL     1      26.946   4.679  48.918  1.00  0.00    -0.035 A 
HETATM   13  N2  UNL     1      26.400   6.887  48.330  1.00  0.00    -0.310 N 
HETATM   14  C1  UNL     1      26.634   3.338  49.431  1.00  0.00     0.050 C 
HETATM   15  C17 UNL     1      28.308   5.077  48.529  1.00  0.00     0.006 A 
HETATM   16  C16 UNL     1      28.717   6.245  48.074  1.00  0.00    -0.006 A 
HETATM   17  C15 UNL     1      27.708   7.294  47.931  1.00  0.00     0.160 A 
HETATM   18  C14 UNL     1      25.226   7.649  48.337  1.00  0.00     0.248 A 
HETATM   19  C13 UNL     1      24.144   6.801  48.814  1.00  0.00     0.084 A 
HETATM   20  O2  UNL     1      25.145   8.854  47.989  1.00  0.00    -0.268 OA
ENDBRANCH   1  10
BRANCH   7  21
HETATM   21  C11 UNL     1      22.355   4.155  47.526  1.00  0.00     0.000 C 
HETATM   22  C12 UNL     1      21.905   3.396  46.573  1.00  0.00     0.077 C 
BRANCH  22  23
HETATM   23  N1  UNL     1      21.572   3.770  45.220  1.00  0.00    -0.408 N 
HETATM   24  H17 UNL     1      21.246   3.277  44.380  1.00  0.00     0.155 HD
HETATM   25  H18 UNL     1      21.575   4.701  44.706  1.00  0.00     0.155 HD
ENDBRANCH  22  23
ENDBRANCH   7  21
TORSDOF 3
ENDMDL
MODEL 8
REMARK VINA RESULT:      -6.8     10.301     11.703
REMARK  3 active torsions:
REMARK  status: ('A' for Active; 'I' for Inactive)
REMARK    1  A    between atoms: C4_4  and  C5_5 
REMARK    2  A    between atoms: C9_11  and  C11_13 
REMARK    3  A    between atoms: C12_14  and  N1_15 
ROOT
HETATM    1  C5  UNL     1      31.373   7.839  47.989  1.00  0.00     0.035 C 
HETATM    2  C6  UNL     1      31.442   8.923  49.053  1.00  0.00     0.037 C 
HETATM    3  C7  UNL     1      30.209   9.583  49.455  1.00  0.00     0.173 C 
HETATM    4  O1  UNL     1      30.446  10.980  49.270  1.00  0.00    -0.367 OA
HETATM    5  P1  UNL     1      31.311  10.963  47.727  1.00  0.00     0.013 P 
HETATM    6  C8  UNL     1      30.372   9.761  46.745  1.00  0.00     0.074 C 
HETATM    7  C9  UNL     1      30.672   8.288  46.855  1.00  0.00    -0.012 C 
HETATM    8  C10 UNL     1      29.224   7.759  46.728  1.00  0.00     0.021 C 
HETATM    9  H9  UNL     1      31.323  12.253  47.110  1.00  0.00     0.087 HD
ENDROOT
BRANCH   1  10
HETATM   10  C4  UNL     1      32.591   7.081  48.104  1.00  0.00    -0.020 A 
HETATM   11  C3  UNL     1      32.940   5.648  47.964  1.00  0.00     0.050 A 
HETATM   12  C2  UNL     1      32.170   4.601  47.702  1.00  0.00    -0.035 A 
HETATM   13  N2  UNL     1      34.327   5.399  48.182  1.00  0.00    -0.310 N 
HETATM   14  C1  UNL     1      30.723   4.758  47.500  1.00  0.00     0.050 C 
HETATM   15  C17 UNL     1      32.836   3.291  47.644  1.00  0.00     0.006 A 
HETATM   16  C16 UNL     1      34.114   3.018  47.821  1.00  0.00    -0.006 A 
HETATM   17  C15 UNL     1      35.000   4.143  48.116  1.00  0.00     0.160 A 
HETATM   18  C14 UNL     1      34.875   6.657  48.463  1.00  0.00     0.248 A 
HETATM   19  C13 UNL     1      33.801   7.636  48.407  1.00  0.00     0.084 A 
HETATM   20  O2  UNL     1      36.086   6.875  48.718  1.00  0.00    -0.268 OA
ENDBRANCH   1  10
BRANCH   7  21
HETATM   21  C11 UNL     1      31.373   8.130  45.521  1.00  0.00     0.000 C 
HETATM   22  C12 UNL     1      30.939   8.513  44.358  1.00  0.00     0.077 C 
BRANCH  22  23
HETATM   23  N1  UNL     1      31.587   8.374  43.076  1.00  0.00    -0.408 N 
HETATM   24  H17 UNL     1      32.349   8.853  42.581  1.00  0.00     0.155 HD
HETATM   25  H18 UNL     1      31.441   7.705  42.263  1.00  0.00     0.155 HD
ENDBRANCH  22  23
ENDBRANCH   7  21
TORSDOF 3
ENDMDL
MODEL 9
REMARK VINA RESULT:      -6.5      9.825     11.225
REMARK  3 active torsions:
REMARK  status: ('A' for Active; 'I' for Inactive)
REMARK    1  A    between atoms: C4_4  and  C5_5 
REMARK    2  A    between atoms: C9_11  and  C11_13 
REMARK    3  A    between atoms: C12_14  and  N1_15 
ROOT
HETATM    1  C5  UNL     1      30.657   8.977  46.844  1.00  0.00     0.035 C 
HETATM    2  C6  UNL     1      30.116   8.520  45.498  1.00  0.00     0.037 C 
HETATM    3  C7  UNL     1      29.627   9.524  44.566  1.00  0.00     0.173 C 
HETATM    4  O1  UNL     1      28.292   9.131  44.246  1.00  0.00    -0.367 OA
HETATM    5  P1  UNL     1      27.706   8.634  45.841  1.00  0.00     0.013 P 
HETATM    6  C8  UNL     1      28.350   9.932  46.933  1.00  0.00     0.074 C 
HETATM    7  C9  UNL     1      29.748   9.836  47.488  1.00  0.00    -0.012 C 
HETATM    8  C10 UNL     1      30.110  11.338  47.432  1.00  0.00     0.021 C 
HETATM    9  H9  UNL     1      26.279   8.568  45.885  1.00  0.00     0.087 HD
ENDROOT
BRANCH   1  10
HETATM   10  C4  UNL     1      31.448   7.890  47.353  1.00  0.00    -0.020 A 
HETATM   11  C3  UNL     1      32.871   7.728  47.734  1.00  0.00     0.050 A 
HETATM   12  C2  UNL     1      33.874   8.594  47.681  1.00  0.00    -0.035 A 
HETATM   13  N2  UNL     1      33.169   6.413  48.196  1.00  0.00    -0.310 N 
HETATM   14  C1  UNL     1      33.669   9.961  47.183  1.00  0.00     0.050 C 
HETATM   15  C17 UNL     1      35.189   8.107  48.127  1.00  0.00     0.006 A 
HETATM   16  C16 UNL     1      35.505   6.908  48.577  1.00  0.00    -0.006 A 
HETATM   17  C15 UNL     1      34.429   5.920  48.649  1.00  0.00     0.160 A 
HETATM   18  C14 UNL     1      31.953   5.723  48.115  1.00  0.00     0.248 A 
HETATM   19  C13 UNL     1      30.949   6.644  47.605  1.00  0.00     0.084 A 
HETATM   20  O2  UNL     1      31.783   4.520  48.434  1.00  0.00    -0.268 OA
ENDBRANCH   1  10
BRANCH   7  21
HETATM   21  C11 UNL     1      29.369   9.473  48.910  1.00  0.00     0.000 C 
HETATM   22  C12 UNL     1      28.230   9.688  49.496  1.00  0.00     0.077 C 
BRANCH  22  23
HETATM   23  N1  UNL     1      27.847   9.353  50.847  1.00  0.00    -0.408 N 
HETATM   24  H17 UNL     1      27.166   8.720  51.283  1.00  0.00     0.155 HD
HETATM   25  H18 UNL     1      28.184   9.690  51.797  1.00  0.00     0.155 HD
ENDBRANCH  22  23
ENDBRANCH   7  21
TORSDOF 3
ENDMDL
