MODEL 1
REMARK VINA RESULT:      -7.0      0.000      0.000
REMARK  1 active torsions:
REMARK  status: ('A' for Active; 'I' for Inactive)
REMARK    1  A    between atoms: N2_19  and  O2_20 
ROOT
HETATM    1  N1  UNL     1      25.311   6.674  50.433  1.00  0.00    -0.191 NA
HETATM    2  C1  UNL     1      25.015   5.602  50.141  1.00  0.00     0.108 C 
HETATM    3  C2  UNL     1      24.629   4.267  49.794  1.00  0.00     0.101 C 
HETATM    4  C3  UNL     1      23.527   4.050  49.031  1.00  0.00    -0.049 C 
HETATM    5  C4  UNL     1      23.105   2.631  48.652  1.00  0.00     0.042 C 
HETATM    6  C5  UNL     1      21.926   2.351  49.577  1.00  0.00     0.040 C 
HETATM    7  C6  UNL     1      21.487   2.830  50.820  1.00  0.00    -0.012 C 
HETATM    8  C7  UNL     1      20.347   3.858  50.750  1.00  0.00     0.174 C 
HETATM    9  O1  UNL     1      20.571   4.620  49.630  1.00  0.00    -0.390 OA
HETATM   10  C8  UNL     1      21.563   5.535  49.596  1.00  0.00     0.172 C 
HETATM   11  C9  UNL     1      22.762   5.259  48.703  1.00  0.00     0.062 C 
HETATM   12  C10 UNL     1      22.335   2.198  51.906  1.00  0.00    -0.004 A 
HETATM   13  C11 UNL     1      22.471   3.523  52.156  1.00  0.00    -0.015 A 
HETATM   14  C12 UNL     1      23.729   3.746  52.744  1.00  0.00     0.001 A 
HETATM   15  C13 UNL     1      24.059   2.414  52.695  1.00  0.00    -0.058 A 
HETATM   16  C14 UNL     1      23.549   1.217  52.302  1.00  0.00     0.034 A 
HETATM   17  C15 UNL     1      22.359   0.868  51.730  1.00  0.00     0.014 A 
HETATM   18  C16 UNL     1      25.554   2.273  53.008  1.00  0.00     0.169 C 
HETATM   19  N2  UNL     1      26.256   2.945  51.903  1.00  0.00    -0.129 NA
HETATM   20  S1  UNL     1      25.414   2.779  50.404  1.00  0.00    -0.004 SA
ENDROOT
BRANCH  19  21
HETATM   21  O2  UNL     1      27.552   2.766  51.853  1.00  0.00    -0.302 OA
HETATM   22  H16 UNL     1      27.809   2.213  51.069  1.00  0.00     0.238 HD
ENDBRANCH  19  21
TORSDOF 1
ENDMDL
MODEL 2
REMARK VINA RESULT:      -7.0      1.952      4.139
REMARK  1 active torsions:
REMARK  status: ('A' for Active; 'I' for Inactive)
REMARK    1  A    between atoms: N2_19  and  O2_20 
ROOT
HETATM    1  N1  UNL     1      24.703   2.797  53.357  1.00  0.00    -0.191 NA
HETATM    2  C1  UNL     1      23.868   3.322  52.768  1.00  0.00     0.108 C 
HETATM    3  C2  UNL     1      22.832   3.964  52.014  1.00  0.00     0.101 C 
HETATM    4  C3  UNL     1      21.663   3.318  51.771  1.00  0.00    -0.049 C 
HETATM    5  C4  UNL     1      20.550   3.991  50.969  1.00  0.00     0.042 C 
HETATM    6  C5  UNL     1      20.643   3.326  49.600  1.00  0.00     0.040 C 
HETATM    7  C6  UNL     1      21.643   2.672  48.866  1.00  0.00    -0.012 C 
HETATM    8  C7  UNL     1      21.558   1.138  48.882  1.00  0.00     0.174 C 
HETATM    9  O1  UNL     1      21.118   0.781  50.132  1.00  0.00    -0.390 OA
HETATM   10  C8  UNL     1      21.926   0.869  51.209  1.00  0.00     0.172 C 
HETATM   11  C9  UNL     1      21.617   1.933  52.251  1.00  0.00     0.062 C 
HETATM   12  C10 UNL     1      22.578   3.718  48.289  1.00  0.00    -0.004 A 
HETATM   13  C11 UNL     1      23.424   2.903  48.963  1.00  0.00    -0.015 A 
HETATM   14  C12 UNL     1      24.526   3.658  49.402  1.00  0.00     0.001 A 
HETATM   15  C13 UNL     1      24.034   4.815  48.851  1.00  0.00    -0.058 A 
HETATM   16  C14 UNL     1      22.971   5.271  48.137  1.00  0.00     0.034 A 
HETATM   17  C15 UNL     1      21.855   4.652  47.652  1.00  0.00     0.014 A 
HETATM   18  C16 UNL     1      24.859   5.995  49.381  1.00  0.00     0.169 C 
HETATM   19  N2  UNL     1      24.595   6.045  50.828  1.00  0.00    -0.129 NA
HETATM   20  S1  UNL     1      22.983   5.555  51.210  1.00  0.00    -0.004 SA
ENDROOT
BRANCH  19  21
HETATM   21  O2  UNL     1      25.033   7.108  51.455  1.00  0.00    -0.302 OA
HETATM   22  H16 UNL     1      24.597   7.932  51.111  1.00  0.00     0.238 HD
ENDBRANCH  19  21
TORSDOF 1
ENDMDL
MODEL 3
REMARK VINA RESULT:      -6.8      2.516      4.391
REMARK  1 active torsions:
REMARK  status: ('A' for Active; 'I' for Inactive)
REMARK    1  A    between atoms: N2_19  and  O2_20 
ROOT
HETATM    1  N1  UNL     1      21.221   5.449  48.911  1.00  0.00    -0.191 NA
HETATM    2  C1  UNL     1      21.520   5.104  49.966  1.00  0.00     0.108 C 
HETATM    3  C2  UNL     1      21.904   4.657  51.271  1.00  0.00     0.101 C 
HETATM    4  C3  UNL     1      23.165   4.873  51.725  1.00  0.00    -0.049 C 
HETATM    5  C4  UNL     1      23.587   4.401  53.116  1.00  0.00     0.042 C 
HETATM    6  C5  UNL     1      24.421   3.156  52.833  1.00  0.00     0.040 C 
HETATM    7  C6  UNL     1      24.505   2.217  51.795  1.00  0.00    -0.012 C 
HETATM    8  C7  UNL     1      25.679   2.427  50.826  1.00  0.00     0.174 C 
HETATM    9  O1  UNL     1      25.843   3.784  50.695  1.00  0.00    -0.390 OA
HETATM   10  C8  UNL     1      24.967   4.529  49.989  1.00  0.00     0.172 C 
HETATM   11  C9  UNL     1      24.069   5.492  50.749  1.00  0.00     0.062 C 
HETATM   12  C10 UNL     1      23.335   1.260  51.917  1.00  0.00    -0.004 A 
HETATM   13  C11 UNL     1      23.218   1.712  50.645  1.00  0.00    -0.015 A 
HETATM   14  C12 UNL     1      21.859   1.690  50.281  1.00  0.00     0.001 A 
HETATM   15  C13 UNL     1      21.473   1.202  51.504  1.00  0.00    -0.058 A 
HETATM   16  C14 UNL     1      21.998   0.821  52.699  1.00  0.00     0.034 A 
HETATM   17  C15 UNL     1      23.278   0.790  53.173  1.00  0.00     0.014 A 
HETATM   18  C16 UNL     1      19.946   1.307  51.609  1.00  0.00     0.169 C 
HETATM   19  N2  UNL     1      19.646   2.748  51.590  1.00  0.00    -0.129 NA
HETATM   20  S1  UNL     1      20.879   3.677  52.363  1.00  0.00    -0.004 SA
ENDROOT
BRANCH  19  21
HETATM   21  O2  UNL     1      18.413   3.080  51.880  1.00  0.00    -0.302 OA
HETATM   22  H16 UNL     1      18.274   3.124  52.862  1.00  0.00     0.238 HD
ENDBRANCH  19  21
TORSDOF 1
ENDMDL
MODEL 4
REMARK VINA RESULT:      -6.7      9.428     11.035
REMARK  1 active torsions:
REMARK  status: ('A' for Active; 'I' for Inactive)
REMARK    1  A    between atoms: N2_19  and  O2_20 
ROOT
HETATM    1  N1  UNL     1      35.330   9.100  46.617  1.00  0.00    -0.191 NA
HETATM    2  C1  UNL     1      34.392   8.493  46.347  1.00  0.00     0.108 C 
HETATM    3  C2  UNL     1      33.227   7.722  46.028  1.00  0.00     0.101 C 
HETATM    4  C3  UNL     1      32.087   7.878  46.746  1.00  0.00    -0.049 C 
HETATM    5  C4  UNL     1      30.836   7.063  46.416  1.00  0.00     0.042 C 
HETATM    6  C5  UNL     1      30.806   5.999  47.507  1.00  0.00     0.040 C 
HETATM    7  C6  UNL     1      31.750   5.393  48.348  1.00  0.00    -0.012 C 
HETATM    8  C7  UNL     1      31.778   5.936  49.786  1.00  0.00     0.174 C 
HETATM    9  O1  UNL     1      31.523   7.282  49.704  1.00  0.00    -0.390 OA
HETATM   10  C8  UNL     1      32.451   8.141  49.231  1.00  0.00     0.172 C 
HETATM   11  C9  UNL     1      32.200   8.798  47.884  1.00  0.00     0.062 C 
HETATM   12  C10 UNL     1      32.528   4.372  47.541  1.00  0.00    -0.004 A 
HETATM   13  C11 UNL     1      33.508   5.153  48.055  1.00  0.00    -0.015 A 
HETATM   14  C12 UNL     1      34.600   5.153  47.167  1.00  0.00     0.001 A 
HETATM   15  C13 UNL     1      33.961   4.320  46.282  1.00  0.00    -0.058 A 
HETATM   16  C14 UNL     1      32.788   3.653  46.124  1.00  0.00     0.034 A 
HETATM   17  C15 UNL     1      31.667   3.568  46.899  1.00  0.00     0.014 A 
HETATM   18  C16 UNL     1      34.759   4.301  44.972  1.00  0.00     0.169 C 
HETATM   19  N2  UNL     1      34.675   5.669  44.436  1.00  0.00    -0.129 NA
HETATM   20  S1  UNL     1      33.163   6.417  44.805  1.00  0.00    -0.004 SA
ENDROOT
BRANCH  19  21
HETATM   21  O2  UNL     1      35.111   5.833  43.212  1.00  0.00    -0.302 OA
HETATM   22  H16 UNL     1      34.671   5.199  42.586  1.00  0.00     0.238 HD
ENDBRANCH  19  21
TORSDOF 1
ENDMDL
MODEL 5
REMARK VINA RESULT:      -6.6      2.085      4.363
REMARK  1 active torsions:
REMARK  status: ('A' for Active; 'I' for Inactive)
REMARK    1  A    between atoms: N2_19  and  O2_20 
ROOT
HETATM    1  N1  UNL     1      24.653   6.521  50.722  1.00  0.00    -0.191 NA
HETATM    2  C1  UNL     1      23.679   5.919  50.823  1.00  0.00     0.108 C 
HETATM    3  C2  UNL     1      22.477   5.149  50.945  1.00  0.00     0.101 C 
HETATM    4  C3  UNL     1      22.243   4.419  52.065  1.00  0.00    -0.049 C 
HETATM    5  C4  UNL     1      20.964   3.594  52.208  1.00  0.00     0.042 C 
HETATM    6  C5  UNL     1      21.433   2.164  51.958  1.00  0.00     0.040 C 
HETATM    7  C6  UNL     1      22.502   1.560  51.281  1.00  0.00    -0.012 C 
HETATM    8  C7  UNL     1      23.652   1.086  52.183  1.00  0.00     0.174 C 
HETATM    9  O1  UNL     1      23.761   2.004  53.198  1.00  0.00    -0.390 OA
HETATM   10  C8  UNL     1      24.277   3.232  52.977  1.00  0.00     0.172 C 
HETATM   11  C9  UNL     1      23.338   4.426  53.041  1.00  0.00     0.062 C 
HETATM   12  C10 UNL     1      22.213   1.598  49.793  1.00  0.00    -0.004 A 
HETATM   13  C11 UNL     1      23.427   2.192  49.875  1.00  0.00    -0.015 A 
HETATM   14  C12 UNL     1      23.550   3.117  48.822  1.00  0.00     0.001 A 
HETATM   15  C13 UNL     1      22.296   2.832  48.341  1.00  0.00    -0.058 A 
HETATM   16  C14 UNL     1      21.226   2.036  48.599  1.00  0.00     0.034 A 
HETATM   17  C15 UNL     1      20.984   1.107  49.570  1.00  0.00     0.014 A 
HETATM   18  C16 UNL     1      21.924   3.895  47.299  1.00  0.00     0.169 C 
HETATM   19  N2  UNL     1      21.839   5.164  48.040  1.00  0.00    -0.129 NA
HETATM   20  S1  UNL     1      21.259   4.936  49.651  1.00  0.00    -0.004 SA
ENDROOT
BRANCH  19  21
HETATM   21  O2  UNL     1      21.327   6.176  47.386  1.00  0.00    -0.302 OA
HETATM   22  H16 UNL     1      20.336   6.120  47.355  1.00  0.00     0.238 HD
ENDBRANCH  19  21
TORSDOF 1
ENDMDL
MODEL 6
REMARK VINA RESULT:      -6.6      3.308      4.601
REMARK  1 active torsions:
REMARK  status: ('A' for Active; 'I' for Inactive)
REMARK    1  A    between atoms: N2_19  and  O2_20 
ROOT
HETATM    1  N1  UNL     1      17.764   1.744  50.976  1.00  0.00    -0.191 NA
HETATM    2  C1  UNL     1      18.707   2.171  51.475  1.00  0.00     0.108 C 
HETATM    3  C2  UNL     1      19.896   2.696  52.079  1.00  0.00     0.101 C 
HETATM    4  C3  UNL     1      20.454   3.841  51.609  1.00  0.00    -0.049 C 
HETATM    5  C4  UNL     1      21.721   4.412  52.244  1.00  0.00     0.042 C 
HETATM    6  C5  UNL     1      22.817   4.041  51.250  1.00  0.00     0.040 C 
HETATM    7  C6  UNL     1      22.992   3.056  50.268  1.00  0.00    -0.012 C 
HETATM    8  C7  UNL     1      22.750   3.531  48.827  1.00  0.00     0.174 C 
HETATM    9  O1  UNL     1      21.721   4.438  48.878  1.00  0.00    -0.390 OA
HETATM   10  C8  UNL     1      20.449   4.041  49.091  1.00  0.00     0.172 C 
HETATM   11  C9  UNL     1      19.800   4.397  50.419  1.00  0.00     0.062 C 
HETATM   12  C10 UNL     1      23.336   1.748  50.954  1.00  0.00    -0.004 A 
HETATM   13  C11 UNL     1      22.263   1.413  50.198  1.00  0.00    -0.015 A 
HETATM   14  C12 UNL     1      21.571   0.366  50.834  1.00  0.00     0.001 A 
HETATM   15  C13 UNL     1      22.456   0.333  51.883  1.00  0.00    -0.058 A 
HETATM   16  C14 UNL     1      23.587   0.943  52.325  1.00  0.00     0.034 A 
HETATM   17  C15 UNL     1      24.349   1.952  51.811  1.00  0.00     0.014 A 
HETATM   18  C16 UNL     1      21.859  -0.540  52.994  1.00  0.00     0.169 C 
HETATM   19  N2  UNL     1      20.654   0.169  53.452  1.00  0.00    -0.129 NA
HETATM   20  S1  UNL     1      20.839   1.884  53.365  1.00  0.00    -0.004 SA
ENDROOT
BRANCH  19  21
HETATM   21  O2  UNL     1      20.097  -0.292  54.544  1.00  0.00    -0.302 OA
HETATM   22  H16 UNL     1      19.257   0.196  54.752  1.00  0.00     0.238 HD
ENDBRANCH  19  21
TORSDOF 1
ENDMDL
MODEL 7
REMARK VINA RESULT:      -6.5      5.918      8.640
REMARK  1 active torsions:
REMARK  status: ('A' for Active; 'I' for Inactive)
REMARK    1  A    between atoms: N2_19  and  O2_20 
ROOT
HETATM    1  N1  UNL     1      26.375  12.115  47.991  1.00  0.00    -0.191 NA
HETATM    2  C1  UNL     1      27.048  11.311  48.463  1.00  0.00     0.108 C 
HETATM    3  C2  UNL     1      27.887  10.298  49.031  1.00  0.00     0.101 C 
HETATM    4  C3  UNL     1      29.221  10.296  48.781  1.00  0.00    -0.049 C 
HETATM    5  C4  UNL     1      30.128   9.222  49.380  1.00  0.00     0.042 C 
HETATM    6  C5  UNL     1      30.396   8.285  48.207  1.00  0.00     0.040 C 
HETATM    7  C6  UNL     1      29.745   7.964  47.008  1.00  0.00    -0.012 C 
HETATM    8  C7  UNL     1      30.326   8.640  45.756  1.00  0.00     0.174 C 
HETATM    9  O1  UNL     1      30.730   9.895  46.138  1.00  0.00    -0.390 OA
HETATM   10  C8  UNL     1      29.832  10.869  46.398  1.00  0.00     0.172 C 
HETATM   11  C9  UNL     1      29.669  11.327  47.839  1.00  0.00     0.062 C 
HETATM   12  C10 UNL     1      28.583   7.042  47.323  1.00  0.00    -0.004 A 
HETATM   13  C11 UNL     1      27.987   8.048  46.640  1.00  0.00    -0.015 A 
HETATM   14  C12 UNL     1      26.659   8.175  47.089  1.00  0.00     0.001 A 
HETATM   15  C13 UNL     1      26.799   7.149  47.991  1.00  0.00    -0.058 A 
HETATM   16  C14 UNL     1      27.720   6.252  48.429  1.00  0.00     0.034 A 
HETATM   17  C15 UNL     1      29.021   6.024  48.080  1.00  0.00     0.014 A 
HETATM   18  C16 UNL     1      25.584   7.159  48.928  1.00  0.00     0.169 C 
HETATM   19  N2  UNL     1      25.670   8.423  49.676  1.00  0.00    -0.129 NA
HETATM   20  S1  UNL     1      27.306   8.891  49.972  1.00  0.00    -0.004 SA
ENDROOT
BRANCH  19  21
HETATM   21  O2  UNL     1      24.847   8.549  50.687  1.00  0.00    -0.302 OA
HETATM   22  H16 UNL     1      24.808   7.714  51.223  1.00  0.00     0.238 HD
ENDBRANCH  19  21
TORSDOF 1
ENDMDL
MODEL 8
REMARK VINA RESULT:      -6.5      8.447     10.063
REMARK  1 active torsions:
REMARK  status: ('A' for Active; 'I' for Inactive)
REMARK    1  A    between atoms: N2_19  and  O2_20 
ROOT
HETATM    1  N1  UNL     1      35.029   9.545  47.449  1.00  0.00    -0.191 NA
HETATM    2  C1  UNL     1      34.114   9.019  46.992  1.00  0.00     0.108 C 
HETATM    3  C2  UNL     1      32.965   8.361  46.445  1.00  0.00     0.101 C 
HETATM    4  C3  UNL     1      31.790   9.028  46.318  1.00  0.00    -0.049 C 
HETATM    5  C4  UNL     1      30.557   8.339  45.735  1.00  0.00     0.042 C 
HETATM    6  C5  UNL     1      29.700   8.043  46.962  1.00  0.00     0.040 C 
HETATM    7  C6  UNL     1      29.935   7.865  48.333  1.00  0.00    -0.012 C 
HETATM    8  C7  UNL     1      29.609   9.086  49.208  1.00  0.00     0.174 C 
HETATM    9  O1  UNL     1      29.945  10.197  48.474  1.00  0.00    -0.390 OA
HETATM   10  C8  UNL     1      31.235  10.535  48.268  1.00  0.00     0.172 C 
HETATM   11  C9  UNL     1      31.798  10.391  46.863  1.00  0.00     0.062 C 
HETATM   12  C10 UNL     1      30.508   6.478  48.547  1.00  0.00    -0.004 A 
HETATM   13  C11 UNL     1      31.430   7.274  49.138  1.00  0.00    -0.015 A 
HETATM   14  C12 UNL     1      32.689   6.651  49.050  1.00  0.00     0.001 A 
HETATM   15  C13 UNL     1      32.176   5.567  48.382  1.00  0.00    -0.058 A 
HETATM   16  C14 UNL     1      30.998   5.083  47.910  1.00  0.00     0.034 A 
HETATM   17  C15 UNL     1      29.725   5.577  47.932  1.00  0.00     0.014 A 
HETATM   18  C16 UNL     1      33.345   4.741  47.830  1.00  0.00     0.169 C 
HETATM   19  N2  UNL     1      34.007   5.603  46.838  1.00  0.00    -0.129 NA
HETATM   20  S1  UNL     1      32.883   6.625  46.016  1.00  0.00    -0.004 SA
ENDROOT
BRANCH  19  21
HETATM   21  O2  UNL     1      34.909   5.023  46.086  1.00  0.00    -0.302 OA
HETATM   22  H16 UNL     1      35.827   5.242  46.394  1.00  0.00     0.238 HD
ENDBRANCH  19  21
TORSDOF 1
ENDMDL
MODEL 9
REMARK VINA RESULT:      -6.4      7.148      9.882
REMARK  1 active torsions:
REMARK  status: ('A' for Active; 'I' for Inactive)
REMARK    1  A    between atoms: N2_19  and  O2_20 
ROOT
HETATM    1  N1  UNL     1      26.792   8.483  50.402  1.00  0.00    -0.191 NA
HETATM    2  C1  UNL     1      27.297   8.734  49.400  1.00  0.00     0.108 C 
HETATM    3  C2  UNL     1      27.947   9.041  48.161  1.00  0.00     0.101 C 
HETATM    4  C3  UNL     1      28.319   8.043  47.319  1.00  0.00    -0.049 C 
HETATM    5  C4  UNL     1      29.012   8.356  45.993  1.00  0.00     0.042 C 
HETATM    6  C5  UNL     1      30.473   8.016  46.265  1.00  0.00     0.040 C 
HETATM    7  C6  UNL     1      31.291   7.931  47.401  1.00  0.00    -0.012 C 
HETATM    8  C7  UNL     1      31.541   6.504  47.912  1.00  0.00     0.174 C 
HETATM    9  O1  UNL     1      30.380   5.802  47.706  1.00  0.00    -0.390 OA
HETATM   10  C8  UNL     1      29.289   6.017  48.472  1.00  0.00     0.172 C 
HETATM   11  C9  UNL     1      28.085   6.689  47.832  1.00  0.00     0.062 C 
HETATM   12  C10 UNL     1      31.663   9.337  47.832  1.00  0.00    -0.004 A 
HETATM   13  C11 UNL     1      31.125   8.813  48.959  1.00  0.00    -0.015 A 
HETATM   14  C12 UNL     1      30.542   9.852  49.707  1.00  0.00     0.001 A 
HETATM   15  C13 UNL     1      30.895  10.802  48.782  1.00  0.00    -0.058 A 
HETATM   16  C14 UNL     1      31.537  10.923  47.590  1.00  0.00     0.034 A 
HETATM   17  C15 UNL     1      32.142  10.010  46.774  1.00  0.00     0.014 A 
HETATM   18  C16 UNL     1      30.154  12.103  49.116  1.00  0.00     0.169 C 
HETATM   19  N2  UNL     1      28.725  11.807  48.927  1.00  0.00    -0.129 NA
HETATM   20  S1  UNL     1      28.462  10.676  47.648  1.00  0.00    -0.004 SA
ENDROOT
BRANCH  19  21
HETATM   21  O2  UNL     1      27.917  12.837  48.955  1.00  0.00    -0.302 OA
HETATM   22  H16 UNL     1      27.712  13.157  48.037  1.00  0.00     0.238 HD
ENDBRANCH  19  21
TORSDOF 1
ENDMDL
