MODEL 1
REMARK VINA RESULT:      -7.8      0.000      0.000
REMARK  7 active torsions:
REMARK  status: ('A' for Active; 'I' for Inactive)
REMARK    1  A    between atoms: N1_2  and  C3_4 
REMARK    2  A    between atoms: C3_4  and  C4_5 
REMARK    3  A    between atoms: C5_6  and  C6_7 
REMARK       I    between atoms: C6_7  and  N2_9 
REMARK    4  A    between atoms: N2_9  and  C7_10 
REMARK    5  A    between atoms: C21_29  and  O2_30 
REMARK    6  A    between atoms: O2_30  and  C22_31 
REMARK    7  A    between atoms: C22_31  and  C23_32 
ROOT
HETATM    1  C7  UNL     1      24.052   3.913  49.458  1.00  0.00     0.047 C 
HETATM    2  C8  UNL     1      23.267   2.959  49.832  1.00  0.00     0.027 C 
HETATM    3  C9  UNL     1      21.880   2.940  50.366  1.00  0.00     0.015 C 
HETATM    4  C10 UNL     1      21.200   1.839  50.831  1.00  0.00     0.122 C 
HETATM    5  N3  UNL     1      22.515   1.318  50.432  1.00  0.00    -0.369 N 
HETATM    6  C11 UNL     1      23.486   1.607  51.577  1.00  0.00     0.043 A 
HETATM    7  C12 UNL     1      24.155   0.496  52.003  1.00  0.00     0.057 A 
HETATM    8  C13 UNL     1      25.054   0.740  53.004  1.00  0.00     0.074 A 
HETATM    9 CL1  UNL     1      25.919  -0.672  53.563  1.00  0.00    -0.081 Cl
HETATM   10  C14 UNL     1      25.261   1.991  53.531  1.00  0.00     0.139 A 
HETATM   11  F1  UNL     1      26.154   2.192  54.515  1.00  0.00    -0.204 F 
HETATM   12  C15 UNL     1      24.584   3.099  53.095  1.00  0.00     0.060 A 
HETATM   13  C16 UNL     1      23.680   2.951  52.113  1.00  0.00     0.021 A 
HETATM   14  C17 UNL     1      22.940   4.208  51.691  1.00  0.00     0.081 C 
HETATM   15  N4  UNL     1      21.815   4.527  52.364  1.00  0.00    -0.260 NA
HETATM   16  C18 UNL     1      20.506   3.838  52.129  1.00  0.00     0.138 C 
HETATM   17  C19 UNL     1      20.165   2.886  51.135  1.00  0.00     0.075 C 
HETATM   18  C20 UNL     1      18.939   2.921  50.462  1.00  0.00     0.099 C 
HETATM   19  N5  UNL     1      17.939   2.968  49.919  1.00  0.00    -0.192 NA
HETATM   20  C21 UNL     1      23.534   4.940  50.439  1.00  0.00     0.223 C 
HETATM   21  H14 UNL     1      22.710   0.850  49.540  1.00  0.00     0.161 HD
ENDROOT
BRANCH   1  22
HETATM   22  N2  UNL     1      25.145   4.652  48.971  1.00  0.00    -0.324 N 
HETATM   23  C6  UNL     1      26.444   4.070  49.205  1.00  0.00     0.245 C 
HETATM   24  O1  UNL     1      26.587   2.976  49.802  1.00  0.00    -0.268 OA
HETATM   25  H11 UNL     1      24.985   5.559  48.478  1.00  0.00     0.169 HD
BRANCH  23  26
HETATM   26  C5  UNL     1      27.604   4.800  48.720  1.00  0.00     0.072 C 
HETATM   27  C4  UNL     1      27.545   6.093  48.495  1.00  0.00     0.008 C 
BRANCH  27  28
HETATM   28  C3  UNL     1      28.559   7.037  48.012  1.00  0.00     0.299 C 
BRANCH  28  29
HETATM   29  N1  UNL     1      28.331   8.396  48.463  1.00  0.00     0.083 N 
HETATM   30  C1  UNL     1      27.220   8.463  49.397  1.00  0.00     0.309 C 
HETATM   31  C2  UNL     1      29.499   8.941  49.126  1.00  0.00     0.309 C 
ENDBRANCH  28  29
ENDBRANCH  27  28
ENDBRANCH  23  26
ENDBRANCH   1  22
BRANCH  20  32
HETATM   32  O2  UNL     1      24.481   5.822  50.935  1.00  0.00    -0.371 OA
BRANCH  32  33
HETATM   33  C22 UNL     1      23.925   7.049  51.214  1.00  0.00     0.200 C 
BRANCH  33  34
HETATM   34  C23 UNL     1      22.807   7.418  50.264  1.00  0.00     0.248 C 
HETATM   35  F2  UNL     1      21.620   7.650  50.895  1.00  0.00    -0.253 F 
ENDBRANCH  33  34
ENDBRANCH  32  33
ENDBRANCH  20  32
TORSDOF 7
ENDMDL
MODEL 2
REMARK VINA RESULT:      -7.6      3.460      6.656
REMARK  7 active torsions:
REMARK  status: ('A' for Active; 'I' for Inactive)
REMARK    1  A    between atoms: N1_2  and  C3_4 
REMARK    2  A    between atoms: C3_4  and  C4_5 
REMARK    3  A    between atoms: C5_6  and  C6_7 
REMARK       I    between atoms: C6_7  and  N2_9 
REMARK    4  A    between atoms: N2_9  and  C7_10 
REMARK    5  A    between atoms: C21_29  and  O2_30 
REMARK    6  A    between atoms: O2_30  and  C22_31 
REMARK    7  A    between atoms: C22_31  and  C23_32 
ROOT
HETATM    1  C7  UNL     1      24.398   5.057  51.205  1.00  0.00     0.047 C 
HETATM    2  C8  UNL     1      24.218   6.324  51.027  1.00  0.00     0.027 C 
HETATM    3  C9  UNL     1      23.194   7.106  50.287  1.00  0.00     0.015 C 
HETATM    4  C10 UNL     1      23.193   8.468  50.092  1.00  0.00     0.122 C 
HETATM    5  N3  UNL     1      24.412   8.210  50.871  1.00  0.00    -0.369 N 
HETATM    6  C11 UNL     1      25.489   7.743  49.892  1.00  0.00     0.043 A 
HETATM    7  C12 UNL     1      26.642   8.468  49.982  1.00  0.00     0.057 A 
HETATM    8  C13 UNL     1      27.630   8.045  49.137  1.00  0.00     0.074 A 
HETATM    9 CL1  UNL     1      29.114   8.961  49.237  1.00  0.00    -0.081 Cl
HETATM   10  C14 UNL     1      27.472   6.986  48.277  1.00  0.00     0.139 A 
HETATM   11  F1  UNL     1      28.467   6.598  47.460  1.00  0.00    -0.204 F 
HETATM   12  C15 UNL     1      26.310   6.265  48.195  1.00  0.00     0.060 A 
HETATM   13  C16 UNL     1      25.285   6.613  48.990  1.00  0.00     0.021 A 
HETATM   14  C17 UNL     1      24.013   5.798  48.836  1.00  0.00     0.081 C 
HETATM   15  N4  UNL     1      23.124   6.196  47.903  1.00  0.00    -0.260 NA
HETATM   16  C18 UNL     1      22.197   7.356  48.108  1.00  0.00     0.138 C 
HETATM   17  C19 UNL     1      21.976   8.123  49.279  1.00  0.00     0.075 C 
HETATM   18  C20 UNL     1      20.695   8.532  49.669  1.00  0.00     0.099 C 
HETATM   19  N5  UNL     1      19.646   8.850  49.975  1.00  0.00    -0.192 NA
HETATM   20  C21 UNL     1      23.844   4.628  49.865  1.00  0.00     0.223 C 
HETATM   21  H14 UNL     1      24.489   8.331  51.887  1.00  0.00     0.161 HD
ENDROOT
BRANCH   1  22
HETATM   22  N2  UNL     1      24.893   3.807  51.614  1.00  0.00    -0.324 N 
HETATM   23  C6  UNL     1      24.128   3.138  52.639  1.00  0.00     0.245 C 
HETATM   24  O1  UNL     1      23.088   3.642  53.129  1.00  0.00    -0.268 OA
HETATM   25  H11 UNL     1      25.762   3.421  51.181  1.00  0.00     0.169 HD
BRANCH  23  26
HETATM   26  C5  UNL     1      24.602   1.842  53.094  1.00  0.00     0.072 C 
HETATM   27  C4  UNL     1      25.685   1.739  53.830  1.00  0.00     0.008 C 
BRANCH  27  28
HETATM   28  C3  UNL     1      26.356   0.566  54.403  1.00  0.00     0.299 C 
BRANCH  28  29
HETATM   29  N1  UNL     1      27.617   0.260  53.756  1.00  0.00     0.083 N 
HETATM   30  C1  UNL     1      28.676   0.058  54.731  1.00  0.00     0.309 C 
HETATM   31  C2  UNL     1      27.525  -0.939  52.949  1.00  0.00     0.309 C 
ENDBRANCH  28  29
ENDBRANCH  27  28
ENDBRANCH  23  26
ENDBRANCH   1  22
BRANCH  20  32
HETATM   32  O2  UNL     1      24.462   3.530  49.290  1.00  0.00    -0.371 OA
BRANCH  32  33
HETATM   33  C22 UNL     1      23.568   2.773  48.569  1.00  0.00     0.200 C 
BRANCH  33  34
HETATM   34  C23 UNL     1      22.426   2.251  49.413  1.00  0.00     0.248 C 
HETATM   35  F2  UNL     1      22.803   1.266  50.278  1.00  0.00    -0.253 F 
ENDBRANCH  33  34
ENDBRANCH  32  33
ENDBRANCH  20  32
TORSDOF 7
ENDMDL
MODEL 3
REMARK VINA RESULT:      -7.4      3.167      5.757
REMARK  7 active torsions:
REMARK  status: ('A' for Active; 'I' for Inactive)
REMARK    1  A    between atoms: N1_2  and  C3_4 
REMARK    2  A    between atoms: C3_4  and  C4_5 
REMARK    3  A    between atoms: C5_6  and  C6_7 
REMARK       I    between atoms: C6_7  and  N2_9 
REMARK    4  A    between atoms: N2_9  and  C7_10 
REMARK    5  A    between atoms: C21_29  and  O2_30 
REMARK    6  A    between atoms: O2_30  and  C22_31 
REMARK    7  A    between atoms: C22_31  and  C23_32 
ROOT
HETATM    1  C7  UNL     1      23.651   4.948  52.036  1.00  0.00     0.047 C 
HETATM    2  C8  UNL     1      23.665   3.743  52.501  1.00  0.00     0.027 C 
HETATM    3  C9  UNL     1      24.747   2.740  52.680  1.00  0.00     0.015 C 
HETATM    4  C10 UNL     1      24.590   1.437  53.093  1.00  0.00     0.122 C 
HETATM    5  N3  UNL     1      23.226   1.985  53.078  1.00  0.00    -0.369 N 
HETATM    6  C11 UNL     1      22.728   1.929  51.634  1.00  0.00     0.043 A 
HETATM    7  C12 UNL     1      21.529   1.291  51.506  1.00  0.00     0.057 A 
HETATM    8  C13 UNL     1      21.051   1.260  50.226  1.00  0.00     0.074 A 
HETATM    9 CL1  UNL     1      19.515   0.445  50.043  1.00  0.00    -0.081 Cl
HETATM   10  C14 UNL     1      21.720   1.821  49.167  1.00  0.00     0.139 A 
HETATM   11  F1  UNL     1      21.218   1.771  47.921  1.00  0.00    -0.204 F 
HETATM   12  C15 UNL     1      22.923   2.460  49.306  1.00  0.00     0.060 A 
HETATM   13  C16 UNL     1      23.468   2.537  50.531  1.00  0.00     0.021 A 
HETATM   14  C17 UNL     1      24.816   3.231  50.621  1.00  0.00     0.081 C 
HETATM   15  N4  UNL     1      25.920   2.480  50.429  1.00  0.00    -0.260 NA
HETATM   16  C18 UNL     1      26.471   1.564  51.478  1.00  0.00     0.138 C 
HETATM   17  C19 UNL     1      26.070   1.413  52.829  1.00  0.00     0.075 C 
HETATM   18  C20 UNL     1      26.996   1.261  53.868  1.00  0.00     0.099 C 
HETATM   19  N5  UNL     1      27.763   1.144  54.701  1.00  0.00    -0.192 NA
HETATM   20  C21 UNL     1      24.760   4.743  51.028  1.00  0.00     0.223 C 
HETATM   21  H14 UNL     1      22.729   2.332  53.906  1.00  0.00     0.161 HD
ENDROOT
BRANCH   1  22
HETATM   22  N2  UNL     1      23.259   6.234  51.626  1.00  0.00    -0.324 N 
HETATM   23  C6  UNL     1      21.912   6.342  51.119  1.00  0.00     0.245 C 
HETATM   24  O1  UNL     1      21.144   5.353  51.053  1.00  0.00    -0.268 OA
HETATM   25  H11 UNL     1      23.927   7.034  51.697  1.00  0.00     0.169 HD
BRANCH  23  26
HETATM   26  C5  UNL     1      21.462   7.653  50.681  1.00  0.00     0.072 C 
HETATM   27  C4  UNL     1      21.485   7.987  49.411  1.00  0.00     0.008 C 
BRANCH  27  28
HETATM   28  C3  UNL     1      21.092   9.226  48.730  1.00  0.00     0.299 C 
BRANCH  28  29
HETATM   29  N1  UNL     1      20.140  10.014  49.487  1.00  0.00     0.083 N 
HETATM   30  C1  UNL     1      20.362  11.438  49.297  1.00  0.00     0.309 C 
HETATM   31  C2  UNL     1      18.776   9.723  49.096  1.00  0.00     0.309 C 
ENDBRANCH  28  29
ENDBRANCH  27  28
ENDBRANCH  23  26
ENDBRANCH   1  22
BRANCH  20  32
HETATM   32  O2  UNL     1      24.623   5.446  49.842  1.00  0.00    -0.371 OA
BRANCH  32  33
HETATM   33  C22 UNL     1      25.849   5.722  49.280  1.00  0.00     0.200 C 
BRANCH  33  34
HETATM   34  C23 UNL     1      26.233   7.180  49.395  1.00  0.00     0.248 C 
HETATM   35  F2  UNL     1      26.155   7.658  50.670  1.00  0.00    -0.253 F 
ENDBRANCH  33  34
ENDBRANCH  32  33
ENDBRANCH  20  32
TORSDOF 7
ENDMDL
MODEL 4
REMARK VINA RESULT:      -7.2      3.396      7.152
REMARK  7 active torsions:
REMARK  status: ('A' for Active; 'I' for Inactive)
REMARK    1  A    between atoms: N1_2  and  C3_4 
REMARK    2  A    between atoms: C3_4  and  C4_5 
REMARK    3  A    between atoms: C5_6  and  C6_7 
REMARK       I    between atoms: C6_7  and  N2_9 
REMARK    4  A    between atoms: N2_9  and  C7_10 
REMARK    5  A    between atoms: C21_29  and  O2_30 
REMARK    6  A    between atoms: O2_30  and  C22_31 
REMARK    7  A    between atoms: C22_31  and  C23_32 
ROOT
HETATM    1  C7  UNL     1      24.381   5.220  51.090  1.00  0.00     0.047 C 
HETATM    2  C8  UNL     1      24.283   6.492  50.888  1.00  0.00     0.027 C 
HETATM    3  C9  UNL     1      23.325   7.322  50.113  1.00  0.00     0.015 C 
HETATM    4  C10 UNL     1      23.411   8.678  49.896  1.00  0.00     0.122 C 
HETATM    5  N3  UNL     1      24.595   8.359  50.706  1.00  0.00    -0.369 N 
HETATM    6  C11 UNL     1      25.662   7.811  49.758  1.00  0.00     0.043 A 
HETATM    7  C12 UNL     1      26.855   8.465  49.861  1.00  0.00     0.057 A 
HETATM    8  C13 UNL     1      27.832   7.968  49.045  1.00  0.00     0.074 A 
HETATM    9 CL1  UNL     1      29.368   8.794  49.162  1.00  0.00    -0.081 Cl
HETATM   10  C14 UNL     1      27.628   6.906  48.198  1.00  0.00     0.139 A 
HETATM   11  F1  UNL     1      28.613   6.444  47.410  1.00  0.00    -0.204 F 
HETATM   12  C15 UNL     1      26.425   6.257  48.103  1.00  0.00     0.060 A 
HETATM   13  C16 UNL     1      25.408   6.680  48.870  1.00  0.00     0.021 A 
HETATM   14  C17 UNL     1      24.091   5.941  48.701  1.00  0.00     0.081 C 
HETATM   15  N4  UNL     1      23.248   6.377  47.743  1.00  0.00    -0.260 NA
HETATM   16  C18 UNL     1      22.390   7.594  47.910  1.00  0.00     0.138 C 
HETATM   17  C19 UNL     1      22.192   8.394  49.063  1.00  0.00     0.075 C 
HETATM   18  C20 UNL     1      20.931   8.886  49.419  1.00  0.00     0.099 C 
HETATM   19  N5  UNL     1      19.897   9.274  49.697  1.00  0.00    -0.192 NA
HETATM   20  C21 UNL     1      23.830   4.802  49.745  1.00  0.00     0.223 C 
HETATM   21  H14 UNL     1      24.659   8.493  51.721  1.00  0.00     0.161 HD
ENDROOT
BRANCH   1  22
HETATM   22  N2  UNL     1      24.790   3.949  51.529  1.00  0.00    -0.324 N 
HETATM   23  C6  UNL     1      24.010   3.380  52.602  1.00  0.00     0.245 C 
HETATM   24  O1  UNL     1      23.031   3.981  53.106  1.00  0.00    -0.268 OA
HETATM   25  H11 UNL     1      25.610   3.479  51.084  1.00  0.00     0.169 HD
BRANCH  23  26
HETATM   26  C5  UNL     1      24.397   2.066  53.090  1.00  0.00     0.072 C 
HETATM   27  C4  UNL     1      23.539   1.072  53.110  1.00  0.00     0.008 C 
BRANCH  27  28
HETATM   28  C3  UNL     1      23.684  -0.321  53.548  1.00  0.00     0.299 C 
BRANCH  28  29
HETATM   29  N1  UNL     1      22.483  -1.108  53.348  1.00  0.00     0.083 N 
HETATM   30  C1  UNL     1      21.957  -1.601  54.610  1.00  0.00     0.309 C 
HETATM   31  C2  UNL     1      21.439  -0.334  52.707  1.00  0.00     0.309 C 
ENDBRANCH  28  29
ENDBRANCH  27  28
ENDBRANCH  23  26
ENDBRANCH   1  22
BRANCH  20  32
HETATM   32  O2  UNL     1      24.391   3.658  49.201  1.00  0.00    -0.371 OA
BRANCH  32  33
HETATM   33  C22 UNL     1      23.504   3.012  48.371  1.00  0.00     0.200 C 
BRANCH  33  34
HETATM   34  C23 UNL     1      22.366   2.358  49.123  1.00  0.00     0.248 C 
HETATM   35  F2  UNL     1      22.787   1.524  50.117  1.00  0.00    -0.253 F 
ENDBRANCH  33  34
ENDBRANCH  32  33
ENDBRANCH  20  32
TORSDOF 7
ENDMDL
MODEL 5
REMARK VINA RESULT:      -7.1      3.256      5.107
REMARK  7 active torsions:
REMARK  status: ('A' for Active; 'I' for Inactive)
REMARK    1  A    between atoms: N1_2  and  C3_4 
REMARK    2  A    between atoms: C3_4  and  C4_5 
REMARK    3  A    between atoms: C5_6  and  C6_7 
REMARK       I    between atoms: C6_7  and  N2_9 
REMARK    4  A    between atoms: N2_9  and  C7_10 
REMARK    5  A    between atoms: C21_29  and  O2_30 
REMARK    6  A    between atoms: O2_30  and  C22_31 
REMARK    7  A    between atoms: C22_31  and  C23_32 
ROOT
HETATM    1  C7  UNL     1      24.498   3.404  49.552  1.00  0.00     0.047 C 
HETATM    2  C8  UNL     1      23.498   3.045  48.817  1.00  0.00     0.027 C 
HETATM    3  C9  UNL     1      22.582   3.796  47.919  1.00  0.00     0.015 C 
HETATM    4  C10 UNL     1      21.477   3.290  47.275  1.00  0.00     0.122 C 
HETATM    5  N3  UNL     1      22.017   2.150  48.029  1.00  0.00    -0.369 N 
HETATM    6  C11 UNL     1      21.522   2.279  49.469  1.00  0.00     0.043 A 
HETATM    7  C12 UNL     1      20.897   1.154  49.922  1.00  0.00     0.057 A 
HETATM    8  C13 UNL     1      20.476   1.238  51.220  1.00  0.00     0.074 A 
HETATM    9 CL1  UNL     1      19.673  -0.195  51.818  1.00  0.00    -0.081 Cl
HETATM   10  C14 UNL     1      20.665   2.356  51.994  1.00  0.00     0.139 A 
HETATM   11  F1  UNL     1      20.238   2.402  53.268  1.00  0.00    -0.204 F 
HETATM   12  C15 UNL     1      21.294   3.481  51.529  1.00  0.00     0.060 A 
HETATM   13  C16 UNL     1      21.741   3.486  50.262  1.00  0.00     0.021 A 
HETATM   14  C17 UNL     1      22.403   4.769  49.792  1.00  0.00     0.081 C 
HETATM   15  N4  UNL     1      21.609   5.729  49.273  1.00  0.00    -0.260 NA
HETATM   16  C18 UNL     1      21.058   5.660  47.881  1.00  0.00     0.138 C 
HETATM   17  C19 UNL     1      21.344   4.727  46.854  1.00  0.00     0.075 C 
HETATM   18  C20 UNL     1      21.508   5.117  45.520  1.00  0.00     0.099 C 
HETATM   19  N5  UNL     1      21.644   5.452  44.440  1.00  0.00    -0.192 NA
HETATM   20  C21 UNL     1      23.967   4.781  49.882  1.00  0.00     0.223 C 
HETATM   21  H14 UNL     1      22.615   1.418  47.628  1.00  0.00     0.161 HD
ENDROOT
BRANCH   1  22
HETATM   22  N2  UNL     1      25.598   3.412  50.428  1.00  0.00    -0.324 N 
HETATM   23  C6  UNL     1      25.629   2.342  51.397  1.00  0.00     0.245 C 
HETATM   24  O1  UNL     1      24.735   1.465  51.451  1.00  0.00    -0.268 OA
HETATM   25  H11 UNL     1      26.323   4.159  50.351  1.00  0.00     0.169 HD
BRANCH  23  26
HETATM   26  C5  UNL     1      26.748   2.310  52.325  1.00  0.00     0.072 C 
HETATM   27  C4  UNL     1      27.279   1.170  52.705  1.00  0.00     0.008 C 
BRANCH  27  28
HETATM   28  C3  UNL     1      28.392   0.879  53.616  1.00  0.00     0.299 C 
BRANCH  28  29
HETATM   29  N1  UNL     1      28.563  -0.538  53.869  1.00  0.00     0.083 N 
HETATM   30  C1  UNL     1      27.677  -1.335  53.038  1.00  0.00     0.309 C 
HETATM   31  C2  UNL     1      29.921  -0.967  53.605  1.00  0.00     0.309 C 
ENDBRANCH  28  29
ENDBRANCH  27  28
ENDBRANCH  23  26
ENDBRANCH   1  22
BRANCH  20  32
HETATM   32  O2  UNL     1      24.266   5.246  51.152  1.00  0.00    -0.371 OA
BRANCH  32  33
HETATM   33  C22 UNL     1      24.334   6.620  51.179  1.00  0.00     0.200 C 
BRANCH  33  34
HETATM   34  C23 UNL     1      25.304   7.181  50.163  1.00  0.00     0.248 C 
HETATM   35  F2  UNL     1      25.462   8.533  50.259  1.00  0.00    -0.253 F 
ENDBRANCH  33  34
ENDBRANCH  32  33
ENDBRANCH  20  32
TORSDOF 7
ENDMDL
MODEL 6
REMARK VINA RESULT:      -7.0      3.180      7.090
REMARK  7 active torsions:
REMARK  status: ('A' for Active; 'I' for Inactive)
REMARK    1  A    between atoms: N1_2  and  C3_4 
REMARK    2  A    between atoms: C3_4  and  C4_5 
REMARK    3  A    between atoms: C5_6  and  C6_7 
REMARK       I    between atoms: C6_7  and  N2_9 
REMARK    4  A    between atoms: N2_9  and  C7_10 
REMARK    5  A    between atoms: C21_29  and  O2_30 
REMARK    6  A    between atoms: O2_30  and  C22_31 
REMARK    7  A    between atoms: C22_31  and  C23_32 
ROOT
HETATM    1  C7  UNL     1      22.716   3.213  49.465  1.00  0.00     0.047 C 
HETATM    2  C8  UNL     1      23.998   3.135  49.597  1.00  0.00     0.027 C 
HETATM    3  C9  UNL     1      24.874   2.523  50.631  1.00  0.00     0.015 C 
HETATM    4  C10 UNL     1      26.244   2.615  50.696  1.00  0.00     0.122 C 
HETATM    5  N3  UNL     1      25.880   3.392  49.503  1.00  0.00    -0.369 N 
HETATM    6  C11 UNL     1      25.440   4.777  49.978  1.00  0.00     0.043 A 
HETATM    7  C12 UNL     1      26.107   5.792  49.356  1.00  0.00     0.057 A 
HETATM    8  C13 UNL     1      25.703   7.039  49.743  1.00  0.00     0.074 A 
HETATM    9 CL1  UNL     1      26.547   8.353  48.957  1.00  0.00    -0.081 Cl
HETATM   10  C14 UNL     1      24.716   7.248  50.674  1.00  0.00     0.139 A 
HETATM   11  F1  UNL     1      24.345   8.490  51.029  1.00  0.00    -0.204 F 
HETATM   12  C15 UNL     1      24.053   6.221  51.292  1.00  0.00     0.060 A 
HETATM   13  C16 UNL     1      24.386   4.960  50.972  1.00  0.00     0.021 A 
HETATM   14  C17 UNL     1      23.638   3.863  51.709  1.00  0.00     0.081 C 
HETATM   15  N4  UNL     1      24.139   3.451  52.892  1.00  0.00    -0.260 NA
HETATM   16  C18 UNL     1      25.318   2.534  52.998  1.00  0.00     0.138 C 
HETATM   17  C19 UNL     1      26.010   1.848  51.968  1.00  0.00     0.075 C 
HETATM   18  C20 UNL     1      26.443   0.526  52.116  1.00  0.00     0.099 C 
HETATM   19  N5  UNL     1      26.783  -0.553  52.251  1.00  0.00    -0.192 NA
HETATM   20  C21 UNL     1      22.406   3.269  50.945  1.00  0.00     0.223 C 
HETATM   21  H14 UNL     1      25.926   3.037  48.541  1.00  0.00     0.161 HD
ENDROOT
BRANCH   1  22
HETATM   22  N2  UNL     1      21.420   3.480  48.991  1.00  0.00    -0.324 N 
HETATM   23  C6  UNL     1      20.679   2.334  48.522  1.00  0.00     0.245 C 
HETATM   24  O1  UNL     1      21.162   1.176  48.538  1.00  0.00    -0.268 OA
HETATM   25  H11 UNL     1      21.052   4.458  48.994  1.00  0.00     0.169 HD
BRANCH  23  26
HETATM   26  C5  UNL     1      19.334   2.562  48.021  1.00  0.00     0.072 C 
HETATM   27  C4  UNL     1      18.323   2.719  48.844  1.00  0.00     0.008 C 
BRANCH  27  28
HETATM   28  C3  UNL     1      16.897   2.956  48.590  1.00  0.00     0.299 C 
BRANCH  28  29
HETATM   29  N1  UNL     1      16.191   3.470  49.747  1.00  0.00     0.083 N 
HETATM   30  C1  UNL     1      17.105   4.094  50.689  1.00  0.00     0.309 C 
HETATM   31  C2  UNL     1      15.200   4.458  49.371  1.00  0.00     0.309 C 
ENDBRANCH  28  29
ENDBRANCH  27  28
ENDBRANCH  23  26
ENDBRANCH   1  22
BRANCH  20  32
HETATM   32  O2  UNL     1      21.327   4.062  51.297  1.00  0.00    -0.371 OA
BRANCH  32  33
HETATM   33  C22 UNL     1      20.604   3.496  52.322  1.00  0.00     0.200 C 
BRANCH  33  34
HETATM   34  C23 UNL     1      20.510   1.991  52.214  1.00  0.00     0.248 C 
HETATM   35  F2  UNL     1      19.280   1.556  51.814  1.00  0.00    -0.253 F 
ENDBRANCH  33  34
ENDBRANCH  32  33
ENDBRANCH  20  32
TORSDOF 7
ENDMDL
MODEL 7
REMARK VINA RESULT:      -6.9      4.461      6.243
REMARK  7 active torsions:
REMARK  status: ('A' for Active; 'I' for Inactive)
REMARK    1  A    between atoms: N1_2  and  C3_4 
REMARK    2  A    between atoms: C3_4  and  C4_5 
REMARK    3  A    between atoms: C5_6  and  C6_7 
REMARK       I    between atoms: C6_7  and  N2_9 
REMARK    4  A    between atoms: N2_9  and  C7_10 
REMARK    5  A    between atoms: C21_29  and  O2_30 
REMARK    6  A    between atoms: O2_30  and  C22_31 
REMARK    7  A    between atoms: C22_31  and  C23_32 
ROOT
HETATM    1  C7  UNL     1      21.413   2.638  52.439  1.00  0.00     0.047 C 
HETATM    2  C8  UNL     1      20.439   3.106  51.733  1.00  0.00     0.027 C 
HETATM    3  C9  UNL     1      19.056   2.627  51.474  1.00  0.00     0.015 C 
HETATM    4  C10 UNL     1      18.152   3.182  50.598  1.00  0.00     0.122 C 
HETATM    5  N3  UNL     1      19.351   4.022  50.470  1.00  0.00    -0.369 N 
HETATM    6  C11 UNL     1      20.314   3.300  49.527  1.00  0.00     0.043 A 
HETATM    7  C12 UNL     1      20.730   4.081  48.488  1.00  0.00     0.057 A 
HETATM    8  C13 UNL     1      21.619   3.465  47.652  1.00  0.00     0.074 A 
HETATM    9 CL1  UNL     1      22.162   4.450  46.315  1.00  0.00    -0.081 Cl
HETATM   10  C14 UNL     1      22.051   2.175  47.843  1.00  0.00     0.139 A 
HETATM   11  F1  UNL     1      22.926   1.602  47.000  1.00  0.00    -0.204 F 
HETATM   12  C15 UNL     1      21.626   1.400  48.890  1.00  0.00     0.060 A 
HETATM   13  C16 UNL     1      20.751   1.927  49.762  1.00  0.00     0.021 A 
HETATM   14  C17 UNL     1      20.294   1.012  50.885  1.00  0.00     0.081 C 
HETATM   15  N4  UNL     1      19.230   0.217  50.651  1.00  0.00    -0.260 NA
HETATM   16  C18 UNL     1      17.820   0.723  50.668  1.00  0.00     0.138 C 
HETATM   17  C19 UNL     1      17.336   2.001  51.045  1.00  0.00     0.075 C 
HETATM   18  C20 UNL     1      16.169   2.161  51.800  1.00  0.00     0.099 C 
HETATM   19  N5  UNL     1      15.221   2.273  52.422  1.00  0.00    -0.192 NA
HETATM   20  C21 UNL     1      21.072   1.179  52.235  1.00  0.00     0.223 C 
HETATM   21  H14 UNL     1      19.484   4.923  50.942  1.00  0.00     0.161 HD
ENDROOT
BRANCH   1  22
HETATM   22  N2  UNL     1      22.650   2.454  53.083  1.00  0.00    -0.324 N 
HETATM   23  C6  UNL     1      23.805   2.930  52.360  1.00  0.00     0.245 C 
HETATM   24  O1  UNL     1      23.709   3.473  51.234  1.00  0.00    -0.268 OA
HETATM   25  H11 UNL     1      22.689   1.998  54.022  1.00  0.00     0.169 HD
BRANCH  23  26
HETATM   26  C5  UNL     1      25.106   2.760  52.986  1.00  0.00     0.072 C 
HETATM   27  C4  UNL     1      26.080   2.135  52.364  1.00  0.00     0.008 C 
BRANCH  27  28
HETATM   28  C3  UNL     1      27.457   1.840  52.775  1.00  0.00     0.299 C 
BRANCH  28  29
HETATM   29  N1  UNL     1      27.669   0.441  53.088  1.00  0.00     0.083 N 
HETATM   30  C1  UNL     1      27.399   0.165  54.489  1.00  0.00     0.309 C 
HETATM   31  C2  UNL     1      26.813  -0.419  52.295  1.00  0.00     0.309 C 
ENDBRANCH  28  29
ENDBRANCH  27  28
ENDBRANCH  23  26
ENDBRANCH   1  22
BRANCH  20  32
HETATM   32  O2  UNL     1      22.156   0.320  52.153  1.00  0.00    -0.371 OA
BRANCH  32  33
HETATM   33  C22 UNL     1      21.909  -0.862  52.813  1.00  0.00     0.200 C 
BRANCH  33  34
HETATM   34  C23 UNL     1      21.165  -0.664  54.115  1.00  0.00     0.248 C 
HETATM   35  F2  UNL     1      20.821  -1.836  54.722  1.00  0.00    -0.253 F 
ENDBRANCH  33  34
ENDBRANCH  32  33
ENDBRANCH  20  32
TORSDOF 7
ENDMDL
MODEL 8
REMARK VINA RESULT:      -6.9      3.546      8.472
REMARK  7 active torsions:
REMARK  status: ('A' for Active; 'I' for Inactive)
REMARK    1  A    between atoms: N1_2  and  C3_4 
REMARK    2  A    between atoms: C3_4  and  C4_5 
REMARK    3  A    between atoms: C5_6  and  C6_7 
REMARK       I    between atoms: C6_7  and  N2_9 
REMARK    4  A    between atoms: N2_9  and  C7_10 
REMARK    5  A    between atoms: C21_29  and  O2_30 
REMARK    6  A    between atoms: O2_30  and  C22_31 
REMARK    7  A    between atoms: C22_31  and  C23_32 
ROOT
HETATM    1  C7  UNL     1      26.527   7.996  50.025  1.00  0.00     0.047 C 
HETATM    2  C8  UNL     1      27.413   8.931  49.929  1.00  0.00     0.027 C 
HETATM    3  C9  UNL     1      27.473  10.192  49.144  1.00  0.00     0.015 C 
HETATM    4  C10 UNL     1      28.547  11.048  49.058  1.00  0.00     0.122 C 
HETATM    5  N3  UNL     1      29.007   9.969  49.945  1.00  0.00    -0.369 N 
HETATM    6  C11 UNL     1      29.448   8.806  49.057  1.00  0.00     0.043 A 
HETATM    7  C12 UNL     1      30.714   8.376  49.330  1.00  0.00     0.057 A 
HETATM    8  C13 UNL     1      31.116   7.314  48.569  1.00  0.00     0.074 A 
HETATM    9 CL1  UNL     1      32.735   6.750  48.905  1.00  0.00    -0.081 Cl
HETATM   10  C14 UNL     1      30.315   6.735  47.615  1.00  0.00     0.139 A 
HETATM   11  F1  UNL     1      30.744   5.691  46.885  1.00  0.00    -0.204 F 
HETATM   12  C15 UNL     1      29.045   7.175  47.349  1.00  0.00     0.060 A 
HETATM   13  C16 UNL     1      28.569   8.216  48.051  1.00  0.00     0.021 A 
HETATM   14  C17 UNL     1      27.167   8.678  47.693  1.00  0.00     0.081 C 
HETATM   15  N4  UNL     1      27.041   9.585  46.702  1.00  0.00    -0.260 NA
HETATM   16  C18 UNL     1      27.329  11.042  46.895  1.00  0.00     0.138 C 
HETATM   17  C19 UNL     1      27.628  11.742  48.091  1.00  0.00     0.075 C 
HETATM   18  C20 UNL     1      27.092  13.004  48.369  1.00  0.00     0.099 C 
HETATM   19  N5  UNL     1      26.642  14.028  48.582  1.00  0.00    -0.192 NA
HETATM   20  C21 UNL     1      26.026   8.105  48.602  1.00  0.00     0.223 C 
HETATM   21  H14 UNL     1      29.016  10.022  50.969  1.00  0.00     0.161 HD
ENDROOT
BRANCH   1  22
HETATM   22  N2  UNL     1      25.819   6.836  50.385  1.00  0.00    -0.324 N 
HETATM   23  C6  UNL     1      24.515   7.057  50.962  1.00  0.00     0.245 C 
HETATM   24  O1  UNL     1      24.045   8.208  51.128  1.00  0.00    -0.268 OA
HETATM   25  H11 UNL     1      26.244   5.895  50.231  1.00  0.00     0.169 HD
BRANCH  23  26
HETATM   26  C5  UNL     1      23.746   5.886  51.352  1.00  0.00     0.072 C 
HETATM   27  C4  UNL     1      24.161   4.675  51.057  1.00  0.00     0.008 C 
BRANCH  27  28
HETATM   28  C3  UNL     1      23.575   3.358  51.333  1.00  0.00     0.299 C 
BRANCH  28  29
HETATM   29  N1  UNL     1      24.391   2.547  52.215  1.00  0.00     0.083 N 
HETATM   30  C1  UNL     1      23.807   1.231  52.413  1.00  0.00     0.309 C 
HETATM   31  C2  UNL     1      25.727   2.362  51.685  1.00  0.00     0.309 C 
ENDBRANCH  28  29
ENDBRANCH  27  28
ENDBRANCH  23  26
ENDBRANCH   1  22
BRANCH  20  32
HETATM   32  O2  UNL     1      25.642   6.911  48.013  1.00  0.00    -0.371 OA
BRANCH  32  33
HETATM   33  C22 UNL     1      24.573   7.093  47.166  1.00  0.00     0.200 C 
BRANCH  33  34
HETATM   34  C23 UNL     1      23.308   6.429  47.665  1.00  0.00     0.248 C 
HETATM   35  F2  UNL     1      23.447   5.085  47.858  1.00  0.00    -0.253 F 
ENDBRANCH  33  34
ENDBRANCH  32  33
ENDBRANCH  20  32
TORSDOF 7
ENDMDL
MODEL 9
REMARK VINA RESULT:      -6.9      3.013      4.746
REMARK  7 active torsions:
REMARK  status: ('A' for Active; 'I' for Inactive)
REMARK    1  A    between atoms: N1_2  and  C3_4 
REMARK    2  A    between atoms: C3_4  and  C4_5 
REMARK    3  A    between atoms: C5_6  and  C6_7 
REMARK       I    between atoms: C6_7  and  N2_9 
REMARK    4  A    between atoms: N2_9  and  C7_10 
REMARK    5  A    between atoms: C21_29  and  O2_30 
REMARK    6  A    between atoms: O2_30  and  C22_31 
REMARK    7  A    between atoms: C22_31  and  C23_32 
ROOT
HETATM    1  C7  UNL     1      22.941   5.038  52.064  1.00  0.00     0.047 C 
HETATM    2  C8  UNL     1      21.922   4.245  52.034  1.00  0.00     0.027 C 
HETATM    3  C9  UNL     1      21.746   2.810  52.378  1.00  0.00     0.015 C 
HETATM    4  C10 UNL     1      20.608   2.061  52.189  1.00  0.00     0.122 C 
HETATM    5  N3  UNL     1      20.257   3.395  51.683  1.00  0.00    -0.369 N 
HETATM    6  C11 UNL     1      20.812   3.504  50.262  1.00  0.00     0.043 A 
HETATM    7  C12 UNL     1      19.870   3.874  49.347  1.00  0.00     0.057 A 
HETATM    8  C13 UNL     1      20.355   4.010  48.077  1.00  0.00     0.074 A 
HETATM    9 CL1  UNL     1      19.162   4.483  46.890  1.00  0.00    -0.081 Cl
HETATM   10  C14 UNL     1      21.671   3.791  47.753  1.00  0.00     0.139 A 
HETATM   11  F1  UNL     1      22.112   3.935  46.492  1.00  0.00    -0.204 F 
HETATM   12  C15 UNL     1      22.609   3.420  48.680  1.00  0.00     0.060 A 
HETATM   13  C16 UNL     1      22.220   3.263  49.956  1.00  0.00     0.021 A 
HETATM   14  C17 UNL     1      23.295   2.822  50.934  1.00  0.00     0.081 C 
HETATM   15  N4  UNL     1      23.506   1.497  51.076  1.00  0.00    -0.260 NA
HETATM   16  C18 UNL     1      22.601   0.614  51.880  1.00  0.00     0.138 C 
HETATM   17  C19 UNL     1      21.509   0.974  52.708  1.00  0.00     0.075 C 
HETATM   18  C20 UNL     1      21.281   0.364  53.947  1.00  0.00     0.099 C 
HETATM   19  N5  UNL     1      21.115  -0.138  54.955  1.00  0.00    -0.192 NA
HETATM   20  C21 UNL     1      23.974   3.981  51.741  1.00  0.00     0.223 C 
HETATM   21  H14 UNL     1      19.734   4.100  52.213  1.00  0.00     0.161 HD
ENDROOT
BRANCH   1  22
HETATM   22  N2  UNL     1      23.785   6.159  51.975  1.00  0.00    -0.324 N 
HETATM   23  C6  UNL     1      23.515   7.056  50.877  1.00  0.00     0.245 C 
HETATM   24  O1  UNL     1      22.586   6.848  50.060  1.00  0.00    -0.268 OA
HETATM   25  H11 UNL     1      24.547   6.298  52.676  1.00  0.00     0.169 HD
BRANCH  23  26
HETATM   26  C5  UNL     1      24.363   8.229  50.744  1.00  0.00     0.072 C 
HETATM   27  C4  UNL     1      25.073   8.431  49.658  1.00  0.00     0.008 C 
BRANCH  27  28
HETATM   28  C3  UNL     1      25.989   9.516  49.290  1.00  0.00     0.299 C 
BRANCH  28  29
HETATM   29  N1  UNL     1      27.380   9.200  49.551  1.00  0.00     0.083 N 
HETATM   30  C1  UNL     1      27.760   7.939  48.937  1.00  0.00     0.309 C 
HETATM   31  C2  UNL     1      28.265  10.226  49.038  1.00  0.00     0.309 C 
ENDBRANCH  28  29
ENDBRANCH  27  28
ENDBRANCH  23  26
ENDBRANCH   1  22
BRANCH  20  32
HETATM   32  O2  UNL     1      25.039   4.406  50.964  1.00  0.00    -0.371 OA
BRANCH  32  33
HETATM   33  C22 UNL     1      25.893   3.368  50.674  1.00  0.00     0.200 C 
BRANCH  33  34
HETATM   34  C23 UNL     1      26.701   3.605  49.417  1.00  0.00     0.248 C 
HETATM   35  F2  UNL     1      26.307   4.713  48.726  1.00  0.00    -0.253 F 
ENDBRANCH  33  34
ENDBRANCH  32  33
ENDBRANCH  20  32
TORSDOF 7
ENDMDL
