MODEL 1
REMARK VINA RESULT:      -8.6      0.000      0.000
REMARK  2 active torsions:
REMARK  status: ('A' for Active; 'I' for Inactive)
REMARK    1  A    between atoms: N1_2  and  C1_3 
REMARK    2  A    between atoms: C12_15  and  O2_16 
ROOT
HETATM    1  C1  UNL     1      26.217  -0.670  53.203  1.00  0.00     0.173 C 
HETATM    2  C2  UNL     1      27.139   0.140  52.354  1.00  0.00     0.039 C 
HETATM    3  C3  UNL     1      26.320   1.095  51.527  1.00  0.00     0.042 C 
HETATM    4  C4  UNL     1      24.957   0.988  52.110  1.00  0.00    -0.049 A 
HETATM    5  C5  UNL     1      23.853   1.772  51.773  1.00  0.00     0.022 A 
HETATM    6  C6  UNL     1      22.667   1.497  52.451  1.00  0.00     0.003 A 
HETATM    7  C7  UNL     1      22.596   0.485  53.414  1.00  0.00    -0.025 A 
HETATM    8  C8  UNL     1      23.707  -0.274  53.726  1.00  0.00     0.019 A 
HETATM    9  C9  UNL     1      24.890  -0.011  53.061  1.00  0.00    -0.024 A 
HETATM   10  C10 UNL     1      21.317   0.256  54.087  1.00  0.00     0.184 C 
HETATM   11  N2  UNL     1      20.163   0.602  53.287  1.00  0.00    -0.298 N 
HETATM   12  C11 UNL     1      19.139  -0.435  53.136  1.00  0.00     0.186 C 
HETATM   13  C12 UNL     1      18.481  -0.254  51.842  1.00  0.00     0.117 C 
HETATM   14  C13 UNL     1      19.101   0.793  51.333  1.00  0.00     0.077 C 
HETATM   15  C14 UNL     1      19.139   1.659  50.163  1.00  0.00     0.098 C 
HETATM   16  N3  UNL     1      20.110   2.351  50.709  1.00  0.00    -0.277 NA
HETATM   17  C15 UNL     1      20.749   3.453  50.154  1.00  0.00     0.118 C 
HETATM   18  C16 UNL     1      21.561   3.281  51.186  1.00  0.00     0.053 C 
HETATM   19  C17 UNL     1      21.421   2.229  52.207  1.00  0.00     0.089 C 
HETATM   20  N4  UNL     1      20.372   1.910  52.871  1.00  0.00    -0.176 NA
ENDROOT
BRANCH   1  21
HETATM   21  N1  UNL     1      26.632  -0.766  54.569  1.00  0.00    -0.131 NA
HETATM   22  O1  UNL     1      27.614  -0.190  54.958  1.00  0.00    -0.066 OA
ENDBRANCH   1  21
BRANCH  13  23
HETATM   23  O2  UNL     1      17.541  -1.323  51.877  1.00  0.00    -0.384 OA
HETATM   24  H12 UNL     1      16.753  -1.195  52.520  1.00  0.00     0.210 HD
ENDBRANCH  13  23
TORSDOF 2
ENDMDL
MODEL 2
REMARK VINA RESULT:      -8.1      1.465      1.855
REMARK  2 active torsions:
REMARK  status: ('A' for Active; 'I' for Inactive)
REMARK    1  A    between atoms: N1_2  and  C1_3 
REMARK    2  A    between atoms: C12_15  and  O2_16 
ROOT
HETATM    1  C1  UNL     1      25.720  -0.738  53.698  1.00  0.00     0.173 C 
HETATM    2  C2  UNL     1      27.030  -0.325  53.114  1.00  0.00     0.039 C 
HETATM    3  C3  UNL     1      26.773   0.620  51.971  1.00  0.00     0.042 C 
HETATM    4  C4  UNL     1      25.324   0.930  52.087  1.00  0.00    -0.049 A 
HETATM    5  C5  UNL     1      24.618   1.864  51.330  1.00  0.00     0.022 A 
HETATM    6  C6  UNL     1      23.259   1.991  51.610  1.00  0.00     0.003 A 
HETATM    7  C7  UNL     1      22.644   1.216  52.599  1.00  0.00    -0.025 A 
HETATM    8  C8  UNL     1      23.370   0.298  53.332  1.00  0.00     0.019 A 
HETATM    9  C9  UNL     1      24.719   0.163  53.065  1.00  0.00    -0.024 A 
HETATM   10  C10 UNL     1      21.213   1.407  52.839  1.00  0.00     0.184 C 
HETATM   11  N2  UNL     1      20.476   1.849  51.676  1.00  0.00    -0.298 N 
HETATM   12  C11 UNL     1      19.298   1.057  51.311  1.00  0.00     0.186 C 
HETATM   13  C12 UNL     1      19.114   1.139  49.861  1.00  0.00     0.117 C 
HETATM   14  C13 UNL     1      20.114   1.909  49.475  1.00  0.00     0.077 C 
HETATM   15  C14 UNL     1      20.719   2.514  48.297  1.00  0.00     0.098 C 
HETATM   16  N3  UNL     1      21.641   3.060  49.053  1.00  0.00    -0.277 NA
HETATM   17  C15 UNL     1      22.686   3.869  48.623  1.00  0.00     0.118 C 
HETATM   18  C16 UNL     1      23.088   3.713  49.874  1.00  0.00     0.053 C 
HETATM   19  C17 UNL     1      22.382   2.926  50.899  1.00  0.00     0.089 C 
HETATM   20  N4  UNL     1      21.141   2.977  51.217  1.00  0.00    -0.176 NA
ENDROOT
BRANCH   1  21
HETATM   21  N1  UNL     1      25.683  -0.671  55.127  1.00  0.00    -0.131 NA
HETATM   22  O1  UNL     1      24.949  -1.382  55.760  1.00  0.00    -0.066 OA
ENDBRANCH   1  21
BRANCH  13  23
HETATM   23  O2  UNL     1      17.952   0.333  49.701  1.00  0.00    -0.384 OA
HETATM   24  H12 UNL     1      17.250   0.698  49.049  1.00  0.00     0.210 HD
ENDBRANCH  13  23
TORSDOF 2
ENDMDL
MODEL 3
REMARK VINA RESULT:      -8.1      3.088      4.627
REMARK  2 active torsions:
REMARK  status: ('A' for Active; 'I' for Inactive)
REMARK    1  A    between atoms: N1_2  and  C1_3 
REMARK    2  A    between atoms: C12_15  and  O2_16 
ROOT
HETATM    1  C1  UNL     1      25.635  -0.199  54.572  1.00  0.00     0.173 C 
HETATM    2  C2  UNL     1      24.588  -1.208  54.908  1.00  0.00     0.039 C 
HETATM    3  C3  UNL     1      23.298  -0.805  54.245  1.00  0.00     0.042 C 
HETATM    4  C4  UNL     1      23.699   0.296  53.331  1.00  0.00    -0.049 A 
HETATM    5  C5  UNL     1      22.882   0.928  52.395  1.00  0.00     0.022 A 
HETATM    6  C6  UNL     1      23.471   1.941  51.639  1.00  0.00     0.003 A 
HETATM    7  C7  UNL     1      24.811   2.297  51.820  1.00  0.00    -0.025 A 
HETATM    8  C8  UNL     1      25.596   1.652  52.756  1.00  0.00     0.019 A 
HETATM    9  C9  UNL     1      25.023   0.646  53.511  1.00  0.00    -0.024 A 
HETATM   10  C10 UNL     1      25.362   3.368  50.988  1.00  0.00     0.184 C 
HETATM   11  N2  UNL     1      24.383   4.345  50.565  1.00  0.00    -0.298 N 
HETATM   12  C11 UNL     1      24.701   5.748  50.842  1.00  0.00     0.186 C 
HETATM   13  C12 UNL     1      23.448   6.479  51.037  1.00  0.00     0.117 C 
HETATM   14  C13 UNL     1      22.529   5.545  50.881  1.00  0.00     0.077 C 
HETATM   15  C14 UNL     1      21.090   5.327  50.890  1.00  0.00     0.098 C 
HETATM   16  N3  UNL     1      21.281   4.057  50.626  1.00  0.00    -0.277 NA
HETATM   17  C15 UNL     1      20.296   3.091  50.466  1.00  0.00     0.118 C 
HETATM   18  C16 UNL     1      21.340   2.277  50.476  1.00  0.00     0.053 C 
HETATM   19  C17 UNL     1      22.743   2.701  50.620  1.00  0.00     0.089 C 
HETATM   20  N4  UNL     1      23.360   3.620  49.971  1.00  0.00    -0.176 NA
ENDROOT
BRANCH   1  21
HETATM   21  N1  UNL     1      26.876  -0.777  54.159  1.00  0.00    -0.131 NA
HETATM   22  O1  UNL     1      27.898  -0.532  54.744  1.00  0.00    -0.066 OA
ENDBRANCH   1  21
BRANCH  13  23
HETATM   23  O2  UNL     1      23.948   7.789  51.285  1.00  0.00    -0.384 OA
HETATM   24  H12 UNL     1      24.252   7.969  52.248  1.00  0.00     0.210 HD
ENDBRANCH  13  23
TORSDOF 2
ENDMDL
MODEL 4
REMARK VINA RESULT:      -8.1      3.647      5.703
REMARK  2 active torsions:
REMARK  status: ('A' for Active; 'I' for Inactive)
REMARK    1  A    between atoms: N1_2  and  C1_3 
REMARK    2  A    between atoms: C12_15  and  O2_16 
ROOT
HETATM    1  C1  UNL     1      26.449  -0.308  53.330  1.00  0.00     0.173 C 
HETATM    2  C2  UNL     1      25.261  -0.878  54.030  1.00  0.00     0.039 C 
HETATM    3  C3  UNL     1      24.061  -0.025  53.718  1.00  0.00     0.042 C 
HETATM    4  C4  UNL     1      24.539   0.874  52.635  1.00  0.00    -0.049 A 
HETATM    5  C5  UNL     1      23.760   1.776  51.910  1.00  0.00     0.022 A 
HETATM    6  C6  UNL     1      24.420   2.521  50.934  1.00  0.00     0.003 A 
HETATM    7  C7  UNL     1      25.791   2.367  50.704  1.00  0.00    -0.025 A 
HETATM    8  C8  UNL     1      26.535   1.465  51.439  1.00  0.00     0.019 A 
HETATM    9  C9  UNL     1      25.893   0.719  52.409  1.00  0.00    -0.024 A 
HETATM   10  C10 UNL     1      26.415   3.182  49.661  1.00  0.00     0.184 C 
HETATM   11  N2  UNL     1      25.763   4.454  49.441  1.00  0.00    -0.298 N 
HETATM   12  C11 UNL     1      26.618   5.642  49.495  1.00  0.00     0.186 C 
HETATM   13  C12 UNL     1      25.814   6.772  49.964  1.00  0.00     0.117 C 
HETATM   14  C13 UNL     1      24.623   6.236  50.152  1.00  0.00     0.077 C 
HETATM   15  C14 UNL     1      23.268   6.552  50.579  1.00  0.00     0.098 C 
HETATM   16  N3  UNL     1      22.917   5.303  50.385  1.00  0.00    -0.277 NA
HETATM   17  C15 UNL     1      21.655   4.761  50.590  1.00  0.00     0.118 C 
HETATM   18  C16 UNL     1      22.303   3.625  50.382  1.00  0.00     0.053 C 
HETATM   19  C17 UNL     1      23.742   3.511  50.094  1.00  0.00     0.089 C 
HETATM   20  N4  UNL     1      24.425   4.157  49.221  1.00  0.00    -0.176 NA
ENDROOT
BRANCH   1  21
HETATM   21  N1  UNL     1      27.233  -1.288  52.641  1.00  0.00    -0.131 NA
HETATM   22  O1  UNL     1      27.383  -2.391  53.097  1.00  0.00    -0.066 OA
ENDBRANCH   1  21
BRANCH  13  23
HETATM   23  O2  UNL     1      26.790   7.809  49.947  1.00  0.00    -0.384 OA
HETATM   24  H12 UNL     1      27.032   8.170  49.018  1.00  0.00     0.210 HD
ENDBRANCH  13  23
TORSDOF 2
ENDMDL
MODEL 5
REMARK VINA RESULT:      -7.6      2.802      6.054
REMARK  2 active torsions:
REMARK  status: ('A' for Active; 'I' for Inactive)
REMARK    1  A    between atoms: N1_2  and  C1_3 
REMARK    2  A    between atoms: C12_15  and  O2_16 
ROOT
HETATM    1  C1  UNL     1      17.776  -1.182  53.286  1.00  0.00     0.173 C 
HETATM    2  C2  UNL     1      16.670  -1.251  52.286  1.00  0.00     0.039 C 
HETATM    3  C3  UNL     1      17.048  -0.420  51.089  1.00  0.00     0.042 C 
HETATM    4  C4  UNL     1      18.479  -0.096  51.322  1.00  0.00    -0.049 A 
HETATM    5  C5  UNL     1      19.332   0.557  50.431  1.00  0.00     0.022 A 
HETATM    6  C6  UNL     1      20.643   0.757  50.860  1.00  0.00     0.003 A 
HETATM    7  C7  UNL     1      21.070   0.324  52.120  1.00  0.00    -0.025 A 
HETATM    8  C8  UNL     1      20.202  -0.319  52.979  1.00  0.00     0.019 A 
HETATM    9  C9  UNL     1      18.900  -0.524  52.566  1.00  0.00    -0.024 A 
HETATM   10  C10 UNL     1      22.463   0.566  52.499  1.00  0.00     0.184 C 
HETATM   11  N2  UNL     1      23.047   1.733  51.876  1.00  0.00    -0.298 N 
HETATM   12  C11 UNL     1      23.671   2.708  52.775  1.00  0.00     0.186 C 
HETATM   13  C12 UNL     1      23.555   4.037  52.172  1.00  0.00     0.117 C 
HETATM   14  C13 UNL     1      22.916   3.799  51.042  1.00  0.00     0.077 C 
HETATM   15  C14 UNL     1      22.384   4.453  49.855  1.00  0.00     0.098 C 
HETATM   16  N3  UNL     1      21.965   3.294  49.406  1.00  0.00    -0.277 NA
HETATM   17  C15 UNL     1      21.294   3.067  48.211  1.00  0.00     0.118 C 
HETATM   18  C16 UNL     1      21.144   1.858  48.729  1.00  0.00     0.053 C 
HETATM   19  C17 UNL     1      21.655   1.429  50.041  1.00  0.00     0.089 C 
HETATM   20  N4  UNL     1      22.838   1.576  50.513  1.00  0.00    -0.176 NA
ENDROOT
BRANCH   1  21
HETATM   21  N1  UNL     1      18.145  -2.457  53.821  1.00  0.00    -0.131 NA
HETATM   22  O1  UNL     1      17.389  -3.391  53.769  1.00  0.00    -0.066 OA
ENDBRANCH   1  21
BRANCH  13  23
HETATM   23  O2  UNL     1      24.203   4.828  53.161  1.00  0.00    -0.384 OA
HETATM   24  H12 UNL     1      23.643   5.037  53.995  1.00  0.00     0.210 HD
ENDBRANCH  13  23
TORSDOF 2
ENDMDL
MODEL 6
REMARK VINA RESULT:      -7.5      2.544      3.544
REMARK  2 active torsions:
REMARK  status: ('A' for Active; 'I' for Inactive)
REMARK    1  A    between atoms: N1_2  and  C1_3 
REMARK    2  A    between atoms: C12_15  and  O2_16 
ROOT
HETATM    1  C1  UNL     1      23.524  -0.916  54.114  1.00  0.00     0.173 C 
HETATM    2  C2  UNL     1      24.959  -0.642  54.418  1.00  0.00     0.039 C 
HETATM    3  C3  UNL     1      25.386   0.588  53.662  1.00  0.00     0.042 C 
HETATM    4  C4  UNL     1      24.111   1.142  53.138  1.00  0.00    -0.049 A 
HETATM    5  C5  UNL     1      23.952   2.355  52.470  1.00  0.00     0.022 A 
HETATM    6  C6  UNL     1      22.658   2.678  52.065  1.00  0.00     0.003 A 
HETATM    7  C7  UNL     1      21.581   1.821  52.319  1.00  0.00    -0.025 A 
HETATM    8  C8  UNL     1      21.770   0.625  52.983  1.00  0.00     0.019 A 
HETATM    9  C9  UNL     1      23.049   0.294  53.390  1.00  0.00    -0.024 A 
HETATM   10  C10 UNL     1      20.251   2.227  51.867  1.00  0.00     0.184 C 
HETATM   11  N2  UNL     1      20.262   3.080  50.700  1.00  0.00    -0.298 N 
HETATM   12  C11 UNL     1      19.427   2.654  49.573  1.00  0.00     0.186 C 
HETATM   13  C12 UNL     1      20.045   3.126  48.333  1.00  0.00     0.117 C 
HETATM   14  C13 UNL     1      21.127   3.753  48.756  1.00  0.00     0.077 C 
HETATM   15  C14 UNL     1      22.288   4.497  48.290  1.00  0.00     0.098 C 
HETATM   16  N3  UNL     1      22.689   4.645  49.529  1.00  0.00    -0.277 NA
HETATM   17  C15 UNL     1      23.833   5.310  49.951  1.00  0.00     0.118 C 
HETATM   18  C16 UNL     1      23.503   4.773  51.116  1.00  0.00     0.053 C 
HETATM   19  C17 UNL     1      22.331   3.914  51.350  1.00  0.00     0.089 C 
HETATM   20  N4  UNL     1      21.113   4.132  51.010  1.00  0.00    -0.176 NA
ENDROOT
BRANCH   1  21
HETATM   21  N1  UNL     1      22.737  -1.198  55.276  1.00  0.00    -0.131 NA
HETATM   22  O1  UNL     1      21.885  -2.046  55.254  1.00  0.00    -0.066 OA
ENDBRANCH   1  21
BRANCH  13  23
HETATM   23  O2  UNL     1      19.114   2.633  47.375  1.00  0.00    -0.384 OA
HETATM   24  H12 UNL     1      18.247   3.173  47.286  1.00  0.00     0.210 HD
ENDBRANCH  13  23
TORSDOF 2
ENDMDL
MODEL 7
REMARK VINA RESULT:      -7.4      3.143      6.783
REMARK  2 active torsions:
REMARK  status: ('A' for Active; 'I' for Inactive)
REMARK    1  A    between atoms: N1_2  and  C1_3 
REMARK    2  A    between atoms: C12_15  and  O2_16 
ROOT
HETATM    1  C1  UNL     1      22.592   3.184  47.637  1.00  0.00     0.173 C 
HETATM    2  C2  UNL     1      21.287   2.481  47.465  1.00  0.00     0.039 C 
HETATM    3  C3  UNL     1      21.105   1.515  48.606  1.00  0.00     0.042 C 
HETATM    4  C4  UNL     1      22.198   1.870  49.548  1.00  0.00    -0.049 A 
HETATM    5  C5  UNL     1      22.388   1.344  50.825  1.00  0.00     0.022 A 
HETATM    6  C6  UNL     1      23.485   1.825  51.538  1.00  0.00     0.003 A 
HETATM    7  C7  UNL     1      24.346   2.783  50.991  1.00  0.00    -0.025 A 
HETATM    8  C8  UNL     1      24.131   3.284  49.722  1.00  0.00     0.019 A 
HETATM    9  C9  UNL     1      23.046   2.816  49.005  1.00  0.00    -0.024 A 
HETATM   10  C10 UNL     1      25.475   3.242  51.800  1.00  0.00     0.184 C 
HETATM   11  N2  UNL     1      25.960   2.259  52.743  1.00  0.00    -0.298 N 
HETATM   12  C11 UNL     1      27.395   1.964  52.696  1.00  0.00     0.186 C 
HETATM   13  C12 UNL     1      27.598   0.576  53.115  1.00  0.00     0.117 C 
HETATM   14  C13 UNL     1      26.372   0.156  53.365  1.00  0.00     0.077 C 
HETATM   15  C14 UNL     1      25.616  -1.008  53.804  1.00  0.00     0.098 C 
HETATM   16  N3  UNL     1      24.502  -0.325  53.693  1.00  0.00    -0.277 NA
HETATM   17  C15 UNL     1      23.221  -0.789  53.962  1.00  0.00     0.118 C 
HETATM   18  C16 UNL     1      22.877   0.364  53.409  1.00  0.00     0.053 C 
HETATM   19  C17 UNL     1      23.820   1.368  52.889  1.00  0.00     0.089 C 
HETATM   20  N4  UNL     1      24.851   1.859  53.474  1.00  0.00    -0.176 NA
ENDROOT
BRANCH   1  21
HETATM   21  N1  UNL     1      22.507   4.601  47.455  1.00  0.00    -0.131 NA
HETATM   22  O1  UNL     1      21.691   5.253  48.051  1.00  0.00    -0.066 OA
ENDBRANCH   1  21
BRANCH  13  23
HETATM   23  O2  UNL     1      29.014   0.478  53.012  1.00  0.00    -0.384 OA
HETATM   24  H12 UNL     1      29.464  -0.139  53.696  1.00  0.00     0.210 HD
ENDBRANCH  13  23
TORSDOF 2
ENDMDL
MODEL 8
REMARK VINA RESULT:      -7.4      5.672      6.927
REMARK  2 active torsions:
REMARK  status: ('A' for Active; 'I' for Inactive)
REMARK    1  A    between atoms: N1_2  and  C1_3 
REMARK    2  A    between atoms: C12_15  and  O2_16 
ROOT
HETATM    1  C1  UNL     1      29.452   6.064  47.780  1.00  0.00     0.173 C 
HETATM    2  C2  UNL     1      29.721   7.528  47.888  1.00  0.00     0.039 C 
HETATM    3  C3  UNL     1      28.467   8.216  48.359  1.00  0.00     0.042 C 
HETATM    4  C4  UNL     1      27.577   7.095  48.757  1.00  0.00    -0.049 A 
HETATM    5  C5  UNL     1      26.334   7.210  49.380  1.00  0.00     0.022 A 
HETATM    6  C6  UNL     1      25.669   6.019  49.664  1.00  0.00     0.003 A 
HETATM    7  C7  UNL     1      26.225   4.778  49.334  1.00  0.00    -0.025 A 
HETATM    8  C8  UNL     1      27.457   4.697  48.717  1.00  0.00     0.019 A 
HETATM    9  C9  UNL     1      28.128   5.870  48.431  1.00  0.00    -0.024 A 
HETATM   10  C10 UNL     1      25.469   3.570  49.666  1.00  0.00     0.184 C 
HETATM   11  N2  UNL     1      24.036   3.761  49.684  1.00  0.00    -0.298 N 
HETATM   12  C11 UNL     1      23.244   2.835  48.870  1.00  0.00     0.186 C 
HETATM   13  C12 UNL     1      22.034   3.527  48.422  1.00  0.00     0.117 C 
HETATM   14  C13 UNL     1      22.164   4.730  48.950  1.00  0.00     0.077 C 
HETATM   15  C14 UNL     1      21.506   6.024  49.051  1.00  0.00     0.098 C 
HETATM   16  N3  UNL     1      22.493   6.466  49.793  1.00  0.00    -0.277 NA
HETATM   17  C15 UNL     1      22.608   7.738  50.338  1.00  0.00     0.118 C 
HETATM   18  C16 UNL     1      23.825   7.310  50.634  1.00  0.00     0.053 C 
HETATM   19  C17 UNL     1      24.355   5.975  50.311  1.00  0.00     0.089 C 
HETATM   20  N4  UNL     1      23.810   4.836  50.533  1.00  0.00    -0.176 NA
ENDROOT
BRANCH   1  21
HETATM   21  N1  UNL     1      30.471   5.250  48.368  1.00  0.00    -0.131 NA
HETATM   22  O1  UNL     1      31.055   5.609  49.356  1.00  0.00    -0.066 OA
ENDBRANCH   1  21
BRANCH  13  23
HETATM   23  O2  UNL     1      21.409   2.494  47.669  1.00  0.00    -0.384 OA
HETATM   24  H12 UNL     1      21.897   2.218  46.810  1.00  0.00     0.210 HD
ENDBRANCH  13  23
TORSDOF 2
ENDMDL
MODEL 9
REMARK VINA RESULT:      -7.4      9.706     13.061
REMARK  2 active torsions:
REMARK  status: ('A' for Active; 'I' for Inactive)
REMARK    1  A    between atoms: N1_2  and  C1_3 
REMARK    2  A    between atoms: C12_15  and  O2_16 
ROOT
HETATM    1  C1  UNL     1      27.213   8.023  48.918  1.00  0.00     0.173 C 
HETATM    2  C2  UNL     1      26.353   6.819  49.119  1.00  0.00     0.039 C 
HETATM    3  C3  UNL     1      27.094   5.608  48.618  1.00  0.00     0.042 C 
HETATM    4  C4  UNL     1      28.470   6.111  48.374  1.00  0.00    -0.049 A 
HETATM    5  C5  UNL     1      29.578   5.342  48.017  1.00  0.00     0.022 A 
HETATM    6  C6  UNL     1      30.778   6.026  47.837  1.00  0.00     0.003 A 
HETATM    7  C7  UNL     1      30.857   7.413  48.006  1.00  0.00    -0.025 A 
HETATM    8  C8  UNL     1      29.743   8.148  48.359  1.00  0.00     0.019 A 
HETATM    9  C9  UNL     1      28.546   7.480  48.541  1.00  0.00    -0.024 A 
HETATM   10  C10 UNL     1      32.153   8.063  47.804  1.00  0.00     0.184 C 
HETATM   11  N2  UNL     1      33.013   7.378  46.864  1.00  0.00    -0.298 N 
HETATM   12  C11 UNL     1      33.553   8.185  45.767  1.00  0.00     0.186 C 
HETATM   13  C12 UNL     1      33.753   7.316  44.606  1.00  0.00     0.117 C 
HETATM   14  C13 UNL     1      33.351   6.137  45.040  1.00  0.00     0.077 C 
HETATM   15  C14 UNL     1      33.185   4.750  44.632  1.00  0.00     0.098 C 
HETATM   16  N3  UNL     1      32.720   4.456  45.822  1.00  0.00    -0.277 NA
HETATM   17  C15 UNL     1      32.302   3.205  46.258  1.00  0.00     0.118 C 
HETATM   18  C16 UNL     1      31.879   3.904  47.299  1.00  0.00     0.053 C 
HETATM   19  C17 UNL     1      32.027   5.360  47.459  1.00  0.00     0.089 C 
HETATM   20  N4  UNL     1      33.087   6.066  47.310  1.00  0.00    -0.176 NA
ENDROOT
BRANCH   1  21
HETATM   21  N1  UNL     1      27.279   8.878  50.064  1.00  0.00    -0.131 NA
HETATM   22  O1  UNL     1      26.861  10.004  50.018  1.00  0.00    -0.066 OA
ENDBRANCH   1  21
BRANCH  13  23
HETATM   23  O2  UNL     1      34.272   8.253  43.668  1.00  0.00    -0.384 OA
HETATM   24  H12 UNL     1      34.012   9.231  43.832  1.00  0.00     0.210 HD
ENDBRANCH  13  23
TORSDOF 2
ENDMDL
