MODEL 1
REMARK VINA RESULT:      -7.8      0.000      0.000
REMARK  1 active torsions:
REMARK  status: ('A' for Active; 'I' for Inactive)
REMARK    1  A    between atoms: C8_11  and  S2_12 
ROOT
HETATM    1  C1  UNL     1      21.472  -0.815  53.427  1.00  0.00     0.010 C 
HETATM    2  C2  UNL     1      22.742  -0.708  53.712  1.00  0.00     0.023 A 
HETATM    3  C3  UNL     1      24.167  -0.505  53.861  1.00  0.00    -0.070 A 
HETATM    4  C4  UNL     1      25.299  -0.573  54.454  1.00  0.00     0.005 C 
HETATM    5  C5  UNL     1      26.460  -0.075  53.785  1.00  0.00     0.026 C 
HETATM    6  C6  UNL     1      27.245   0.450  52.860  1.00  0.00     0.218 C 
HETATM    7  N1  UNL     1      26.430   0.746  51.690  1.00  0.00     0.059 N 
HETATM    8  C7  UNL     1      25.545   1.661  51.055  1.00  0.00     0.485 A 
HETATM    9  S1  UNL     1      26.957   2.326  51.764  1.00  0.00     0.140 SA
HETATM   10  N2  UNL     1      24.676   2.520  50.398  1.00  0.00     0.155 N 
HETATM   11  C8  UNL     1      24.005   3.766  50.465  1.00  0.00     0.284 C 
HETATM   12  C14 UNL     1      23.131   3.924  51.763  1.00  0.00     0.047 C 
HETATM   13  C15 UNL     1      24.022   3.543  52.937  1.00  0.00     0.008 C 
HETATM   14  C16 UNL     1      23.960   2.063  53.214  1.00  0.00    -0.001 C 
HETATM   15  C17 UNL     1      23.568   0.745  53.238  1.00  0.00     0.027 A 
HETATM   16  H7  UNL     1      26.615  -0.148  51.123  1.00  0.00     0.305 HD
HETATM   17  H8  UNL     1      24.934   2.929  51.266  1.00  0.00     0.322 HD
ENDROOT
BRANCH  11  18
HETATM   18  S2  UNL     1      25.019   5.168  50.060  1.00  0.00    -0.140 SA
HETATM   19  C9  UNL     1      24.752   6.693  50.701  1.00  0.00     0.040 A 
HETATM   20  C10 UNL     1      25.653   7.729  50.279  1.00  0.00     0.006 A 
HETATM   21  C11 UNL     1      26.647   7.579  49.448  1.00  0.00     0.001 A 
HETATM   22  C12 UNL     1      27.049   6.349  48.782  1.00  0.00     0.006 A 
HETATM   23  C13 UNL     1      26.427   5.174  48.944  1.00  0.00     0.040 A 
ENDBRANCH  11  18
TORSDOF 1
ENDMDL
MODEL 2
REMARK VINA RESULT:      -7.7      2.443      6.751
REMARK  1 active torsions:
REMARK  status: ('A' for Active; 'I' for Inactive)
REMARK    1  A    between atoms: C8_11  and  S2_12 
ROOT
HETATM    1  C1  UNL     1      24.415   6.980  48.303  1.00  0.00     0.010 C 
HETATM    2  C2  UNL     1      25.131   5.961  48.693  1.00  0.00     0.023 A 
HETATM    3  C3  UNL     1      25.801   4.814  49.267  1.00  0.00    -0.070 A 
HETATM    4  C4  UNL     1      26.702   3.908  49.346  1.00  0.00     0.005 C 
HETATM    5  C5  UNL     1      26.672   2.998  50.447  1.00  0.00     0.026 C 
HETATM    6  C6  UNL     1      26.313   2.402  51.572  1.00  0.00     0.218 C 
HETATM    7  N1  UNL     1      25.169   3.120  52.118  1.00  0.00     0.059 N 
HETATM    8  C7  UNL     1      23.760   3.306  52.100  1.00  0.00     0.485 A 
HETATM    9  S1  UNL     1      24.320   1.685  52.133  1.00  0.00     0.140 SA
HETATM   10  N2  UNL     1      22.389   3.525  52.114  1.00  0.00     0.155 N 
HETATM   11  C8  UNL     1      21.145   3.127  51.566  1.00  0.00     0.284 C 
HETATM   12  C14 UNL     1      21.111   3.211  49.995  1.00  0.00     0.047 C 
HETATM   13  C15 UNL     1      22.359   2.499  49.494  1.00  0.00     0.008 C 
HETATM   14  C16 UNL     1      23.531   3.442  49.404  1.00  0.00    -0.001 C 
HETATM   15  C17 UNL     1      24.302   4.579  49.343  1.00  0.00     0.027 A 
HETATM   16  H7  UNL     1      25.687   3.767  52.804  1.00  0.00     0.305 HD
HETATM   17  H8  UNL     1      22.591   2.808  51.456  1.00  0.00     0.322 HD
ENDROOT
BRANCH  11  18
HETATM   18  S2  UNL     1      20.483   1.631  52.257  1.00  0.00    -0.140 SA
HETATM   19  C9  UNL     1      19.078   0.916  51.688  1.00  0.00     0.040 A 
HETATM   20  C10 UNL     1      18.665  -0.291  52.350  1.00  0.00     0.006 A 
HETATM   21  C11 UNL     1      19.286  -0.865  53.343  1.00  0.00     0.001 A 
HETATM   22  C12 UNL     1      20.512  -0.411  53.984  1.00  0.00     0.006 A 
HETATM   23  C13 UNL     1      21.180   0.691  53.620  1.00  0.00     0.040 A 
ENDBRANCH  11  18
TORSDOF 1
ENDMDL
MODEL 3
REMARK VINA RESULT:      -7.7      2.427      3.985
REMARK  1 active torsions:
REMARK  status: ('A' for Active; 'I' for Inactive)
REMARK    1  A    between atoms: C8_11  and  S2_12 
ROOT
HETATM    1  C1  UNL     1      29.034   2.348  53.823  1.00  0.00     0.010 C 
HETATM    2  C2  UNL     1      27.939   1.669  53.606  1.00  0.00     0.023 A 
HETATM    3  C3  UNL     1      26.647   1.083  53.323  1.00  0.00    -0.070 A 
HETATM    4  C4  UNL     1      25.799   0.131  53.205  1.00  0.00     0.005 C 
HETATM    5  C5  UNL     1      24.452   0.448  52.844  1.00  0.00     0.026 C 
HETATM    6  C6  UNL     1      23.367   1.136  52.532  1.00  0.00     0.218 C 
HETATM    7  N1  UNL     1      23.706   2.552  52.557  1.00  0.00     0.059 N 
HETATM    8  C7  UNL     1      24.263   3.656  51.856  1.00  0.00     0.485 A 
HETATM    9  S1  UNL     1      23.153   2.677  50.989  1.00  0.00     0.140 SA
HETATM   10  N2  UNL     1      24.800   4.762  51.213  1.00  0.00     0.155 N 
HETATM   11  C8  UNL     1      25.385   5.236  50.012  1.00  0.00     0.284 C 
HETATM   12  C14 UNL     1      26.647   4.405  49.574  1.00  0.00     0.047 C 
HETATM   13  C15 UNL     1      26.244   2.938  49.628  1.00  0.00     0.008 C 
HETATM   14  C16 UNL     1      26.478   2.355  50.998  1.00  0.00    -0.001 C 
HETATM   15  C17 UNL     1      26.923   2.155  52.283  1.00  0.00     0.027 A 
HETATM   16  H7  UNL     1      23.382   2.786  53.556  1.00  0.00     0.305 HD
HETATM   17  H8  UNL     1      24.840   3.984  50.596  1.00  0.00     0.322 HD
ENDROOT
BRANCH  11  18
HETATM   18  S2  UNL     1      24.220   5.581  48.716  1.00  0.00    -0.140 SA
HETATM   19  C9  UNL     1      24.167   7.053  47.916  1.00  0.00     0.040 A 
HETATM   20  C10 UNL     1      23.169   7.185  46.891  1.00  0.00     0.006 A 
HETATM   21  C11 UNL     1      22.314   6.265  46.539  1.00  0.00     0.001 A 
HETATM   22  C12 UNL     1      22.190   4.929  47.102  1.00  0.00     0.006 A 
HETATM   23  C13 UNL     1      22.967   4.458  48.087  1.00  0.00     0.040 A 
ENDBRANCH  11  18
TORSDOF 1
ENDMDL
MODEL 4
REMARK VINA RESULT:      -7.4      5.516      8.298
REMARK  1 active torsions:
REMARK  status: ('A' for Active; 'I' for Inactive)
REMARK    1  A    between atoms: C8_11  and  S2_12 
ROOT
HETATM    1  C1  UNL     1      30.567   5.325  47.752  1.00  0.00     0.010 C 
HETATM    2  C2  UNL     1      29.328   5.242  48.155  1.00  0.00     0.023 A 
HETATM    3  C3  UNL     1      27.975   5.327  48.662  1.00  0.00    -0.070 A 
HETATM    4  C4  UNL     1      26.793   4.902  48.909  1.00  0.00     0.005 C 
HETATM    5  C5  UNL     1      25.885   5.754  49.611  1.00  0.00     0.026 C 
HETATM    6  C6  UNL     1      25.391   6.793  50.263  1.00  0.00     0.218 C 
HETATM    7  N1  UNL     1      26.446   7.788  50.395  1.00  0.00     0.059 N 
HETATM    8  C7  UNL     1      27.151   8.864  49.790  1.00  0.00     0.485 A 
HETATM    9  S1  UNL     1      25.441   8.900  49.666  1.00  0.00     0.140 SA
HETATM   10  N2  UNL     1      27.869   9.916  49.239  1.00  0.00     0.155 N 
HETATM   11  C8  UNL     1      28.010  10.758  48.108  1.00  0.00     0.284 C 
HETATM   12  C14 UNL     1      28.212   9.958  46.768  1.00  0.00     0.047 C 
HETATM   13  C15 UNL     1      27.119   8.900  46.723  1.00  0.00     0.008 C 
HETATM   14  C16 UNL     1      27.554   7.632  47.412  1.00  0.00    -0.001 C 
HETATM   15  C17 UNL     1      28.318   6.646  47.991  1.00  0.00     0.027 A 
HETATM   16  H7  UNL     1      26.800   7.531  51.378  1.00  0.00     0.305 HD
HETATM   17  H8  UNL     1      27.177   9.625  48.586  1.00  0.00     0.322 HD
ENDROOT
BRANCH  11  18
HETATM   18  S2  UNL     1      26.829  12.083  48.027  1.00  0.00    -0.140 SA
HETATM   19  C9  UNL     1      27.249  13.686  48.274  1.00  0.00     0.040 A 
HETATM   20  C10 UNL     1      26.185  14.646  48.179  1.00  0.00     0.006 A 
HETATM   21  C11 UNL     1      24.936  14.373  47.919  1.00  0.00     0.001 A 
HETATM   22  C12 UNL     1      24.363  13.057  47.675  1.00  0.00     0.006 A 
HETATM   23  C13 UNL     1      25.073  11.920  47.686  1.00  0.00     0.040 A 
ENDBRANCH  11  18
TORSDOF 1
ENDMDL
MODEL 5
REMARK VINA RESULT:      -7.2      2.119      3.194
REMARK  1 active torsions:
REMARK  status: ('A' for Active; 'I' for Inactive)
REMARK    1  A    between atoms: C8_11  and  S2_12 
ROOT
HETATM    1  C1  UNL     1      17.906  -0.471  51.978  1.00  0.00     0.010 C 
HETATM    2  C2  UNL     1      18.973  -0.515  52.729  1.00  0.00     0.023 A 
HETATM    3  C3  UNL     1      20.247  -0.492  53.414  1.00  0.00    -0.070 A 
HETATM    4  C4  UNL     1      21.046  -0.671  54.399  1.00  0.00     0.005 C 
HETATM    5  C5  UNL     1      22.433  -0.376  54.225  1.00  0.00     0.026 C 
HETATM    6  C6  UNL     1      23.579  -0.019  53.669  1.00  0.00     0.218 C 
HETATM    7  N1  UNL     1      23.323   0.305  52.273  1.00  0.00     0.059 N 
HETATM    8  C7  UNL     1      22.891   1.285  51.337  1.00  0.00     0.485 A 
HETATM    9  S1  UNL     1      24.009   1.803  52.530  1.00  0.00     0.140 SA
HETATM   10  N2  UNL     1      22.474   2.208  50.388  1.00  0.00     0.155 N 
HETATM   11  C8  UNL     1      22.019   3.533  50.180  1.00  0.00     0.284 C 
HETATM   12  C14 UNL     1      20.751   3.889  51.039  1.00  0.00     0.047 C 
HETATM   13  C15 UNL     1      21.061   3.470  52.469  1.00  0.00     0.008 C 
HETATM   14  C16 UNL     1      20.682   2.033  52.714  1.00  0.00    -0.001 C 
HETATM   15  C17 UNL     1      20.121   0.783  52.598  1.00  0.00     0.027 A 
HETATM   16  H7  UNL     1      23.576  -0.641  51.829  1.00  0.00     0.305 HD
HETATM   17  H8  UNL     1      22.440   2.635  51.285  1.00  0.00     0.322 HD
ENDROOT
BRANCH  11  18
HETATM   18  S2  UNL     1      23.305   4.760  50.185  1.00  0.00    -0.140 SA
HETATM   19  C9  UNL     1      24.750   4.559  49.361  1.00  0.00     0.040 A 
HETATM   20  C10 UNL     1      25.694   5.638  49.460  1.00  0.00     0.006 A 
HETATM   21  C11 UNL     1      25.520   6.742  50.130  1.00  0.00     0.001 A 
HETATM   22  C12 UNL     1      24.348   7.113  50.910  1.00  0.00     0.006 A 
HETATM   23  C13 UNL     1      23.262   6.338  51.041  1.00  0.00     0.040 A 
ENDBRANCH  11  18
TORSDOF 1
ENDMDL
MODEL 6
REMARK VINA RESULT:      -7.2      2.532      7.286
REMARK  1 active torsions:
REMARK  status: ('A' for Active; 'I' for Inactive)
REMARK    1  A    between atoms: C8_11  and  S2_12 
ROOT
HETATM    1  C1  UNL     1      27.221   5.104  48.627  1.00  0.00     0.010 C 
HETATM    2  C2  UNL     1      26.263   5.772  49.211  1.00  0.00     0.023 A 
HETATM    3  C3  UNL     1      25.091   6.364  49.821  1.00  0.00    -0.070 A 
HETATM    4  C4  UNL     1      24.428   7.270  50.436  1.00  0.00     0.005 C 
HETATM    5  C5  UNL     1      23.035   7.061  50.678  1.00  0.00     0.026 C 
HETATM    6  C6  UNL     1      21.832   6.513  50.683  1.00  0.00     0.218 C 
HETATM    7  N1  UNL     1      21.906   5.254  49.953  1.00  0.00     0.059 N 
HETATM    8  C7  UNL     1      22.226   3.870  49.996  1.00  0.00     0.485 A 
HETATM    9  S1  UNL     1      21.286   4.481  51.294  1.00  0.00     0.140 SA
HETATM   10  N2  UNL     1      22.529   2.515  49.989  1.00  0.00     0.155 N 
HETATM   11  C8  UNL     1      22.975   1.422  50.772  1.00  0.00     0.284 C 
HETATM   12  C14 UNL     1      24.352   1.696  51.480  1.00  0.00     0.047 C 
HETATM   13  C15 UNL     1      24.228   3.048  52.169  1.00  0.00     0.008 C 
HETATM   14  C16 UNL     1      24.611   4.172  51.243  1.00  0.00    -0.001 C 
HETATM   15  C17 UNL     1      25.130   4.891  50.191  1.00  0.00     0.027 A 
HETATM   16  H7  UNL     1      21.579   5.598  48.988  1.00  0.00     0.305 HD
HETATM   17  H8  UNL     1      22.690   2.874  50.902  1.00  0.00     0.322 HD
ENDROOT
BRANCH  11  18
HETATM   18  S2  UNL     1      21.723   0.701  51.805  1.00  0.00    -0.140 SA
HETATM   19  C9  UNL     1      20.111   0.624  51.355  1.00  0.00     0.040 A 
HETATM   20  C10 UNL     1      19.215   0.013  52.297  1.00  0.00     0.006 A 
HETATM   21  C11 UNL     1      19.551  -0.479  53.458  1.00  0.00     0.001 A 
HETATM   22  C12 UNL     1      20.886  -0.512  54.037  1.00  0.00     0.006 A 
HETATM   23  C13 UNL     1      21.976  -0.026  53.429  1.00  0.00     0.040 A 
ENDBRANCH  11  18
TORSDOF 1
ENDMDL
MODEL 7
REMARK VINA RESULT:      -7.1      2.232      3.890
REMARK  1 active torsions:
REMARK  status: ('A' for Active; 'I' for Inactive)
REMARK    1  A    between atoms: C8_11  and  S2_12 
ROOT
HETATM    1  C1  UNL     1      24.308  -0.367  53.464  1.00  0.00     0.010 C 
HETATM    2  C2  UNL     1      23.195   0.242  53.159  1.00  0.00     0.023 A 
HETATM    3  C3  UNL     1      22.064   1.074  52.808  1.00  0.00    -0.070 A 
HETATM    4  C4  UNL     1      20.835   1.323  52.549  1.00  0.00     0.005 C 
HETATM    5  C5  UNL     1      20.447   2.672  52.278  1.00  0.00     0.026 C 
HETATM    6  C6  UNL     1      20.500   3.982  52.112  1.00  0.00     0.218 C 
HETATM    7  N1  UNL     1      21.866   4.416  52.372  1.00  0.00     0.059 N 
HETATM    8  C7  UNL     1      23.181   4.582  51.857  1.00  0.00     0.485 A 
HETATM    9  S1  UNL     1      21.893   5.120  50.861  1.00  0.00     0.140 SA
HETATM   10  N2  UNL     1      24.480   4.759  51.400  1.00  0.00     0.155 N 
HETATM   11  C8  UNL     1      25.344   4.633  50.285  1.00  0.00     0.284 C 
HETATM   12  C14 UNL     1      25.364   3.180  49.684  1.00  0.00     0.047 C 
HETATM   13  C15 UNL     1      23.911   2.767  49.496  1.00  0.00     0.008 C 
HETATM   14  C16 UNL     1      23.358   2.121  50.740  1.00  0.00    -0.001 C 
HETATM   15  C17 UNL     1      23.250   1.500  51.962  1.00  0.00     0.027 A 
HETATM   16  H7  UNL     1      21.761   4.703  53.403  1.00  0.00     0.305 HD
HETATM   17  H8  UNL     1      23.927   4.394  50.659  1.00  0.00     0.322 HD
ENDROOT
BRANCH  11  18
HETATM   18  S2  UNL     1      25.201   5.943  49.093  1.00  0.00    -0.140 SA
HETATM   19  C9  UNL     1      26.415   7.068  48.835  1.00  0.00     0.040 A 
HETATM   20  C10 UNL     1      26.154   8.070  47.839  1.00  0.00     0.006 A 
HETATM   21  C11 UNL     1      25.063   8.173  47.131  1.00  0.00     0.001 A 
HETATM   22  C12 UNL     1      23.895   7.306  47.198  1.00  0.00     0.006 A 
HETATM   23  C13 UNL     1      23.791   6.256  48.025  1.00  0.00     0.040 A 
ENDBRANCH  11  18
TORSDOF 1
ENDMDL
MODEL 8
REMARK VINA RESULT:      -6.9      3.334      6.089
REMARK  1 active torsions:
REMARK  status: ('A' for Active; 'I' for Inactive)
REMARK    1  A    between atoms: C8_11  and  S2_12 
ROOT
HETATM    1  C1  UNL     1      26.688  -0.920  52.353  1.00  0.00     0.010 C 
HETATM    2  C2  UNL     1      26.569   0.317  51.952  1.00  0.00     0.023 A 
HETATM    3  C3  UNL     1      26.274   1.635  51.432  1.00  0.00    -0.070 A 
HETATM    4  C4  UNL     1      26.487   2.879  51.218  1.00  0.00     0.005 C 
HETATM    5  C5  UNL     1      25.544   3.616  50.437  1.00  0.00     0.026 C 
HETATM    6  C6  UNL     1      24.494   3.912  49.690  1.00  0.00     0.218 C 
HETATM    7  N1  UNL     1      23.734   2.688  49.474  1.00  0.00     0.059 N 
HETATM    8  C7  UNL     1      22.761   1.784  49.983  1.00  0.00     0.485 A 
HETATM    9  S1  UNL     1      22.389   3.454  50.094  1.00  0.00     0.140 SA
HETATM   10  N2  UNL     1      21.820   0.873  50.441  1.00  0.00     0.155 N 
HETATM   11  C8  UNL     1      20.922   0.561  51.491  1.00  0.00     0.284 C 
HETATM   12  C14 UNL     1      21.621   0.499  52.899  1.00  0.00     0.047 C 
HETATM   13  C15 UNL     1      22.444   1.773  53.034  1.00  0.00     0.008 C 
HETATM   14  C16 UNL     1      23.828   1.594  52.466  1.00  0.00    -0.001 C 
HETATM   15  C17 UNL     1      24.989   1.039  51.982  1.00  0.00     0.027 A 
HETATM   16  H7  UNL     1      24.141   2.401  48.521  1.00  0.00     0.305 HD
HETATM   17  H8  UNL     1      21.914   1.599  51.113  1.00  0.00     0.322 HD
ENDROOT
BRANCH  11  18
HETATM   18  S2  UNL     1      19.395   1.467  51.445  1.00  0.00    -0.140 SA
HETATM   19  C9  UNL     1      17.907   0.723  51.250  1.00  0.00     0.040 A 
HETATM   20  C10 UNL     1      16.759   1.588  51.230  1.00  0.00     0.006 A 
HETATM   21  C11 UNL     1      16.784   2.886  51.349  1.00  0.00     0.001 A 
HETATM   22  C12 UNL     1      17.962   3.724  51.525  1.00  0.00     0.006 A 
HETATM   23  C13 UNL     1      19.213   3.249  51.590  1.00  0.00     0.040 A 
ENDBRANCH  11  18
TORSDOF 1
ENDMDL
MODEL 9
REMARK VINA RESULT:      -6.9      2.785      7.227
REMARK  1 active torsions:
REMARK  status: ('A' for Active; 'I' for Inactive)
REMARK    1  A    between atoms: C8_11  and  S2_12 
ROOT
HETATM    1  C1  UNL     1      22.004   5.892  46.053  1.00  0.00     0.010 C 
HETATM    2  C2  UNL     1      22.796   6.226  47.035  1.00  0.00     0.023 A 
HETATM    3  C3  UNL     1      23.550   6.512  48.238  1.00  0.00    -0.070 A 
HETATM    4  C4  UNL     1      24.526   6.984  48.918  1.00  0.00     0.005 C 
HETATM    5  C5  UNL     1      24.501   6.857  50.341  1.00  0.00     0.026 C 
HETATM    6  C6  UNL     1      24.101   6.564  51.567  1.00  0.00     0.218 C 
HETATM    7  N1  UNL     1      22.784   5.947  51.477  1.00  0.00     0.059 N 
HETATM    8  C7  UNL     1      22.040   4.756  51.254  1.00  0.00     0.485 A 
HETATM    9  S1  UNL     1      23.380   4.636  52.318  1.00  0.00     0.140 SA
HETATM   10  N2  UNL     1      21.272   3.620  51.040  1.00  0.00     0.155 N 
HETATM   11  C8  UNL     1      21.306   2.229  50.773  1.00  0.00     0.284 C 
HETATM   12  C14 UNL     1      22.139   1.871  49.488  1.00  0.00     0.047 C 
HETATM   13  C15 UNL     1      23.472   2.594  49.617  1.00  0.00     0.008 C 
HETATM   14  C16 UNL     1      23.400   3.985  49.042  1.00  0.00    -0.001 C 
HETATM   15  C17 UNL     1      23.000   5.100  48.343  1.00  0.00     0.027 A 
HETATM   16  H7  UNL     1      22.176   6.817  51.649  1.00  0.00     0.305 HD
HETATM   17  H8  UNL     1      22.232   3.372  50.980  1.00  0.00     0.322 HD
ENDROOT
BRANCH  11  18
HETATM   18  S2  UNL     1      21.637   1.217  52.195  1.00  0.00    -0.140 SA
HETATM   19  C9  UNL     1      20.471   0.862  53.344  1.00  0.00     0.040 A 
HETATM   20  C10 UNL     1      20.888   0.032  54.440  1.00  0.00     0.006 A 
HETATM   21  C11 UNL     1      22.084  -0.459  54.610  1.00  0.00     0.001 A 
HETATM   22  C12 UNL     1      23.235  -0.274  53.737  1.00  0.00     0.006 A 
HETATM   23  C13 UNL     1      23.208   0.450  52.610  1.00  0.00     0.040 A 
ENDBRANCH  11  18
TORSDOF 1
ENDMDL
