MODEL 1
REMARK VINA RESULT:      -8.6      0.000      0.000
REMARK  3 active torsions:
REMARK  status: ('A' for Active; 'I' for Inactive)
REMARK    1  A    between atoms: C7_8  and  O2_9 
REMARK    2  A    between atoms: O2_9  and  C8_10 
REMARK    3  A    between atoms: C8_10  and  C9_11 
ROOT
HETATM    1  C1  UNL     1      24.751  -1.230  54.230  1.00  0.00     0.067 C 
HETATM    2  C2  UNL     1      24.046  -0.193  53.730  1.00  0.00     0.058 C 
HETATM    3  C3  UNL     1      22.819   0.482  53.512  1.00  0.00     0.194 C 
HETATM    4  O1  UNL     1      22.422  -0.515  54.209  1.00  0.00    -0.286 OA
HETATM    5  C4  UNL     1      22.938   1.700  52.733  1.00  0.00     0.053 C 
HETATM    6  C5  UNL     1      23.362   2.717  51.990  1.00  0.00    -0.014 C 
HETATM    7  C6  UNL     1      24.736   2.279  51.843  1.00  0.00     0.057 C 
HETATM    8  C7  UNL     1      25.977   2.401  51.412  1.00  0.00     0.102 C 
HETATM    9  C15 UNL     1      26.887   1.313  51.740  1.00  0.00     0.069 C 
HETATM   10  C16 UNL     1      26.350   0.081  52.366  1.00  0.00     0.111 C 
HETATM   11  C17 UNL     1      27.561  -0.751  52.794  1.00  0.00     0.193 C 
HETATM   12  O3  UNL     1      27.475  -0.972  54.153  1.00  0.00    -0.388 OA
HETATM   13  C18 UNL     1      27.437   0.246  54.810  1.00  0.00     0.187 C 
HETATM   14  C19 UNL     1      26.172   1.010  54.447  1.00  0.00     0.149 C 
HETATM   15  N1  UNL     1      25.413   0.232  53.444  1.00  0.00    -0.372 N 
ENDROOT
BRANCH   8  16
HETATM   16  O2  UNL     1      26.858   3.262  50.668  1.00  0.00    -0.372 OA
BRANCH  16  17
HETATM   17  C8  UNL     1      26.706   3.372  49.274  1.00  0.00     0.207 C 
BRANCH  17  18
HETATM   18  C9  UNL     1      26.966   4.786  48.898  1.00  0.00    -0.035 A 
HETATM   19  C10 UNL     1      26.088   5.843  48.929  1.00  0.00     0.009 A 
HETATM   20  C11 UNL     1      26.515   7.090  48.537  1.00  0.00     0.001 A 
HETATM   21  C12 UNL     1      27.799   7.353  48.105  1.00  0.00     0.000 A 
HETATM   22  C13 UNL     1      28.700   6.277  48.071  1.00  0.00     0.001 A 
HETATM   23  C14 UNL     1      28.249   5.035  48.469  1.00  0.00     0.009 A 
ENDBRANCH  17  18
ENDBRANCH  16  17
ENDBRANCH   8  16
TORSDOF 3
ENDMDL
MODEL 2
REMARK VINA RESULT:      -8.5      1.973      4.099
REMARK  3 active torsions:
REMARK  status: ('A' for Active; 'I' for Inactive)
REMARK    1  A    between atoms: C7_8  and  O2_9 
REMARK    2  A    between atoms: O2_9  and  C8_10 
REMARK    3  A    between atoms: C8_10  and  C9_11 
ROOT
HETATM    1  C1  UNL     1      20.672   0.076  54.240  1.00  0.00     0.067 C 
HETATM    2  C2  UNL     1      21.986  -0.210  54.113  1.00  0.00     0.058 C 
HETATM    3  C3  UNL     1      23.151  -0.900  54.531  1.00  0.00     0.194 C 
HETATM    4  O1  UNL     1      22.284  -1.383  55.339  1.00  0.00    -0.286 OA
HETATM    5  C4  UNL     1      24.344  -0.568  53.777  1.00  0.00     0.053 C 
HETATM    6  C5  UNL     1      25.237  -0.040  52.946  1.00  0.00    -0.014 C 
HETATM    7  C6  UNL     1      24.367   0.951  52.345  1.00  0.00     0.057 C 
HETATM    8  C7  UNL     1      24.095   1.935  51.508  1.00  0.00     0.102 C 
HETATM    9  C15 UNL     1      22.747   2.483  51.570  1.00  0.00     0.069 C 
HETATM   10  C16 UNL     1      21.834   2.046  52.653  1.00  0.00     0.111 C 
HETATM   11  C17 UNL     1      20.453   2.608  52.308  1.00  0.00     0.193 C 
HETATM   12  O3  UNL     1      19.568   1.553  52.217  1.00  0.00    -0.388 OA
HETATM   13  C18 UNL     1      20.014   0.669  51.250  1.00  0.00     0.187 C 
HETATM   14  C19 UNL     1      21.339   0.046  51.664  1.00  0.00     0.149 C 
HETATM   15  N1  UNL     1      21.769   0.642  52.947  1.00  0.00    -0.372 N 
ENDROOT
BRANCH   8  16
HETATM   16  O2  UNL     1      24.664   2.757  50.473  1.00  0.00    -0.372 OA
BRANCH  16  17
HETATM   17  C8  UNL     1      24.620   4.158  50.599  1.00  0.00     0.207 C 
BRANCH  17  18
HETATM   18  C9  UNL     1      25.738   4.721  49.799  1.00  0.00    -0.035 A 
HETATM   19  C10 UNL     1      26.853   4.068  49.330  1.00  0.00     0.009 A 
HETATM   20  C11 UNL     1      27.790   4.766  48.603  1.00  0.00     0.001 A 
HETATM   21  C12 UNL     1      27.678   6.109  48.307  1.00  0.00     0.000 A 
HETATM   22  C13 UNL     1      26.541   6.781  48.784  1.00  0.00     0.001 A 
HETATM   23  C14 UNL     1      25.615   6.061  49.512  1.00  0.00     0.009 A 
ENDBRANCH  17  18
ENDBRANCH  16  17
ENDBRANCH   8  16
TORSDOF 3
ENDMDL
MODEL 3
REMARK VINA RESULT:      -8.4      3.416      5.883
REMARK  3 active torsions:
REMARK  status: ('A' for Active; 'I' for Inactive)
REMARK    1  A    between atoms: C7_8  and  O2_9 
REMARK    2  A    between atoms: O2_9  and  C8_10 
REMARK    3  A    between atoms: C8_10  and  C9_11 
ROOT
HETATM    1  C1  UNL     1      19.330   0.366  52.344  1.00  0.00     0.067 C 
HETATM    2  C2  UNL     1      20.358  -0.215  52.999  1.00  0.00     0.058 C 
HETATM    3  C3  UNL     1      20.868  -1.204  53.876  1.00  0.00     0.194 C 
HETATM    4  O1  UNL     1      19.634  -1.538  53.832  1.00  0.00    -0.286 OA
HETATM    5  C4  UNL     1      22.293  -1.099  54.129  1.00  0.00     0.053 C 
HETATM    6  C5  UNL     1      23.567  -0.725  54.184  1.00  0.00    -0.014 C 
HETATM    7  C6  UNL     1      23.433   0.500  53.420  1.00  0.00     0.057 C 
HETATM    8  C7  UNL     1      23.898   1.595  52.850  1.00  0.00     0.102 C 
HETATM    9  C15 UNL     1      22.920   2.445  52.185  1.00  0.00     0.069 C 
HETATM   10  C16 UNL     1      21.476   2.140  52.329  1.00  0.00     0.111 C 
HETATM   11  C17 UNL     1      20.741   3.049  51.342  1.00  0.00     0.193 C 
HETATM   12  O3  UNL     1      20.012   2.253  50.481  1.00  0.00    -0.388 OA
HETATM   13  C18 UNL     1      20.872   1.384  49.830  1.00  0.00     0.187 C 
HETATM   14  C19 UNL     1      21.512   0.423  50.821  1.00  0.00     0.149 C 
HETATM   15  N1  UNL     1      21.064   0.772  52.186  1.00  0.00    -0.372 N 
ENDROOT
BRANCH   8  16
HETATM   16  O2  UNL     1      25.100   2.351  52.618  1.00  0.00    -0.372 OA
BRANCH  16  17
HETATM   17  C8  UNL     1      26.038   1.888  51.677  1.00  0.00     0.207 C 
BRANCH  17  18
HETATM   18  C9  UNL     1      26.960   0.955  52.376  1.00  0.00    -0.035 A 
HETATM   19  C10 UNL     1      26.939  -0.420  52.364  1.00  0.00     0.009 A 
HETATM   20  C11 UNL     1      27.882  -1.117  53.083  1.00  0.00     0.001 A 
HETATM   21  C12 UNL     1      28.871  -0.511  53.830  1.00  0.00     0.000 A 
HETATM   22  C13 UNL     1      28.897   0.893  53.846  1.00  0.00     0.001 A 
HETATM   23  C14 UNL     1      27.940   1.572  53.118  1.00  0.00     0.009 A 
ENDBRANCH  17  18
ENDBRANCH  16  17
ENDBRANCH   8  16
TORSDOF 3
ENDMDL
MODEL 4
REMARK VINA RESULT:      -8.4      2.476      6.749
REMARK  3 active torsions:
REMARK  status: ('A' for Active; 'I' for Inactive)
REMARK    1  A    between atoms: C7_8  and  O2_9 
REMARK    2  A    between atoms: O2_9  and  C8_10 
REMARK    3  A    between atoms: C8_10  and  C9_11 
ROOT
HETATM    1  C1  UNL     1      27.880   1.823  52.755  1.00  0.00     0.067 C 
HETATM    2  C2  UNL     1      26.770   2.062  52.024  1.00  0.00     0.058 C 
HETATM    3  C3  UNL     1      26.075   2.790  51.026  1.00  0.00     0.194 C 
HETATM    4  O1  UNL     1      27.230   3.337  50.960  1.00  0.00    -0.286 OA
HETATM    5  C4  UNL     1      24.694   2.386  50.845  1.00  0.00     0.053 C 
HETATM    6  C5  UNL     1      23.493   1.824  50.942  1.00  0.00    -0.014 C 
HETATM    7  C6  UNL     1      23.769   0.996  52.099  1.00  0.00     0.057 C 
HETATM    8  C7  UNL     1      23.452   0.105  53.019  1.00  0.00     0.102 C 
HETATM    9  C15 UNL     1      24.482  -0.210  53.999  1.00  0.00     0.069 C 
HETATM   10  C16 UNL     1      25.730   0.589  54.022  1.00  0.00     0.111 C 
HETATM   11  C17 UNL     1      26.684  -0.126  54.982  1.00  0.00     0.193 C 
HETATM   12  O3  UNL     1      27.836  -0.442  54.291  1.00  0.00    -0.388 OA
HETATM   13  C18 UNL     1      27.511  -1.241  53.208  1.00  0.00     0.187 C 
HETATM   14  C19 UNL     1      26.647  -0.473  52.218  1.00  0.00     0.149 C 
HETATM   15  N1  UNL     1      26.367   0.871  52.766  1.00  0.00    -0.372 N 
ENDROOT
BRANCH   8  16
HETATM   16  O2  UNL     1      22.386  -0.746  53.479  1.00  0.00    -0.372 OA
BRANCH  16  17
HETATM   17  C8  UNL     1      21.297  -0.181  54.168  1.00  0.00     0.207 C 
BRANCH  17  18
HETATM   18  C9  UNL     1      20.098  -0.300  53.298  1.00  0.00    -0.035 A 
HETATM   19  C10 UNL     1      18.971  -1.057  53.513  1.00  0.00     0.009 A 
HETATM   20  C11 UNL     1      17.956  -1.041  52.584  1.00  0.00     0.001 A 
HETATM   21  C12 UNL     1      17.999  -0.294  51.424  1.00  0.00     0.000 A 
HETATM   22  C13 UNL     1      19.148   0.482  51.200  1.00  0.00     0.001 A 
HETATM   23  C14 UNL     1      20.153   0.449  52.145  1.00  0.00     0.009 A 
ENDBRANCH  17  18
ENDBRANCH  16  17
ENDBRANCH   8  16
TORSDOF 3
ENDMDL
MODEL 5
REMARK VINA RESULT:      -8.2      3.020      7.724
REMARK  3 active torsions:
REMARK  status: ('A' for Active; 'I' for Inactive)
REMARK    1  A    between atoms: C7_8  and  O2_9 
REMARK    2  A    between atoms: O2_9  and  C8_10 
REMARK    3  A    between atoms: C8_10  and  C9_11 
ROOT
HETATM    1  C1  UNL     1      24.502   7.958  48.128  1.00  0.00     0.067 C 
HETATM    2  C2  UNL     1      25.779   7.536  48.011  1.00  0.00     0.058 C 
HETATM    3  C3  UNL     1      27.095   7.690  47.507  1.00  0.00     0.194 C 
HETATM    4  O1  UNL     1      26.540   8.752  47.057  1.00  0.00    -0.286 OA
HETATM    5  C4  UNL     1      28.001   6.616  47.865  1.00  0.00     0.053 C 
HETATM    6  C5  UNL     1      28.556   5.497  48.320  1.00  0.00    -0.014 C 
HETATM    7  C6  UNL     1      27.351   4.898  48.859  1.00  0.00     0.057 C 
HETATM    8  C7  UNL     1      26.678   3.950  49.483  1.00  0.00     0.102 C 
HETATM    9  C15 UNL     1      25.242   4.151  49.610  1.00  0.00     0.069 C 
HETATM   10  C16 UNL     1      24.602   5.284  48.900  1.00  0.00     0.111 C 
HETATM   11  C17 UNL     1      23.163   5.361  49.415  1.00  0.00     0.193 C 
HETATM   12  O3  UNL     1      22.962   6.617  49.952  1.00  0.00    -0.388 OA
HETATM   13  C18 UNL     1      23.878   6.827  50.968  1.00  0.00     0.187 C 
HETATM   14  C19 UNL     1      25.295   6.850  50.414  1.00  0.00     0.149 C 
HETATM   15  N1  UNL     1      25.248   6.565  48.964  1.00  0.00    -0.372 N 
ENDROOT
BRANCH   8  16
HETATM   16  O2  UNL     1      26.822   2.676  50.137  1.00  0.00    -0.372 OA
BRANCH  16  17
HETATM   17  C8  UNL     1      26.138   2.436  51.343  1.00  0.00     0.207 C 
BRANCH  17  18
HETATM   18  C9  UNL     1      26.956   1.494  52.150  1.00  0.00    -0.035 A 
HETATM   19  C10 UNL     1      28.016   1.788  52.973  1.00  0.00     0.009 A 
HETATM   20  C11 UNL     1      28.657   0.770  53.642  1.00  0.00     0.001 A 
HETATM   21  C12 UNL     1      28.293  -0.557  53.537  1.00  0.00     0.000 A 
HETATM   22  C13 UNL     1      27.211  -0.863  52.696  1.00  0.00     0.001 A 
HETATM   23  C14 UNL     1      26.584   0.174  52.035  1.00  0.00     0.009 A 
ENDBRANCH  17  18
ENDBRANCH  16  17
ENDBRANCH   8  16
TORSDOF 3
ENDMDL
MODEL 6
REMARK VINA RESULT:      -8.1      2.288      6.878
REMARK  3 active torsions:
REMARK  status: ('A' for Active; 'I' for Inactive)
REMARK    1  A    between atoms: C7_8  and  O2_9 
REMARK    2  A    between atoms: O2_9  and  C8_10 
REMARK    3  A    between atoms: C8_10  and  C9_11 
ROOT
HETATM    1  C1  UNL     1      23.843   5.291  48.880  1.00  0.00     0.067 C 
HETATM    2  C2  UNL     1      24.899   4.618  49.386  1.00  0.00     0.058 C 
HETATM    3  C3  UNL     1      26.293   4.384  49.475  1.00  0.00     0.194 C 
HETATM    4  O1  UNL     1      26.269   5.381  48.672  1.00  0.00    -0.286 OA
HETATM    5  C4  UNL     1      26.660   3.285  50.348  1.00  0.00     0.053 C 
HETATM    6  C5  UNL     1      26.668   2.236  51.164  1.00  0.00    -0.014 C 
HETATM    7  C6  UNL     1      25.234   2.037  51.223  1.00  0.00     0.057 C 
HETATM    8  C7  UNL     1      24.140   1.427  51.639  1.00  0.00     0.102 C 
HETATM    9  C15 UNL     1      22.879   1.924  51.107  1.00  0.00     0.069 C 
HETATM   10  C16 UNL     1      22.896   2.937  50.025  1.00  0.00     0.111 C 
HETATM   11  C17 UNL     1      21.452   3.417  49.858  1.00  0.00     0.193 C 
HETATM   12  O3  UNL     1      21.424   4.782  50.055  1.00  0.00    -0.388 OA
HETATM   13  C18 UNL     1      21.912   5.068  51.319  1.00  0.00     0.187 C 
HETATM   14  C19 UNL     1      23.378   4.677  51.427  1.00  0.00     0.149 C 
HETATM   15  N1  UNL     1      23.801   4.044  50.160  1.00  0.00    -0.372 N 
ENDROOT
BRANCH   8  16
HETATM   16  O2  UNL     1      23.666   0.361  52.481  1.00  0.00    -0.372 OA
BRANCH  16  17
HETATM   17  C8  UNL     1      24.178   0.227  53.785  1.00  0.00     0.207 C 
BRANCH  17  18
HETATM   18  C9  UNL     1      25.612  -0.146  53.674  1.00  0.00    -0.035 A 
HETATM   19  C10 UNL     1      26.175  -1.101  52.861  1.00  0.00     0.009 A 
HETATM   20  C11 UNL     1      27.534  -1.307  52.901  1.00  0.00     0.001 A 
HETATM   21  C12 UNL     1      28.388  -0.599  53.722  1.00  0.00     0.000 A 
HETATM   22  C13 UNL     1      27.818   0.378  54.554  1.00  0.00     0.001 A 
HETATM   23  C14 UNL     1      26.452   0.567  54.498  1.00  0.00     0.009 A 
ENDBRANCH  17  18
ENDBRANCH  16  17
ENDBRANCH   8  16
TORSDOF 3
ENDMDL
MODEL 7
REMARK VINA RESULT:      -8.1      2.828      6.402
REMARK  3 active torsions:
REMARK  status: ('A' for Active; 'I' for Inactive)
REMARK    1  A    between atoms: C7_8  and  O2_9 
REMARK    2  A    between atoms: O2_9  and  C8_10 
REMARK    3  A    between atoms: C8_10  and  C9_11 
ROOT
HETATM    1  C1  UNL     1      21.296   2.920  49.462  1.00  0.00     0.067 C 
HETATM    2  C2  UNL     1      22.626   3.125  49.574  1.00  0.00     0.058 C 
HETATM    3  C3  UNL     1      23.840   3.675  49.094  1.00  0.00     0.194 C 
HETATM    4  O1  UNL     1      23.017   4.116  48.220  1.00  0.00    -0.286 OA
HETATM    5  C4  UNL     1      25.001   3.353  49.902  1.00  0.00     0.053 C 
HETATM    6  C5  UNL     1      25.848   2.868  50.804  1.00  0.00    -0.014 C 
HETATM    7  C6  UNL     1      24.904   2.022  51.508  1.00  0.00     0.057 C 
HETATM    8  C7  UNL     1      24.555   1.171  52.453  1.00  0.00     0.102 C 
HETATM    9  C15 UNL     1      23.171   0.717  52.437  1.00  0.00     0.069 C 
HETATM   10  C16 UNL     1      22.300   1.082  51.295  1.00  0.00     0.111 C 
HETATM   11  C17 UNL     1      20.879   0.666  51.684  1.00  0.00     0.193 C 
HETATM   12  O3  UNL     1      20.073   1.785  51.632  1.00  0.00    -0.388 OA
HETATM   13  C18 UNL     1      20.575   2.747  52.492  1.00  0.00     0.187 C 
HETATM   14  C19 UNL     1      21.945   3.218  52.026  1.00  0.00     0.149 C 
HETATM   15  N1  UNL     1      22.339   2.440  50.832  1.00  0.00    -0.372 N 
ENDROOT
BRANCH   8  16
HETATM   16  O2  UNL     1      25.055   0.442  53.589  1.00  0.00    -0.372 OA
BRANCH  16  17
HETATM   17  C8  UNL     1      25.728  -0.777  53.389  1.00  0.00     0.207 C 
BRANCH  17  18
HETATM   18  C9  UNL     1      27.186  -0.519  53.522  1.00  0.00    -0.035 A 
HETATM   19  C10 UNL     1      27.803   0.622  53.977  1.00  0.00     0.009 A 
HETATM   20  C11 UNL     1      29.176   0.675  54.025  1.00  0.00     0.001 A 
HETATM   21  C12 UNL     1      29.992  -0.368  53.639  1.00  0.00     0.000 A 
HETATM   22  C13 UNL     1      29.367  -1.536  53.173  1.00  0.00     0.001 A 
HETATM   23  C14 UNL     1      27.987  -1.566  53.133  1.00  0.00     0.009 A 
ENDBRANCH  17  18
ENDBRANCH  16  17
ENDBRANCH   8  16
TORSDOF 3
ENDMDL
MODEL 8
REMARK VINA RESULT:      -7.9      2.756      7.527
REMARK  3 active torsions:
REMARK  status: ('A' for Active; 'I' for Inactive)
REMARK    1  A    between atoms: C7_8  and  O2_9 
REMARK    2  A    between atoms: O2_9  and  C8_10 
REMARK    3  A    between atoms: C8_10  and  C9_11 
ROOT
HETATM    1  C1  UNL     1      26.437   2.836  51.388  1.00  0.00     0.067 C 
HETATM    2  C2  UNL     1      26.561   1.918  52.370  1.00  0.00     0.058 C 
HETATM    3  C3  UNL     1      27.356   1.162  53.268  1.00  0.00     0.194 C 
HETATM    4  O1  UNL     1      28.251   1.886  52.707  1.00  0.00    -0.286 OA
HETATM    5  C4  UNL     1      26.608   0.224  54.082  1.00  0.00     0.053 C 
HETATM    6  C5  UNL     1      25.671  -0.537  54.638  1.00  0.00    -0.014 C 
HETATM    7  C6  UNL     1      24.569  -0.119  53.795  1.00  0.00     0.057 C 
HETATM    8  C7  UNL     1      23.309  -0.127  53.405  1.00  0.00     0.102 C 
HETATM    9  C15 UNL     1      22.979   0.713  52.262  1.00  0.00     0.069 C 
HETATM   10  C16 UNL     1      24.070   1.375  51.508  1.00  0.00     0.111 C 
HETATM   11  C17 UNL     1      23.397   2.351  50.540  1.00  0.00     0.193 C 
HETATM   12  O3  UNL     1      23.880   3.618  50.799  1.00  0.00    -0.388 OA
HETATM   13  C18 UNL     1      23.614   3.944  52.118  1.00  0.00     0.187 C 
HETATM   14  C19 UNL     1      24.375   3.024  53.061  1.00  0.00     0.149 C 
HETATM   15  N1  UNL     1      25.109   2.019  52.262  1.00  0.00    -0.372 N 
ENDROOT
BRANCH   8  16
HETATM   16  O2  UNL     1      22.020  -0.702  53.687  1.00  0.00    -0.372 OA
BRANCH  16  17
HETATM   17  C8  UNL     1      20.969   0.130  54.115  1.00  0.00     0.207 C 
BRANCH  17  18
HETATM   18  C9  UNL     1      19.722  -0.335  53.455  1.00  0.00    -0.035 A 
HETATM   19  C10 UNL     1      18.911  -1.382  53.825  1.00  0.00     0.009 A 
HETATM   20  C11 UNL     1      17.789  -1.665  53.081  1.00  0.00     0.001 A 
HETATM   21  C12 UNL     1      17.418  -0.948  51.962  1.00  0.00     0.000 A 
HETATM   22  C13 UNL     1      18.243   0.121  51.579  1.00  0.00     0.001 A 
HETATM   23  C14 UNL     1      19.363   0.387  52.340  1.00  0.00     0.009 A 
ENDBRANCH  17  18
ENDBRANCH  16  17
ENDBRANCH   8  16
TORSDOF 3
ENDMDL
MODEL 9
REMARK VINA RESULT:      -7.9      2.680      6.800
REMARK  3 active torsions:
REMARK  status: ('A' for Active; 'I' for Inactive)
REMARK    1  A    between atoms: C7_8  and  O2_9 
REMARK    2  A    between atoms: O2_9  and  C8_10 
REMARK    3  A    between atoms: C8_10  and  C9_11 
ROOT
HETATM    1  C1  UNL     1      22.269   5.761  49.419  1.00  0.00     0.067 C 
HETATM    2  C2  UNL     1      23.564   5.902  49.063  1.00  0.00     0.058 C 
HETATM    3  C3  UNL     1      24.581   6.535  48.307  1.00  0.00     0.194 C 
HETATM    4  O1  UNL     1      23.556   7.213  47.945  1.00  0.00    -0.286 OA
HETATM    5  C4  UNL     1      25.906   5.984  48.509  1.00  0.00     0.053 C 
HETATM    6  C5  UNL     1      26.957   5.257  48.875  1.00  0.00    -0.014 C 
HETATM    7  C6  UNL     1      26.236   4.272  49.657  1.00  0.00     0.057 C 
HETATM    8  C7  UNL     1      26.151   3.204  50.427  1.00  0.00     0.102 C 
HETATM    9  C15 UNL     1      24.811   2.799  50.829  1.00  0.00     0.069 C 
HETATM   10  C16 UNL     1      23.637   3.476  50.228  1.00  0.00     0.111 C 
HETATM   11  C17 UNL     1      22.414   3.000  51.014  1.00  0.00     0.193 C 
HETATM   12  O3  UNL     1      21.784   4.108  51.545  1.00  0.00    -0.388 OA
HETATM   13  C18 UNL     1      22.675   4.791  52.355  1.00  0.00     0.187 C 
HETATM   14  C19 UNL     1      23.830   5.343  51.533  1.00  0.00     0.149 C 
HETATM   15  N1  UNL     1      23.670   4.909  50.129  1.00  0.00    -0.372 N 
ENDROOT
BRANCH   8  16
HETATM   16  O2  UNL     1      26.936   2.186  51.075  1.00  0.00    -0.372 OA
BRANCH  16  17
HETATM   17  C8  UNL     1      26.686   1.873  52.424  1.00  0.00     0.207 C 
BRANCH  17  18
HETATM   18  C9  UNL     1      27.577   0.745  52.801  1.00  0.00    -0.035 A 
HETATM   19  C10 UNL     1      27.327  -0.602  52.690  1.00  0.00     0.009 A 
HETATM   20  C11 UNL     1      28.282  -1.504  53.099  1.00  0.00     0.001 A 
HETATM   21  C12 UNL     1      29.503  -1.134  53.624  1.00  0.00     0.000 A 
HETATM   22  C13 UNL     1      29.764   0.241  53.740  1.00  0.00     0.001 A 
HETATM   23  C14 UNL     1      28.791   1.128  53.324  1.00  0.00     0.009 A 
ENDBRANCH  17  18
ENDBRANCH  16  17
ENDBRANCH   8  16
TORSDOF 3
ENDMDL
