MODEL 1
REMARK VINA RESULT:      -7.9      0.000      0.000
REMARK  5 active torsions:
REMARK  status: ('A' for Active; 'I' for Inactive)
REMARK    1  A    between atoms: C7_8  and  C8_9 
REMARK    2  A    between atoms: C11_14  and  C12_15 
REMARK    3  A    between atoms: C13_16  and  N3_17 
REMARK       I    between atoms: N3_17  and  C14_18 
REMARK    4  A    between atoms: C14_18  and  C15_20 
REMARK    5  A    between atoms: C16_21  and  C17_22 
ROOT
HETATM    1  C8  UNL     1      23.570   2.699  51.890  1.00  0.00     0.052 A 
HETATM    2  N1  UNL     1      23.153   3.863  52.322  1.00  0.00    -0.245 NA
HETATM    3  C9  UNL     1      23.802   5.000  51.721  1.00  0.00     0.233 A 
HETATM    4  N2  UNL     1      24.744   4.951  50.808  1.00  0.00    -0.246 NA
HETATM    5  C10 UNL     1      25.152   3.657  50.380  1.00  0.00     0.041 A 
HETATM    6  C11 UNL     1      26.098   3.574  49.459  1.00  0.00     0.029 C 
HETATM    7  C18 UNL     1      24.608   2.367  50.879  1.00  0.00     0.119 A 
ENDROOT
BRANCH   6   8
HETATM    8  C12 UNL     1      26.645   4.820  48.954  1.00  0.00     0.019 C 
HETATM    9  C13 UNL     1      27.893   5.057  48.588  1.00  0.00     0.091 C 
BRANCH   9  10
HETATM   10  N3  UNL     1      28.521   6.229  48.087  1.00  0.00    -0.334 N 
HETATM   11  C14 UNL     1      29.913   6.155  47.771  1.00  0.00     0.244 C 
HETATM   12  O1  UNL     1      30.426   5.008  47.987  1.00  0.00    -0.268 OA
HETATM   13  H11 UNL     1      28.106   7.188  47.903  1.00  0.00     0.168 HD
BRANCH  11  14
HETATM   14  C15 UNL     1      30.788   7.198  47.249  1.00  0.00     0.075 C 
HETATM   15  C16 UNL     1      31.256   8.247  47.905  1.00  0.00     0.048 C 
BRANCH  15  16
HETATM   16  C17 UNL     1      30.916   8.477  49.325  1.00  0.00     0.376 C 
HETATM   17  F1  UNL     1      30.934   9.824  49.660  1.00  0.00    -0.210 F 
HETATM   18  F2  UNL     1      31.899   7.854  50.106  1.00  0.00    -0.210 F 
ENDBRANCH  15  16
ENDBRANCH  11  14
ENDBRANCH   9  10
ENDBRANCH   6   8
BRANCH   1  19
HETATM   19  C7  UNL     1      22.952   1.510  52.460  1.00  0.00    -0.004 A 
HETATM   20  C2  UNL     1      23.683   0.617  53.250  1.00  0.00    -0.050 A 
HETATM   21  C1  UNL     1      25.117   0.915  53.495  1.00  0.00     0.049 C 
HETATM   22  C3  UNL     1      23.007  -0.486  53.749  1.00  0.00     0.009 A 
HETATM   23  C4  UNL     1      21.696  -0.756  53.525  1.00  0.00     0.019 A 
HETATM   24  C5  UNL     1      20.949   0.112  52.744  1.00  0.00     0.011 A 
HETATM   25 BR1  UNL     1      19.096  -0.131  52.338  1.00  0.00    -0.051 Br
HETATM   26  C6  UNL     1      21.618   1.231  52.234  1.00  0.00     0.033 A 
ENDBRANCH   1  19
TORSDOF 5
ENDMDL
MODEL 2
REMARK VINA RESULT:      -7.8      2.265      3.026
REMARK  5 active torsions:
REMARK  status: ('A' for Active; 'I' for Inactive)
REMARK    1  A    between atoms: C7_8  and  C8_9 
REMARK    2  A    between atoms: C11_14  and  C12_15 
REMARK    3  A    between atoms: C13_16  and  N3_17 
REMARK       I    between atoms: N3_17  and  C14_18 
REMARK    4  A    between atoms: C14_18  and  C15_20 
REMARK    5  A    between atoms: C16_21  and  C17_22 
ROOT
HETATM    1  C8  UNL     1      24.026   3.583  50.348  1.00  0.00     0.052 A 
HETATM    2  N1  UNL     1      23.646   4.743  50.820  1.00  0.00    -0.245 NA
HETATM    3  C9  UNL     1      24.565   5.827  50.578  1.00  0.00     0.233 A 
HETATM    4  N2  UNL     1      25.710   5.732  49.943  1.00  0.00    -0.246 NA
HETATM    5  C10 UNL     1      26.066   4.444  49.455  1.00  0.00     0.041 A 
HETATM    6  C11 UNL     1      27.212   4.316  48.808  1.00  0.00     0.029 C 
HETATM    7  C18 UNL     1      25.257   3.206  49.605  1.00  0.00     0.119 A 
ENDROOT
BRANCH   6   8
HETATM    8  C12 UNL     1      28.021   5.512  48.647  1.00  0.00     0.019 C 
HETATM    9  C13 UNL     1      29.314   5.574  48.383  1.00  0.00     0.091 C 
BRANCH   9  10
HETATM   10  N3  UNL     1      30.187   6.681  48.209  1.00  0.00    -0.334 N 
HETATM   11  C14 UNL     1      31.395   6.703  48.972  1.00  0.00     0.244 C 
HETATM   12  O1  UNL     1      31.537   5.691  49.736  1.00  0.00    -0.268 OA
HETATM   13  H11 UNL     1      30.082   7.529  47.578  1.00  0.00     0.168 HD
BRANCH  11  14
HETATM   14  C15 UNL     1      32.451   7.709  48.983  1.00  0.00     0.075 C 
HETATM   15  C16 UNL     1      33.668   7.591  48.479  1.00  0.00     0.048 C 
BRANCH  15  16
HETATM   16  C17 UNL     1      34.104   6.346  47.811  1.00  0.00     0.376 C 
HETATM   17  F1  UNL     1      35.421   6.023  48.106  1.00  0.00    -0.210 F 
HETATM   18  F2  UNL     1      34.040   6.559  46.428  1.00  0.00    -0.210 F 
ENDBRANCH  15  16
ENDBRANCH  11  14
ENDBRANCH   9  10
ENDBRANCH   6   8
BRANCH   1  19
HETATM   19  C7  UNL     1      23.139   2.448  50.561  1.00  0.00    -0.004 A 
HETATM   20  C2  UNL     1      22.231   2.039  49.579  1.00  0.00    -0.050 A 
HETATM   21  C1  UNL     1      22.194   2.798  48.303  1.00  0.00     0.049 C 
HETATM   22  C3  UNL     1      21.429   0.947  49.874  1.00  0.00     0.009 A 
HETATM   23  C4  UNL     1      21.464   0.253  51.040  1.00  0.00     0.019 A 
HETATM   24  C5  UNL     1      22.355   0.639  52.031  1.00  0.00     0.011 A 
HETATM   25 BR1  UNL     1      22.523  -0.235  53.723  1.00  0.00    -0.051 Br
HETATM   26  C6  UNL     1      23.172   1.739  51.747  1.00  0.00     0.033 A 
ENDBRANCH   1  19
TORSDOF 5
ENDMDL
MODEL 3
REMARK VINA RESULT:      -7.7      1.319      1.838
REMARK  5 active torsions:
REMARK  status: ('A' for Active; 'I' for Inactive)
REMARK    1  A    between atoms: C7_8  and  C8_9 
REMARK    2  A    between atoms: C11_14  and  C12_15 
REMARK    3  A    between atoms: C13_16  and  N3_17 
REMARK       I    between atoms: N3_17  and  C14_18 
REMARK    4  A    between atoms: C14_18  and  C15_20 
REMARK    5  A    between atoms: C16_21  and  C17_22 
ROOT
HETATM    1  C8  UNL     1      23.740   2.504  51.718  1.00  0.00     0.052 A 
HETATM    2  N1  UNL     1      23.198   3.646  52.059  1.00  0.00    -0.245 NA
HETATM    3  C9  UNL     1      23.805   4.808  51.461  1.00  0.00     0.233 A 
HETATM    4  N2  UNL     1      24.823   4.800  50.632  1.00  0.00    -0.246 NA
HETATM    5  C10 UNL     1      25.367   3.527  50.301  1.00  0.00     0.041 A 
HETATM    6  C11 UNL     1      26.392   3.484  49.466  1.00  0.00     0.029 C 
HETATM    7  C18 UNL     1      24.884   2.218  50.814  1.00  0.00     0.119 A 
ENDROOT
BRANCH   6   8
HETATM    8  C12 UNL     1      26.881   4.750  48.949  1.00  0.00     0.019 C 
HETATM    9  C13 UNL     1      28.105   5.026  48.534  1.00  0.00     0.091 C 
BRANCH   9  10
HETATM   10  N3  UNL     1      28.677   6.219  48.018  1.00  0.00    -0.334 N 
HETATM   11  C14 UNL     1      30.090   6.241  47.802  1.00  0.00     0.244 C 
HETATM   12  O1  UNL     1      30.672   5.149  48.111  1.00  0.00    -0.268 OA
HETATM   13  H11 UNL     1      28.205   7.134  47.757  1.00  0.00     0.168 HD
BRANCH  11  14
HETATM   14  C15 UNL     1      30.919   7.325  47.288  1.00  0.00     0.075 C 
HETATM   15  C16 UNL     1      31.305   8.410  47.939  1.00  0.00     0.048 C 
BRANCH  15  16
HETATM   16  C17 UNL     1      30.907   8.643  49.344  1.00  0.00     0.376 C 
HETATM   17  F1  UNL     1      30.600   9.973  49.590  1.00  0.00    -0.210 F 
HETATM   18  F2  UNL     1      32.004   8.324  50.156  1.00  0.00    -0.210 F 
ENDBRANCH  15  16
ENDBRANCH  11  14
ENDBRANCH   9  10
ENDBRANCH   6   8
BRANCH   1  19
HETATM   19  C7  UNL     1      23.170   1.293  52.291  1.00  0.00    -0.004 A 
HETATM   20  C2  UNL     1      22.006   0.719  51.770  1.00  0.00    -0.050 A 
HETATM   21  C1  UNL     1      21.360   1.383  50.608  1.00  0.00     0.049 C 
HETATM   22  C3  UNL     1      21.540  -0.434  52.381  1.00  0.00     0.009 A 
HETATM   23  C4  UNL     1      22.132  -1.041  53.442  1.00  0.00     0.019 A 
HETATM   24  C5  UNL     1      23.287  -0.492  53.978  1.00  0.00     0.011 A 
HETATM   25 BR1  UNL     1      24.234  -1.226  55.468  1.00  0.00    -0.051 Br
HETATM   26  C6  UNL     1      23.769   0.673  53.370  1.00  0.00     0.033 A 
ENDBRANCH   1  19
TORSDOF 5
ENDMDL
MODEL 4
REMARK VINA RESULT:      -7.6      2.625      3.263
REMARK  5 active torsions:
REMARK  status: ('A' for Active; 'I' for Inactive)
REMARK    1  A    between atoms: C7_8  and  C8_9 
REMARK    2  A    between atoms: C11_14  and  C12_15 
REMARK    3  A    between atoms: C13_16  and  N3_17 
REMARK       I    between atoms: N3_17  and  C14_18 
REMARK    4  A    between atoms: C14_18  and  C15_20 
REMARK    5  A    between atoms: C16_21  and  C17_22 
ROOT
HETATM    1  C8  UNL     1      24.515   3.594  51.468  1.00  0.00     0.052 A 
HETATM    2  N1  UNL     1      23.745   4.571  51.874  1.00  0.00    -0.245 NA
HETATM    3  C9  UNL     1      23.984   5.839  51.232  1.00  0.00     0.233 A 
HETATM    4  N2  UNL     1      24.885   6.071  50.306  1.00  0.00    -0.246 NA
HETATM    5  C10 UNL     1      25.690   4.967  49.907  1.00  0.00     0.041 A 
HETATM    6  C11 UNL     1      26.605   5.167  48.974  1.00  0.00     0.029 C 
HETATM    7  C18 UNL     1      25.598   3.586  50.450  1.00  0.00     0.119 A 
ENDROOT
BRANCH   6   8
HETATM    8  C12 UNL     1      26.713   6.508  48.425  1.00  0.00     0.019 C 
HETATM    9  C13 UNL     1      27.752   7.321  48.497  1.00  0.00     0.091 C 
BRANCH   9  10
HETATM   10  N3  UNL     1      27.954   8.636  48.000  1.00  0.00    -0.334 N 
HETATM   11  C14 UNL     1      28.039   9.701  48.950  1.00  0.00     0.244 C 
HETATM   12  O1  UNL     1      27.919   9.318  50.161  1.00  0.00    -0.268 OA
HETATM   13  H11 UNL     1      28.056   8.969  46.997  1.00  0.00     0.168 HD
BRANCH  11  14
HETATM   14  C15 UNL     1      28.241  11.125  48.710  1.00  0.00     0.075 C 
HETATM   15  C16 UNL     1      29.396  11.761  48.617  1.00  0.00     0.048 C 
BRANCH  15  16
HETATM   16  C17 UNL     1      30.681  11.041  48.756  1.00  0.00     0.376 C 
HETATM   17  F1  UNL     1      30.945  10.685  50.071  1.00  0.00    -0.210 F 
HETATM   18  F2  UNL     1      31.704  11.913  48.360  1.00  0.00    -0.210 F 
ENDBRANCH  15  16
ENDBRANCH  11  14
ENDBRANCH   9  10
ENDBRANCH   6   8
BRANCH   1  19
HETATM   19  C7  UNL     1      24.322   2.287  52.080  1.00  0.00    -0.004 A 
HETATM   20  C2  UNL     1      23.233   1.477  51.739  1.00  0.00    -0.050 A 
HETATM   21  C1  UNL     1      22.271   1.990  50.730  1.00  0.00     0.049 C 
HETATM   22  C3  UNL     1      23.134   0.249  52.375  1.00  0.00     0.009 A 
HETATM   23  C4  UNL     1      24.015  -0.218  53.296  1.00  0.00     0.019 A 
HETATM   24  C5  UNL     1      25.103   0.565  53.652  1.00  0.00     0.011 A 
HETATM   25 BR1  UNL     1      26.426   0.048  54.931  1.00  0.00    -0.051 Br
HETATM   26  C6  UNL     1      25.215   1.808  53.018  1.00  0.00     0.033 A 
ENDBRANCH   1  19
TORSDOF 5
ENDMDL
MODEL 5
REMARK VINA RESULT:      -7.5      8.824     12.640
REMARK  5 active torsions:
REMARK  status: ('A' for Active; 'I' for Inactive)
REMARK    1  A    between atoms: C7_8  and  C8_9 
REMARK    2  A    between atoms: C11_14  and  C12_15 
REMARK    3  A    between atoms: C13_16  and  N3_17 
REMARK       I    between atoms: N3_17  and  C14_18 
REMARK    4  A    between atoms: C14_18  and  C15_20 
REMARK    5  A    between atoms: C16_21  and  C17_22 
ROOT
HETATM    1  C8  UNL     1      23.433   0.572  52.521  1.00  0.00     0.052 A 
HETATM    2  N1  UNL     1      23.001   1.058  51.384  1.00  0.00    -0.245 NA
HETATM    3  C9  UNL     1      21.617   0.781  51.093  1.00  0.00     0.233 A 
HETATM    4  N2  UNL     1      20.795   0.102  51.857  1.00  0.00    -0.246 NA
HETATM    5  C10 UNL     1      21.325  -0.400  53.078  1.00  0.00     0.041 A 
HETATM    6  C11 UNL     1      20.520  -1.087  53.872  1.00  0.00     0.029 C 
HETATM    7  C18 UNL     1      22.721  -0.223  53.555  1.00  0.00     0.119 A 
ENDROOT
BRANCH   6   8
HETATM    8  C12 UNL     1      19.150  -1.273  53.430  1.00  0.00     0.019 C 
HETATM    9  C13 UNL     1      18.280  -2.165  53.870  1.00  0.00     0.091 C 
BRANCH   9  10
HETATM   10  N3  UNL     1      16.932  -2.425  53.506  1.00  0.00    -0.334 N 
HETATM   11  C14 UNL     1      16.585  -3.765  53.150  1.00  0.00     0.244 C 
HETATM   12  O1  UNL     1      17.564  -4.580  53.210  1.00  0.00    -0.268 OA
HETATM   13  H11 UNL     1      16.108  -1.757  53.452  1.00  0.00     0.168 HD
BRANCH  11  14
HETATM   14  C15 UNL     1      15.289  -4.296  52.743  1.00  0.00     0.075 C 
HETATM   15  C16 UNL     1      14.436  -4.977  53.490  1.00  0.00     0.048 C 
BRANCH  15  16
HETATM   16  C17 UNL     1      14.735  -5.285  54.905  1.00  0.00     0.376 C 
HETATM   17  F1  UNL     1      14.740  -6.650  55.157  1.00  0.00    -0.210 F 
HETATM   18  F2  UNL     1      13.710  -4.734  55.687  1.00  0.00    -0.210 F 
ENDBRANCH  15  16
ENDBRANCH  11  14
ENDBRANCH   9  10
ENDBRANCH   6   8
BRANCH   1  19
HETATM   19  C7  UNL     1      24.824   0.819  52.872  1.00  0.00    -0.004 A 
HETATM   20  C2  UNL     1      25.266   2.092  53.246  1.00  0.00    -0.050 A 
HETATM   21  C1  UNL     1      24.272   3.195  53.274  1.00  0.00     0.049 C 
HETATM   22  C3  UNL     1      26.609   2.229  53.563  1.00  0.00     0.009 A 
HETATM   23  C4  UNL     1      27.516   1.219  53.537  1.00  0.00     0.019 A 
HETATM   24  C5  UNL     1      27.105  -0.053  53.169  1.00  0.00     0.011 A 
HETATM   25 BR1  UNL     1      28.260  -1.573  53.084  1.00  0.00    -0.051 Br
HETATM   26  C6  UNL     1      25.751  -0.205  52.847  1.00  0.00     0.033 A 
ENDBRANCH   1  19
TORSDOF 5
ENDMDL
MODEL 6
REMARK VINA RESULT:      -7.4      8.145     11.330
REMARK  5 active torsions:
REMARK  status: ('A' for Active; 'I' for Inactive)
REMARK    1  A    between atoms: C7_8  and  C8_9 
REMARK    2  A    between atoms: C11_14  and  C12_15 
REMARK    3  A    between atoms: C13_16  and  N3_17 
REMARK       I    between atoms: N3_17  and  C14_18 
REMARK    4  A    between atoms: C14_18  and  C15_20 
REMARK    5  A    between atoms: C16_21  and  C17_22 
ROOT
HETATM    1  C8  UNL     1      21.410   1.187  52.599  1.00  0.00     0.052 A 
HETATM    2  N1  UNL     1      21.304   2.492  52.618  1.00  0.00    -0.245 NA
HETATM    3  C9  UNL     1      20.020   3.002  52.207  1.00  0.00     0.233 A 
HETATM    4  N2  UNL     1      18.992   2.277  51.831  1.00  0.00    -0.246 NA
HETATM    5  C10 UNL     1      19.171   0.866  51.833  1.00  0.00     0.041 A 
HETATM    6  C11 UNL     1      18.153   0.107  51.462  1.00  0.00     0.029 C 
HETATM    7  C18 UNL     1      20.415   0.150  52.219  1.00  0.00     0.119 A 
ENDROOT
BRANCH   6   8
HETATM    8  C12 UNL     1      16.925   0.782  51.082  1.00  0.00     0.019 C 
HETATM    9  C13 UNL     1      15.867   1.008  51.840  1.00  0.00     0.091 C 
BRANCH   9  10
HETATM   10  N3  UNL     1      14.631   1.651  51.565  1.00  0.00    -0.334 N 
HETATM   11  C14 UNL     1      14.545   3.058  51.801  1.00  0.00     0.244 C 
HETATM   12  O1  UNL     1      15.627   3.570  52.241  1.00  0.00    -0.268 OA
HETATM   13  H11 UNL     1      13.724   1.238  51.198  1.00  0.00     0.168 HD
BRANCH  11  14
HETATM   14  C15 UNL     1      13.409   3.950  51.604  1.00  0.00     0.075 C 
HETATM   15  C16 UNL     1      12.608   4.437  52.537  1.00  0.00     0.048 C 
BRANCH  15  16
HETATM   16  C17 UNL     1      12.802   4.103  53.964  1.00  0.00     0.376 C 
HETATM   17  F1  UNL     1      11.739   4.521  54.752  1.00  0.00    -0.210 F 
HETATM   18  F2  UNL     1      13.934   4.794  54.414  1.00  0.00    -0.210 F 
ENDBRANCH  15  16
ENDBRANCH  11  14
ENDBRANCH   9  10
ENDBRANCH   6   8
BRANCH   1  19
HETATM   19  C7  UNL     1      22.684   0.611  53.004  1.00  0.00    -0.004 A 
HETATM   20  C2  UNL     1      22.764  -0.323  54.042  1.00  0.00    -0.050 A 
HETATM   21  C1  UNL     1      21.506  -0.714  54.727  1.00  0.00     0.049 C 
HETATM   22  C3  UNL     1      24.022  -0.816  54.354  1.00  0.00     0.009 A 
HETATM   23  C4  UNL     1      25.171  -0.458  53.726  1.00  0.00     0.019 A 
HETATM   24  C5  UNL     1      25.119   0.466  52.694  1.00  0.00     0.011 A 
HETATM   25 BR1  UNL     1      26.647   1.070  51.716  1.00  0.00    -0.051 Br
HETATM   26  C6  UNL     1      23.856   0.972  52.368  1.00  0.00     0.033 A 
ENDBRANCH   1  19
TORSDOF 5
ENDMDL
MODEL 7
REMARK VINA RESULT:      -7.3      5.352     10.249
REMARK  5 active torsions:
REMARK  status: ('A' for Active; 'I' for Inactive)
REMARK    1  A    between atoms: C7_8  and  C8_9 
REMARK    2  A    between atoms: C11_14  and  C12_15 
REMARK    3  A    between atoms: C13_16  and  N3_17 
REMARK       I    between atoms: N3_17  and  C14_18 
REMARK    4  A    between atoms: C14_18  and  C15_20 
REMARK    5  A    between atoms: C16_21  and  C17_22 
ROOT
HETATM    1  C8  UNL     1      28.197   9.206  48.502  1.00  0.00     0.052 A 
HETATM    2  N1  UNL     1      27.388   9.721  49.393  1.00  0.00    -0.245 NA
HETATM    3  C9  UNL     1      26.489   8.780  50.012  1.00  0.00     0.233 A 
HETATM    4  N2  UNL     1      26.429   7.494  49.754  1.00  0.00    -0.246 NA
HETATM    5  C10 UNL     1      27.335   6.996  48.777  1.00  0.00     0.041 A 
HETATM    6  C11 UNL     1      27.302   5.704  48.495  1.00  0.00     0.029 C 
HETATM    7  C18 UNL     1      28.334   7.804  48.028  1.00  0.00     0.119 A 
ENDROOT
BRANCH   6   8
HETATM    8  C12 UNL     1      26.336   4.892  49.215  1.00  0.00     0.019 C 
HETATM    9  C13 UNL     1      26.505   3.664  49.673  1.00  0.00     0.091 C 
BRANCH   9  10
HETATM   10  N3  UNL     1      25.632   2.794  50.379  1.00  0.00    -0.334 N 
HETATM   11  C14 UNL     1      26.107   2.224  51.601  1.00  0.00     0.244 C 
HETATM   12  O1  UNL     1      27.291   2.583  51.908  1.00  0.00    -0.268 OA
HETATM   13  H11 UNL     1      24.645   2.488  50.136  1.00  0.00     0.168 HD
BRANCH  11  14
HETATM   14  C15 UNL     1      25.422   1.311  52.509  1.00  0.00     0.075 C 
HETATM   15  C16 UNL     1      25.729   0.047  52.749  1.00  0.00     0.048 C 
BRANCH  15  16
HETATM   16  C17 UNL     1      26.873  -0.605  52.075  1.00  0.00     0.376 C 
HETATM   17  F1  UNL     1      26.724  -1.983  52.001  1.00  0.00    -0.210 F 
HETATM   18  F2  UNL     1      28.017  -0.363  52.846  1.00  0.00    -0.210 F 
ENDBRANCH  15  16
ENDBRANCH  11  14
ENDBRANCH   9  10
ENDBRANCH   6   8
BRANCH   1  19
HETATM   19  C7  UNL     1      29.131  10.107  47.841  1.00  0.00    -0.004 A 
HETATM   20  C2  UNL     1      30.400  10.359  48.372  1.00  0.00    -0.050 A 
HETATM   21  C1  UNL     1      30.774   9.679  49.639  1.00  0.00     0.049 C 
HETATM   22  C3  UNL     1      31.218  11.231  47.671  1.00  0.00     0.009 A 
HETATM   23  C4  UNL     1      30.875  11.852  46.513  1.00  0.00     0.019 A 
HETATM   24  C5  UNL     1      29.622  11.619  45.966  1.00  0.00     0.011 A 
HETATM   25 BR1  UNL     1      28.993  12.416  44.346  1.00  0.00    -0.051 Br
HETATM   26  C6  UNL     1      28.785  10.740  46.663  1.00  0.00     0.033 A 
ENDBRANCH   1  19
TORSDOF 5
ENDMDL
MODEL 8
REMARK VINA RESULT:      -7.3      8.355     12.126
REMARK  5 active torsions:
REMARK  status: ('A' for Active; 'I' for Inactive)
REMARK    1  A    between atoms: C7_8  and  C8_9 
REMARK    2  A    between atoms: C11_14  and  C12_15 
REMARK    3  A    between atoms: C13_16  and  N3_17 
REMARK       I    between atoms: N3_17  and  C14_18 
REMARK    4  A    between atoms: C14_18  and  C15_20 
REMARK    5  A    between atoms: C16_21  and  C17_22 
ROOT
HETATM    1  C8  UNL     1      23.036   0.704  52.372  1.00  0.00     0.052 A 
HETATM    2  N1  UNL     1      22.623   1.144  51.210  1.00  0.00    -0.245 NA
HETATM    3  C9  UNL     1      21.239   0.868  50.915  1.00  0.00     0.233 A 
HETATM    4  N2  UNL     1      20.401   0.231  51.698  1.00  0.00    -0.246 NA
HETATM    5  C10 UNL     1      20.912  -0.222  52.947  1.00  0.00     0.041 A 
HETATM    6  C11 UNL     1      20.091  -0.866  53.760  1.00  0.00     0.029 C 
HETATM    7  C18 UNL     1      22.304  -0.038  53.432  1.00  0.00     0.119 A 
ENDROOT
BRANCH   6   8
HETATM    8  C12 UNL     1      18.724  -1.057  53.310  1.00  0.00     0.019 C 
HETATM    9  C13 UNL     1      17.950  -2.106  53.524  1.00  0.00     0.091 C 
BRANCH   9  10
HETATM   10  N3  UNL     1      16.614  -2.387  53.129  1.00  0.00    -0.334 N 
HETATM   11  C14 UNL     1      16.215  -3.758  53.060  1.00  0.00     0.244 C 
HETATM   12  O1  UNL     1      17.140  -4.577  53.372  1.00  0.00    -0.268 OA
HETATM   13  H11 UNL     1      15.834  -1.716  52.867  1.00  0.00     0.168 HD
BRANCH  11  14
HETATM   14  C15 UNL     1      14.919  -4.314  52.688  1.00  0.00     0.075 C 
HETATM   15  C16 UNL     1      14.212  -4.032  51.606  1.00  0.00     0.048 C 
BRANCH  15  16
HETATM   16  C17 UNL     1      14.702  -3.063  50.602  1.00  0.00     0.376 C 
HETATM   17  F1  UNL     1      13.779  -2.059  50.346  1.00  0.00    -0.210 F 
HETATM   18  F2  UNL     1      14.891  -3.754  49.398  1.00  0.00    -0.210 F 
ENDBRANCH  15  16
ENDBRANCH  11  14
ENDBRANCH   9  10
ENDBRANCH   6   8
BRANCH   1  19
HETATM   19  C7  UNL     1      24.426   0.952  52.729  1.00  0.00    -0.004 A 
HETATM   20  C2  UNL     1      24.872   2.232  53.072  1.00  0.00    -0.050 A 
HETATM   21  C1  UNL     1      23.884   3.342  53.061  1.00  0.00     0.049 C 
HETATM   22  C3  UNL     1      26.213   2.370  53.397  1.00  0.00     0.009 A 
HETATM   23  C4  UNL     1      27.114   1.355  53.406  1.00  0.00     0.019 A 
HETATM   24  C5  UNL     1      26.698   0.076  53.070  1.00  0.00     0.011 A 
HETATM   25 BR1  UNL     1      27.845  -1.453  53.036  1.00  0.00    -0.051 Br
HETATM   26  C6  UNL     1      25.347  -0.078  52.739  1.00  0.00     0.033 A 
ENDBRANCH   1  19
TORSDOF 5
ENDMDL
MODEL 9
REMARK VINA RESULT:      -7.2      5.591      7.091
REMARK  5 active torsions:
REMARK  status: ('A' for Active; 'I' for Inactive)
REMARK    1  A    between atoms: C7_8  and  C8_9 
REMARK    2  A    between atoms: C11_14  and  C12_15 
REMARK    3  A    between atoms: C13_16  and  N3_17 
REMARK       I    between atoms: N3_17  and  C14_18 
REMARK    4  A    between atoms: C14_18  and  C15_20 
REMARK    5  A    between atoms: C16_21  and  C17_22 
ROOT
HETATM    1  C8  UNL     1      19.233   0.968  51.342  1.00  0.00     0.052 A 
HETATM    2  N1  UNL     1      19.609   0.914  50.089  1.00  0.00    -0.245 NA
HETATM    3  C9  UNL     1      21.033   0.829  49.886  1.00  0.00     0.233 A 
HETATM    4  N2  UNL     1      21.942   0.803  50.833  1.00  0.00    -0.246 NA
HETATM    5  C10 UNL     1      21.469   0.865  52.173  1.00  0.00     0.041 A 
HETATM    6  C11 UNL     1      22.359   0.839  53.151  1.00  0.00     0.029 C 
HETATM    7  C18 UNL     1      20.044   0.958  52.587  1.00  0.00     0.119 A 
ENDROOT
BRANCH   6   8
HETATM    8  C12 UNL     1      23.759   0.746  52.773  1.00  0.00     0.019 C 
HETATM    9  C13 UNL     1      24.643   1.727  52.729  1.00  0.00     0.091 C 
BRANCH   9  10
HETATM   10  N3  UNL     1      26.019   1.739  52.375  1.00  0.00    -0.334 N 
HETATM   11  C14 UNL     1      26.968   2.019  53.406  1.00  0.00     0.244 C 
HETATM   12  O1  UNL     1      26.439   2.227  54.547  1.00  0.00    -0.268 OA
HETATM   13  H11 UNL     1      26.473   1.568  51.431  1.00  0.00     0.168 HD
BRANCH  11  14
HETATM   14  C15 UNL     1      28.422   2.091  53.314  1.00  0.00     0.075 C 
HETATM   15  C16 UNL     1      29.285   1.118  53.555  1.00  0.00     0.048 C 
BRANCH  15  16
HETATM   16  C17 UNL     1      28.828  -0.226  53.967  1.00  0.00     0.376 C 
HETATM   17  F1  UNL     1      28.378  -0.250  55.280  1.00  0.00    -0.210 F 
HETATM   18  F2  UNL     1      29.929  -1.090  53.902  1.00  0.00    -0.210 F 
ENDBRANCH  15  16
ENDBRANCH  11  14
ENDBRANCH   9  10
ENDBRANCH   6   8
BRANCH   1  19
HETATM   19  C7  UNL     1      17.805   1.056  51.612  1.00  0.00    -0.004 A 
HETATM   20  C2  UNL     1      17.111  -0.001  52.211  1.00  0.00    -0.050 A 
HETATM   21  C1  UNL     1      17.875  -1.225  52.567  1.00  0.00     0.049 C 
HETATM   22  C3  UNL     1      15.754   0.176  52.429  1.00  0.00     0.009 A 
HETATM   23  C4  UNL     1      15.057   1.295  52.104  1.00  0.00     0.019 A 
HETATM   24  C5  UNL     1      15.721   2.357  51.508  1.00  0.00     0.011 A 
HETATM   25 BR1  UNL     1      14.882   3.995  50.993  1.00  0.00    -0.051 Br
HETATM   26  C6  UNL     1      17.093   2.192  51.283  1.00  0.00     0.033 A 
ENDBRANCH   1  19
TORSDOF 5
ENDMDL
