MODEL 1
REMARK VINA RESULT:      -9.3      0.000      0.000
REMARK  1 active torsions:
REMARK  status: ('A' for Active; 'I' for Inactive)
REMARK    1  A    between atoms: C9_12  and  N3_13 
ROOT
HETATM    1  C1  UNL     1      20.560   1.914  48.283  1.00  0.00     0.143 C 
HETATM    2  N1  UNL     1      21.006   1.597  49.589  1.00  0.00    -0.411 N 
HETATM    3  C2  UNL     1      20.161   1.888  50.634  1.00  0.00     0.124 C 
HETATM    4  C3  UNL     1      18.858   1.173  50.771  1.00  0.00     0.045 C 
HETATM    5  C4  UNL     1      18.322   0.260  51.629  1.00  0.00     0.192 A 
HETATM    6  C5  UNL     1      18.717  -0.506  52.830  1.00  0.00     0.216 A 
HETATM    7  O1  UNL     1      19.621   0.118  52.279  1.00  0.00    -0.343 OA
HETATM    8  N2  UNL     1      19.727  -0.904  53.722  1.00  0.00    -0.344 N 
HETATM    9  C6  UNL     1      21.191  -0.617  53.646  1.00  0.00     0.084 A 
HETATM   10  C7  UNL     1      22.483  -1.114  53.713  1.00  0.00     0.155 A 
HETATM   11  C8  UNL     1      23.922  -0.716  53.615  1.00  0.00     0.028 C 
HETATM   12  C9  UNL     1      24.179   0.570  53.379  1.00  0.00     0.033 C 
HETATM   13  C15 UNL     1      23.731   1.946  53.258  1.00  0.00     0.206 C 
HETATM   14  N4  UNL     1      23.791   2.397  51.839  1.00  0.00    -0.286 NA
HETATM   15  C16 UNL     1      22.887   1.698  51.130  1.00  0.00     0.057 C 
HETATM   16  C17 UNL     1      22.217   0.786  52.098  1.00  0.00     0.096 C 
HETATM   17  N5  UNL     1      22.045   0.428  53.308  1.00  0.00    -0.231 NA
HETATM   18  C18 UNL     1      22.425   1.747  49.689  1.00  0.00     0.176 C 
HETATM   19  H8  UNL     1      20.186  -1.314  54.499  1.00  0.00     0.163 HD
ENDROOT
BRANCH  12  20
HETATM   20  N3  UNL     1      25.629   0.461  53.353  1.00  0.00    -0.332 N 
HETATM   21  C10 UNL     1      26.080  -0.836  52.974  1.00  0.00     0.112 A 
HETATM   22  C11 UNL     1      27.354  -1.145  52.929  1.00  0.00     0.035 A 
HETATM   23  C12 UNL     1      28.229  -0.187  53.159  1.00  0.00     0.152 A 
HETATM   24  F1  UNL     1      29.533  -0.500  53.014  1.00  0.00    -0.203 F 
HETATM   25  C13 UNL     1      27.827   1.159  53.553  1.00  0.00     0.089 A 
HETATM   26 CL1  UNL     1      29.002   2.415  53.917  1.00  0.00    -0.080 Cl
HETATM   27  C14 UNL     1      26.553   1.494  53.653  1.00  0.00     0.123 A 
ENDBRANCH  12  20
TORSDOF 1
ENDMDL
MODEL 2
REMARK VINA RESULT:      -8.5      3.326      4.281
REMARK  1 active torsions:
REMARK  status: ('A' for Active; 'I' for Inactive)
REMARK    1  A    between atoms: C9_12  and  N3_13 
ROOT
HETATM    1  C1  UNL     1      18.619   0.238  50.883  1.00  0.00     0.143 C 
HETATM    2  N1  UNL     1      19.853   0.648  51.443  1.00  0.00    -0.411 N 
HETATM    3  C2  UNL     1      19.979   0.583  52.811  1.00  0.00     0.124 C 
HETATM    4  C3  UNL     1      19.958  -0.737  53.507  1.00  0.00     0.045 C 
HETATM    5  C4  UNL     1      20.858  -1.508  54.180  1.00  0.00     0.192 A 
HETATM    6  C5  UNL     1      22.286  -1.481  54.560  1.00  0.00     0.216 A 
HETATM    7  O1  UNL     1      21.926  -0.594  53.789  1.00  0.00    -0.343 OA
HETATM    8  N2  UNL     1      23.547  -0.871  54.446  1.00  0.00    -0.344 N 
HETATM    9  C6  UNL     1      23.947   0.264  53.562  1.00  0.00     0.084 A 
HETATM   10  C7  UNL     1      24.860   0.768  52.648  1.00  0.00     0.155 A 
HETATM   11  C8  UNL     1      25.164   1.960  51.798  1.00  0.00     0.028 C 
HETATM   12  C9  UNL     1      24.311   2.981  51.860  1.00  0.00     0.033 C 
HETATM   13  C15 UNL     1      23.170   3.639  52.473  1.00  0.00     0.206 C 
HETATM   14  N4  UNL     1      21.997   3.623  51.556  1.00  0.00    -0.286 NA
HETATM   15  C16 UNL     1      21.592   2.351  51.400  1.00  0.00     0.057 C 
HETATM   16  C17 UNL     1      22.504   1.521  52.236  1.00  0.00     0.096 C 
HETATM   17  N5  UNL     1      23.437   1.474  53.103  1.00  0.00    -0.231 NA
HETATM   18  C18 UNL     1      20.434   1.703  50.671  1.00  0.00     0.176 C 
HETATM   19  H8  UNL     1      24.505  -0.659  54.590  1.00  0.00     0.163 HD
ENDROOT
BRANCH  12  20
HETATM   20  N3  UNL     1      24.987   3.840  50.899  1.00  0.00    -0.332 N 
HETATM   21  C10 UNL     1      26.066   3.186  50.238  1.00  0.00     0.112 A 
HETATM   22  C11 UNL     1      26.824   3.805  49.364  1.00  0.00     0.035 A 
HETATM   23  C12 UNL     1      26.505   5.040  49.037  1.00  0.00     0.152 A 
HETATM   24  F1  UNL     1      27.236   5.627  48.067  1.00  0.00    -0.203 F 
HETATM   25  C13 UNL     1      25.412   5.761  49.682  1.00  0.00     0.089 A 
HETATM   26 CL1  UNL     1      25.030   7.430  49.283  1.00  0.00    -0.080 Cl
HETATM   27  C14 UNL     1      24.656   5.185  50.600  1.00  0.00     0.123 A 
ENDBRANCH  12  20
TORSDOF 1
ENDMDL
MODEL 3
REMARK VINA RESULT:      -8.5      4.465      6.482
REMARK  1 active torsions:
REMARK  status: ('A' for Active; 'I' for Inactive)
REMARK    1  A    between atoms: C9_12  and  N3_13 
ROOT
HETATM    1  C1  UNL     1      27.826   0.174  54.195  1.00  0.00     0.143 C 
HETATM    2  N1  UNL     1      26.907   0.847  53.355  1.00  0.00    -0.411 N 
HETATM    3  C2  UNL     1      25.923   0.093  52.761  1.00  0.00     0.124 C 
HETATM    4  C3  UNL     1      24.872  -0.564  53.592  1.00  0.00     0.045 C 
HETATM    5  C4  UNL     1      23.533  -0.407  53.788  1.00  0.00     0.192 A 
HETATM    6  C5  UNL     1      22.433   0.466  53.326  1.00  0.00     0.216 A 
HETATM    7  O1  UNL     1      23.561   0.805  52.976  1.00  0.00    -0.343 OA
HETATM    8  N2  UNL     1      22.024   1.608  52.617  1.00  0.00    -0.344 N 
HETATM    9  C6  UNL     1      22.878   2.643  51.962  1.00  0.00     0.084 A 
HETATM   10  C7  UNL     1      23.144   3.990  51.775  1.00  0.00     0.155 A 
HETATM   11  C8  UNL     1      24.062   4.940  51.073  1.00  0.00     0.028 C 
HETATM   12  C9  UNL     1      25.018   4.408  50.314  1.00  0.00     0.033 C 
HETATM   13  C15 UNL     1      25.627   3.256  49.671  1.00  0.00     0.206 C 
HETATM   14  N4  UNL     1      26.922   2.912  50.322  1.00  0.00    -0.286 NA
HETATM   15  C16 UNL     1      26.673   2.490  51.574  1.00  0.00     0.057 C 
HETATM   16  C17 UNL     1      25.194   2.547  51.743  1.00  0.00     0.096 C 
HETATM   17  N5  UNL     1      24.049   2.726  51.215  1.00  0.00    -0.231 NA
HETATM   18  C18 UNL     1      27.543   1.940  52.685  1.00  0.00     0.176 C 
HETATM   19  H8  UNL     1      21.447   2.292  52.190  1.00  0.00     0.163 HD
ENDROOT
BRANCH  12  20
HETATM   20  N3  UNL     1      25.624   5.658  49.884  1.00  0.00    -0.332 N 
HETATM   21  C10 UNL     1      25.133   6.786  50.603  1.00  0.00     0.112 A 
HETATM   22  C11 UNL     1      25.528   8.008  50.335  1.00  0.00     0.035 A 
HETATM   23  C12 UNL     1      26.474   8.166  49.432  1.00  0.00     0.152 A 
HETATM   24  F1  UNL     1      26.935   9.419  49.239  1.00  0.00    -0.203 F 
HETATM   25  C13 UNL     1      27.013   7.049  48.663  1.00  0.00     0.089 A 
HETATM   26 CL1  UNL     1      28.232   7.276  47.416  1.00  0.00    -0.080 Cl
HETATM   27  C14 UNL     1      26.606   5.810  48.873  1.00  0.00     0.123 A 
ENDBRANCH  12  20
TORSDOF 1
ENDMDL
MODEL 4
REMARK VINA RESULT:      -8.4      4.424      6.320
REMARK  1 active torsions:
REMARK  status: ('A' for Active; 'I' for Inactive)
REMARK    1  A    between atoms: C9_12  and  N3_13 
ROOT
HETATM    1  C1  UNL     1      22.313   7.823  50.538  1.00  0.00     0.143 C 
HETATM    2  N1  UNL     1      22.945   6.563  50.405  1.00  0.00    -0.411 N 
HETATM    3  C2  UNL     1      23.526   6.272  49.193  1.00  0.00     0.124 C 
HETATM    4  C3  UNL     1      24.704   7.053  48.715  1.00  0.00     0.045 C 
HETATM    5  C4  UNL     1      26.030   6.809  48.514  1.00  0.00     0.192 A 
HETATM    6  C5  UNL     1      26.995   5.700  48.668  1.00  0.00     0.216 A 
HETATM    7  O1  UNL     1      25.878   5.498  49.136  1.00  0.00    -0.343 OA
HETATM    8  N2  UNL     1      27.273   4.407  49.142  1.00  0.00    -0.344 N 
HETATM    9  C6  UNL     1      26.393   3.513  49.953  1.00  0.00     0.084 A 
HETATM   10  C7  UNL     1      26.271   2.684  51.057  1.00  0.00     0.155 A 
HETATM   11  C8  UNL     1      25.304   1.813  51.795  1.00  0.00     0.028 C 
HETATM   12  C9  UNL     1      24.070   1.723  51.299  1.00  0.00     0.033 C 
HETATM   13  C15 UNL     1      23.113   1.986  50.239  1.00  0.00     0.206 C 
HETATM   14  N4  UNL     1      22.112   3.000  50.672  1.00  0.00    -0.286 NA
HETATM   15  C16 UNL     1      22.740   4.177  50.839  1.00  0.00     0.057 C 
HETATM   16  C17 UNL     1      24.170   3.934  50.500  1.00  0.00     0.096 C 
HETATM   17  N5  UNL     1      25.055   3.144  50.036  1.00  0.00    -0.231 NA
HETATM   18  C18 UNL     1      22.270   5.574  51.187  1.00  0.00     0.176 C 
HETATM   19  H8  UNL     1      27.743   3.553  49.322  1.00  0.00     0.163 HD
ENDROOT
BRANCH  12  20
HETATM   20  N3  UNL     1      23.532   0.833  52.316  1.00  0.00    -0.332 N 
HETATM   21  C10 UNL     1      24.540   0.287  53.162  1.00  0.00     0.112 A 
HETATM   22  C11 UNL     1      24.260  -0.569  54.116  1.00  0.00     0.035 A 
HETATM   23  C12 UNL     1      22.992  -0.851  54.338  1.00  0.00     0.152 A 
HETATM   24  F1  UNL     1      22.717  -1.658  55.384  1.00  0.00    -0.203 F 
HETATM   25  C13 UNL     1      21.918  -0.324  53.503  1.00  0.00     0.089 A 
HETATM   26 CL1  UNL     1      20.233  -0.753  53.769  1.00  0.00    -0.080 Cl
HETATM   27  C14 UNL     1      22.166   0.505  52.505  1.00  0.00     0.123 A 
ENDBRANCH  12  20
TORSDOF 1
ENDMDL
MODEL 5
REMARK VINA RESULT:      -8.2      3.775      5.717
REMARK  1 active torsions:
REMARK  status: ('A' for Active; 'I' for Inactive)
REMARK    1  A    between atoms: C9_12  and  N3_13 
ROOT
HETATM    1  C1  UNL     1      19.261  -0.551  53.208  1.00  0.00     0.143 C 
HETATM    2  N1  UNL     1      20.489   0.152  53.158  1.00  0.00    -0.411 N 
HETATM    3  C2  UNL     1      21.209   0.251  54.325  1.00  0.00     0.124 C 
HETATM    4  C3  UNL     1      21.790  -0.969  54.957  1.00  0.00     0.045 C 
HETATM    5  C4  UNL     1      23.041  -1.473  55.157  1.00  0.00     0.192 A 
HETATM    6  C5  UNL     1      24.445  -1.121  54.858  1.00  0.00     0.216 A 
HETATM    7  O1  UNL     1      23.596  -0.407  54.330  1.00  0.00    -0.343 OA
HETATM    8  N2  UNL     1      25.358  -0.286  54.193  1.00  0.00    -0.344 N 
HETATM    9  C6  UNL     1      25.067   0.812  53.223  1.00  0.00     0.084 A 
HETATM   10  C7  UNL     1      25.352   1.395  51.998  1.00  0.00     0.155 A 
HETATM   11  C8  UNL     1      24.979   2.532  51.101  1.00  0.00     0.028 C 
HETATM   12  C9  UNL     1      24.033   3.362  51.538  1.00  0.00     0.033 C 
HETATM   13  C15 UNL     1      23.158   3.836  52.596  1.00  0.00     0.206 C 
HETATM   14  N4  UNL     1      21.739   3.493  52.300  1.00  0.00    -0.286 NA
HETATM   15  C16 UNL     1      21.604   2.156  52.342  1.00  0.00     0.057 C 
HETATM   16  C17 UNL     1      22.950   1.614  52.682  1.00  0.00     0.096 C 
HETATM   17  N5  UNL     1      24.151   1.843  53.041  1.00  0.00    -0.231 NA
HETATM   18  C18 UNL     1      20.422   1.219  52.207  1.00  0.00     0.176 C 
HETATM   19  H8  UNL     1      26.208   0.127  53.894  1.00  0.00     0.163 HD
ENDROOT
BRANCH  12  20
HETATM   20  N3  UNL     1      24.011   4.238  50.377  1.00  0.00    -0.332 N 
HETATM   21  C10 UNL     1      24.970   5.287  50.458  1.00  0.00     0.112 A 
HETATM   22  C11 UNL     1      25.080   6.205  49.526  1.00  0.00     0.035 A 
HETATM   23  C12 UNL     1      24.331   6.081  48.449  1.00  0.00     0.152 A 
HETATM   24  F1  UNL     1      24.525   6.978  47.460  1.00  0.00    -0.203 F 
HETATM   25  C13 UNL     1      23.330   5.028  48.311  1.00  0.00     0.089 A 
HETATM   26 CL1  UNL     1      22.293   4.905  46.897  1.00  0.00    -0.080 Cl
HETATM   27  C14 UNL     1      23.160   4.114  49.249  1.00  0.00     0.123 A 
ENDBRANCH  12  20
TORSDOF 1
ENDMDL
MODEL 6
REMARK VINA RESULT:      -8.1      4.013      6.113
REMARK  1 active torsions:
REMARK  status: ('A' for Active; 'I' for Inactive)
REMARK    1  A    between atoms: C9_12  and  N3_13 
ROOT
HETATM    1  C1  UNL     1      26.410   0.243  54.781  1.00  0.00     0.143 C 
HETATM    2  N1  UNL     1      25.382   0.753  53.952  1.00  0.00    -0.411 N 
HETATM    3  C2  UNL     1      24.482  -0.148  53.434  1.00  0.00     0.124 C 
HETATM    4  C3  UNL     1      23.556  -0.893  54.337  1.00  0.00     0.045 C 
HETATM    5  C4  UNL     1      22.216  -0.898  54.583  1.00  0.00     0.192 A 
HETATM    6  C5  UNL     1      20.996  -0.195  54.131  1.00  0.00     0.216 A 
HETATM    7  O1  UNL     1      22.057   0.266  53.719  1.00  0.00    -0.343 OA
HETATM    8  N2  UNL     1      20.417   0.849  53.391  1.00  0.00    -0.344 N 
HETATM    9  C6  UNL     1      21.106   1.952  52.656  1.00  0.00     0.084 A 
HETATM   10  C7  UNL     1      21.189   3.311  52.399  1.00  0.00     0.155 A 
HETATM   11  C8  UNL     1      21.950   4.335  51.618  1.00  0.00     0.028 C 
HETATM   12  C9  UNL     1      22.938   3.893  50.843  1.00  0.00     0.033 C 
HETATM   13  C15 UNL     1      23.666   2.798  50.225  1.00  0.00     0.206 C 
HETATM   14  N4  UNL     1      25.018   2.653  50.834  1.00  0.00    -0.286 NA
HETATM   15  C16 UNL     1      24.872   2.264  52.113  1.00  0.00     0.057 C 
HETATM   16  C17 UNL     1      23.405   2.140  52.343  1.00  0.00     0.096 C 
HETATM   17  N5  UNL     1      22.228   2.146  51.857  1.00  0.00    -0.231 NA
HETATM   18  C18 UNL     1      25.846   1.884  53.208  1.00  0.00     0.176 C 
HETATM   19  H8  UNL     1      19.742   1.433  52.960  1.00  0.00     0.163 HD
ENDROOT
BRANCH  12  20
HETATM   20  N3  UNL     1      23.362   5.188  50.334  1.00  0.00    -0.332 N 
HETATM   21  C10 UNL     1      23.786   6.075  51.365  1.00  0.00     0.112 A 
HETATM   22  C11 UNL     1      24.168   7.304  51.113  1.00  0.00     0.035 A 
HETATM   23  C12 UNL     1      24.239   7.681  49.852  1.00  0.00     0.152 A 
HETATM   24  F1  UNL     1      24.725   8.915  49.606  1.00  0.00    -0.203 F 
HETATM   25  C13 UNL     1      23.816   6.816  48.755  1.00  0.00     0.089 A 
HETATM   26 CL1  UNL     1      23.856   7.348  47.079  1.00  0.00    -0.080 Cl
HETATM   27  C14 UNL     1      23.382   5.588  48.974  1.00  0.00     0.123 A 
ENDBRANCH  12  20
TORSDOF 1
ENDMDL
MODEL 7
REMARK VINA RESULT:      -7.9      3.387      4.269
REMARK  1 active torsions:
REMARK  status: ('A' for Active; 'I' for Inactive)
REMARK    1  A    between atoms: C9_12  and  N3_13 
ROOT
HETATM    1  C1  UNL     1      16.719  -0.094  49.661  1.00  0.00     0.143 C 
HETATM    2  N1  UNL     1      17.780   0.299  50.512  1.00  0.00    -0.411 N 
HETATM    3  C2  UNL     1      17.560   0.235  51.868  1.00  0.00     0.124 C 
HETATM    4  C3  UNL     1      17.348  -1.082  52.536  1.00  0.00     0.045 C 
HETATM    5  C4  UNL     1      18.041  -1.864  53.410  1.00  0.00     0.192 A 
HETATM    6  C5  UNL     1      19.330  -1.856  54.134  1.00  0.00     0.216 A 
HETATM    7  O1  UNL     1      19.186  -0.966  53.299  1.00  0.00    -0.343 OA
HETATM    8  N2  UNL     1      20.588  -1.264  54.338  1.00  0.00    -0.344 N 
HETATM    9  C6  UNL     1      21.212  -0.137  53.583  1.00  0.00     0.084 A 
HETATM   10  C7  UNL     1      22.330   0.352  52.926  1.00  0.00     0.155 A 
HETATM   11  C8  UNL     1      22.854   1.538  52.179  1.00  0.00     0.028 C 
HETATM   12  C9  UNL     1      22.026   2.571  52.028  1.00  0.00     0.033 C 
HETATM   13  C15 UNL     1      20.778   3.246  52.339  1.00  0.00     0.206 C 
HETATM   14  N4  UNL     1      19.870   3.244  51.158  1.00  0.00    -0.286 NA
HETATM   15  C16 UNL     1      19.499   1.977  50.905  1.00  0.00     0.057 C 
HETATM   16  C17 UNL     1      20.162   1.137  51.941  1.00  0.00     0.096 C 
HETATM   17  N5  UNL     1      20.849   1.079  53.013  1.00  0.00    -0.231 NA
HETATM   18  C18 UNL     1      18.549   1.344  49.910  1.00  0.00     0.176 C 
HETATM   19  H8  UNL     1      21.483  -1.066  54.717  1.00  0.00     0.163 HD
ENDROOT
BRANCH  12  20
HETATM   20  N3  UNL     1      22.932   3.417  51.267  1.00  0.00    -0.332 N 
HETATM   21  C10 UNL     1      23.485   2.755  50.133  1.00  0.00     0.112 A 
HETATM   22  C11 UNL     1      24.354   3.337  49.342  1.00  0.00     0.035 A 
HETATM   23  C12 UNL     1      24.644   4.602  49.570  1.00  0.00     0.152 A 
HETATM   24  F1  UNL     1      25.466   5.212  48.691  1.00  0.00    -0.203 F 
HETATM   25  C13 UNL     1      24.111   5.330  50.717  1.00  0.00     0.089 A 
HETATM   26 CL1  UNL     1      24.550   7.001  51.049  1.00  0.00    -0.080 Cl
HETATM   27  C14 UNL     1      23.268   4.762  51.561  1.00  0.00     0.123 A 
ENDBRANCH  12  20
TORSDOF 1
ENDMDL
MODEL 8
REMARK VINA RESULT:      -7.8      4.336      6.185
REMARK  1 active torsions:
REMARK  status: ('A' for Active; 'I' for Inactive)
REMARK    1  A    between atoms: C9_12  and  N3_13 
ROOT
HETATM    1  C1  UNL     1      20.966   5.638  46.693  1.00  0.00     0.143 C 
HETATM    2  N1  UNL     1      21.722   5.257  47.829  1.00  0.00    -0.411 N 
HETATM    3  C2  UNL     1      23.005   5.740  47.926  1.00  0.00     0.124 C 
HETATM    4  C3  UNL     1      23.248   7.202  48.100  1.00  0.00     0.045 C 
HETATM    5  C4  UNL     1      23.713   8.010  49.095  1.00  0.00     0.192 A 
HETATM    6  C5  UNL     1      24.193   7.899  50.488  1.00  0.00     0.216 A 
HETATM    7  O1  UNL     1      23.714   6.874  50.010  1.00  0.00    -0.343 OA
HETATM    8  N2  UNL     1      24.375   7.109  51.636  1.00  0.00    -0.344 N 
HETATM    9  C6  UNL     1      23.926   5.704  51.871  1.00  0.00     0.084 A 
HETATM   10  C7  UNL     1      23.291   4.806  52.714  1.00  0.00     0.155 A 
HETATM   11  C8  UNL     1      22.885   3.372  52.844  1.00  0.00     0.028 C 
HETATM   12  C9  UNL     1      23.197   2.561  51.835  1.00  0.00     0.033 C 
HETATM   13  C15 UNL     1      23.895   2.309  50.586  1.00  0.00     0.206 C 
HETATM   14  N4  UNL     1      22.930   2.199  49.456  1.00  0.00    -0.286 NA
HETATM   15  C16 UNL     1      22.352   3.398  49.268  1.00  0.00     0.057 C 
HETATM   16  C17 UNL     1      22.954   4.311  50.280  1.00  0.00     0.096 C 
HETATM   17  N5  UNL     1      23.832   4.499  51.183  1.00  0.00    -0.231 NA
HETATM   18  C18 UNL     1      21.368   3.936  48.251  1.00  0.00     0.176 C 
HETATM   19  H8  UNL     1      24.653   6.819  52.543  1.00  0.00     0.163 HD
ENDROOT
BRANCH  12  20
HETATM   20  N3  UNL     1      22.610   1.351  52.388  1.00  0.00    -0.332 N 
HETATM   21  C10 UNL     1      23.582   0.468  52.940  1.00  0.00     0.112 A 
HETATM   22  C11 UNL     1      23.256  -0.695  53.452  1.00  0.00     0.035 A 
HETATM   23  C12 UNL     1      21.976  -0.997  53.529  1.00  0.00     0.152 A 
HETATM   24  F1  UNL     1      21.653  -2.153  54.146  1.00  0.00    -0.203 F 
HETATM   25  C13 UNL     1      20.936  -0.133  52.980  1.00  0.00     0.089 A 
HETATM   26 CL1  UNL     1      19.234  -0.570  53.033  1.00  0.00    -0.080 Cl
HETATM   27  C14 UNL     1      21.231   1.025  52.415  1.00  0.00     0.123 A 
ENDBRANCH  12  20
TORSDOF 1
ENDMDL
MODEL 9
REMARK VINA RESULT:      -7.7     10.077     11.907
REMARK  1 active torsions:
REMARK  status: ('A' for Active; 'I' for Inactive)
REMARK    1  A    between atoms: C9_12  and  N3_13 
ROOT
HETATM    1  C1  UNL     1      30.468  12.227  46.914  1.00  0.00     0.143 C 
HETATM    2  N1  UNL     1      30.484  10.896  47.396  1.00  0.00    -0.411 N 
HETATM    3  C2  UNL     1      29.993  10.676  48.661  1.00  0.00     0.124 C 
HETATM    4  C3  UNL     1      28.547  10.897  48.958  1.00  0.00     0.045 C 
HETATM    5  C4  UNL     1      27.474  10.114  49.261  1.00  0.00     0.192 A 
HETATM    6  C5  UNL     1      27.154   8.682  49.439  1.00  0.00     0.216 A 
HETATM    7  O1  UNL     1      28.276   8.923  49.002  1.00  0.00    -0.343 OA
HETATM    8  N2  UNL     1      27.556   7.340  49.332  1.00  0.00    -0.344 N 
HETATM    9  C6  UNL     1      28.823   6.798  48.756  1.00  0.00     0.084 A 
HETATM   10  C7  UNL     1      29.421   5.881  47.906  1.00  0.00     0.155 A 
HETATM   11  C8  UNL     1      30.747   5.420  47.390  1.00  0.00     0.028 C 
HETATM   12  C9  UNL     1      31.827   6.050  47.849  1.00  0.00     0.033 C 
HETATM   13  C15 UNL     1      32.447   6.988  48.768  1.00  0.00     0.206 C 
HETATM   14  N4  UNL     1      32.898   8.211  48.049  1.00  0.00    -0.286 NA
HETATM   15  C16 UNL     1      31.815   8.868  47.599  1.00  0.00     0.057 C 
HETATM   16  C17 UNL     1      30.636   8.070  48.040  1.00  0.00     0.096 C 
HETATM   17  N5  UNL     1      30.180   7.099  48.726  1.00  0.00    -0.231 NA
HETATM   18  C18 UNL     1      31.613  10.185  46.879  1.00  0.00     0.176 C 
HETATM   19  H8  UNL     1      27.555   6.351  49.401  1.00  0.00     0.163 HD
ENDROOT
BRANCH  12  20
HETATM   20  N3  UNL     1      32.811   5.299  47.085  1.00  0.00    -0.332 N 
HETATM   21  C10 UNL     1      33.550   4.382  47.886  1.00  0.00     0.112 A 
HETATM   22  C11 UNL     1      34.512   3.641  47.389  1.00  0.00     0.035 A 
HETATM   23  C12 UNL     1      34.724   3.697  46.090  1.00  0.00     0.152 A 
HETATM   24  F1  UNL     1      35.650   2.857  45.583  1.00  0.00    -0.203 F 
HETATM   25  C13 UNL     1      34.000   4.618  45.220  1.00  0.00     0.089 A 
HETATM   26 CL1  UNL     1      34.330   4.729  43.497  1.00  0.00    -0.080 Cl
HETATM   27  C14 UNL     1      33.056   5.412  45.693  1.00  0.00     0.123 A 
ENDBRANCH  12  20
TORSDOF 1
ENDMDL
