MODEL 1
REMARK VINA RESULT:      -7.3      0.000      0.000
REMARK  4 active torsions:
REMARK  status: ('A' for Active; 'I' for Inactive)
REMARK    1  A    between atoms: C2_2  and  C3_3 
REMARK    2  A    between atoms: C4_4  and  O1_5 
REMARK    3  A    between atoms: N3_14  and  C11_15 
REMARK    4  A    between atoms: C11_15  and  C12_16 
ROOT
HETATM    1  C3  UNL     1      25.411   0.303  53.162  1.00  0.00     0.101 A 
HETATM    2  C4  UNL     1      25.086   1.276  52.078  1.00  0.00     0.056 A 
HETATM    3  C6  UNL     1      23.883   1.703  51.713  1.00  0.00     0.035 A 
HETATM    4  C7  UNL     1      22.700   1.205  52.409  1.00  0.00     0.036 A 
HETATM    5  C8  UNL     1      22.786   0.334  53.400  1.00  0.00     0.078 A 
HETATM    6  C9  UNL     1      24.126  -0.109  53.770  1.00  0.00     0.075 A 
HETATM    7  N1  UNL     1      24.257  -0.957  54.731  1.00  0.00    -0.242 NA
HETATM    8  C10 UNL     1      23.078  -1.432  55.400  1.00  0.00     0.255 A 
HETATM    9  N2  UNL     1      21.876  -1.072  55.111  1.00  0.00    -0.165 NA
HETATM   10  N3  UNL     1      21.641  -0.155  54.081  1.00  0.00    -0.266 N 
ENDROOT
BRANCH  10  11
HETATM   11  C11 UNL     1      20.361   0.325  53.664  1.00  0.00     0.164 C 
BRANCH  11  12
HETATM   12  C12 UNL     1      19.636  -0.642  52.760  1.00  0.00     0.051 A 
HETATM   13  C13 UNL     1      18.349  -1.113  53.273  1.00  0.00    -0.016 A 
HETATM   14  C14 UNL     1      17.399  -0.725  52.414  1.00  0.00     0.003 A 
HETATM   15  C15 UNL     1      17.960   0.011  51.297  1.00  0.00    -0.065 A 
HETATM   16  C16 UNL     1      17.209   0.595  50.150  1.00  0.00     0.048 C 
HETATM   17  C17 UNL     1      19.266   0.062  51.493  1.00  0.00    -0.010 A 
ENDBRANCH  11  12
ENDBRANCH  10  11
BRANCH   1  18
HETATM   18  C2  UNL     1      26.401   0.801  54.118  1.00  0.00     0.007 C 
HETATM   19  C1  UNL     1      27.551   0.254  54.494  1.00  0.00     0.006 C 
ENDBRANCH   1  18
BRANCH   2  20
HETATM   20  O1  UNL     1      26.313   1.639  51.534  1.00  0.00    -0.359 OA
HETATM   21  C5  UNL     1      26.544   2.782  50.755  1.00  0.00     0.209 C 
ENDBRANCH   2  20
TORSDOF 4
ENDMDL
MODEL 2
REMARK VINA RESULT:      -7.3      1.982      3.174
REMARK  4 active torsions:
REMARK  status: ('A' for Active; 'I' for Inactive)
REMARK    1  A    between atoms: C2_2  and  C3_3 
REMARK    2  A    between atoms: C4_4  and  O1_5 
REMARK    3  A    between atoms: N3_14  and  C11_15 
REMARK    4  A    between atoms: C11_15  and  C12_16 
ROOT
HETATM    1  C3  UNL     1      26.549   1.335  53.847  1.00  0.00     0.101 A 
HETATM    2  C4  UNL     1      26.655  -0.153  53.896  1.00  0.00     0.056 A 
HETATM    3  C6  UNL     1      25.717  -1.038  53.576  1.00  0.00     0.035 A 
HETATM    4  C7  UNL     1      24.414  -0.571  53.115  1.00  0.00     0.036 A 
HETATM    5  C8  UNL     1      24.130   0.716  53.005  1.00  0.00     0.078 A 
HETATM    6  C9  UNL     1      25.187   1.654  53.367  1.00  0.00     0.075 A 
HETATM    7  N1  UNL     1      24.954   2.918  53.275  1.00  0.00    -0.242 NA
HETATM    8  C10 UNL     1      23.663   3.353  52.818  1.00  0.00     0.255 A 
HETATM    9  N2  UNL     1      22.699   2.565  52.488  1.00  0.00    -0.165 NA
HETATM   10  N3  UNL     1      22.864   1.178  52.558  1.00  0.00    -0.266 N 
ENDROOT
BRANCH  10  11
HETATM   11  C11 UNL     1      21.878   0.200  52.221  1.00  0.00     0.164 C 
BRANCH  11  12
HETATM   12  C12 UNL     1      20.478   0.626  52.586  1.00  0.00     0.051 A 
HETATM   13  C13 UNL     1      19.549   0.710  51.458  1.00  0.00    -0.016 A 
HETATM   14  C14 UNL     1      18.561  -0.166  51.674  1.00  0.00     0.003 A 
HETATM   15  C15 UNL     1      18.747  -0.880  52.923  1.00  0.00    -0.065 A 
HETATM   16  C16 UNL     1      17.851  -1.927  53.490  1.00  0.00     0.048 C 
HETATM   17  C17 UNL     1      19.864  -0.422  53.461  1.00  0.00    -0.010 A 
ENDBRANCH  11  12
ENDBRANCH  10  11
BRANCH   1  18
HETATM   18  C2  UNL     1      27.625   1.972  53.086  1.00  0.00     0.007 C 
HETATM   19  C1  UNL     1      28.707   2.601  53.531  1.00  0.00     0.006 C 
ENDBRANCH   1  18
BRANCH   2  20
HETATM   20  O1  UNL     1      27.943  -0.413  54.350  1.00  0.00    -0.359 OA
HETATM   21  C5  UNL     1      28.900  -1.176  53.665  1.00  0.00     0.209 C 
ENDBRANCH   2  20
TORSDOF 4
ENDMDL
MODEL 3
REMARK VINA RESULT:      -7.2      3.029      7.091
REMARK  4 active torsions:
REMARK  status: ('A' for Active; 'I' for Inactive)
REMARK    1  A    between atoms: C2_2  and  C3_3 
REMARK    2  A    between atoms: C4_4  and  O1_5 
REMARK    3  A    between atoms: N3_14  and  C11_15 
REMARK    4  A    between atoms: C11_15  and  C12_16 
ROOT
HETATM    1  C3  UNL     1      23.648  -0.096  53.027  1.00  0.00     0.101 A 
HETATM    2  C4  UNL     1      24.915   0.082  53.796  1.00  0.00     0.056 A 
HETATM    3  C6  UNL     1      25.824   1.038  53.639  1.00  0.00     0.035 A 
HETATM    4  C7  UNL     1      25.625   2.062  52.618  1.00  0.00     0.036 A 
HETATM    5  C8  UNL     1      24.559   2.071  51.835  1.00  0.00     0.078 A 
HETATM    6  C9  UNL     1      23.586   1.004  52.039  1.00  0.00     0.075 A 
HETATM    7  N1  UNL     1      22.532   0.974  51.298  1.00  0.00    -0.242 NA
HETATM    8  C10 UNL     1      22.358   1.993  50.301  1.00  0.00     0.255 A 
HETATM    9  N2  UNL     1      23.188   2.953  50.082  1.00  0.00    -0.165 NA
HETATM   10  N3  UNL     1      24.358   3.063  50.839  1.00  0.00    -0.266 N 
ENDROOT
BRANCH  10  11
HETATM   11  C11 UNL     1      25.356   4.077  50.697  1.00  0.00     0.164 C 
BRANCH  11  12
HETATM   12  C12 UNL     1      25.672   4.394  49.256  1.00  0.00     0.051 A 
HETATM   13  C13 UNL     1      25.457   5.791  48.875  1.00  0.00    -0.016 A 
HETATM   14  C14 UNL     1      26.635   6.294  48.488  1.00  0.00     0.003 A 
HETATM   15  C15 UNL     1      27.692   5.305  48.577  1.00  0.00    -0.065 A 
HETATM   16  C16 UNL     1      29.127   5.505  48.231  1.00  0.00     0.048 C 
HETATM   17  C17 UNL     1      27.136   4.193  49.025  1.00  0.00    -0.010 A 
ENDBRANCH  11  12
ENDBRANCH  10  11
BRANCH   1  18
HETATM   18  C2  UNL     1      22.462  -0.218  53.875  1.00  0.00     0.007 C 
HETATM   19  C1  UNL     1      21.684  -1.275  54.080  1.00  0.00     0.006 C 
ENDBRANCH   1  18
BRANCH   2  20
HETATM   20  O1  UNL     1      24.938  -0.965  54.710  1.00  0.00    -0.359 OA
HETATM   21  C5  UNL     1      25.260  -0.843  56.069  1.00  0.00     0.209 C 
ENDBRANCH   2  20
TORSDOF 4
ENDMDL
MODEL 4
REMARK VINA RESULT:      -7.2      4.740      7.522
REMARK  4 active torsions:
REMARK  status: ('A' for Active; 'I' for Inactive)
REMARK    1  A    between atoms: C2_2  and  C3_3 
REMARK    2  A    between atoms: C4_4  and  O1_5 
REMARK    3  A    between atoms: N3_14  and  C11_15 
REMARK    4  A    between atoms: C11_15  and  C12_16 
ROOT
HETATM    1  C3  UNL     1      26.712   7.055  49.123  1.00  0.00     0.101 A 
HETATM    2  C4  UNL     1      27.670   6.087  48.511  1.00  0.00     0.056 A 
HETATM    3  C6  UNL     1      27.647   4.762  48.606  1.00  0.00     0.035 A 
HETATM    4  C7  UNL     1      26.592   4.114  49.379  1.00  0.00     0.036 A 
HETATM    5  C8  UNL     1      25.649   4.806  49.996  1.00  0.00     0.078 A 
HETATM    6  C9  UNL     1      25.711   6.258  49.867  1.00  0.00     0.075 A 
HETATM    7  N1  UNL     1      24.813   6.973  50.452  1.00  0.00    -0.242 NA
HETATM    8  C10 UNL     1      23.785   6.311  51.206  1.00  0.00     0.255 A 
HETATM    9  N2  UNL     1      23.688   5.035  51.350  1.00  0.00    -0.165 NA
HETATM   10  N3  UNL     1      24.621   4.183  50.750  1.00  0.00    -0.266 N 
ENDROOT
BRANCH  10  11
HETATM   11  C11 UNL     1      24.625   2.756  50.831  1.00  0.00     0.164 C 
BRANCH  11  12
HETATM   12  C12 UNL     1      25.101   2.244  52.168  1.00  0.00     0.051 A 
HETATM   13  C13 UNL     1      24.116   1.454  52.908  1.00  0.00    -0.016 A 
HETATM   14  C14 UNL     1      24.618   0.224  53.073  1.00  0.00     0.003 A 
HETATM   15  C15 UNL     1      25.934   0.102  52.477  1.00  0.00    -0.065 A 
HETATM   16  C16 UNL     1      26.795  -1.114  52.464  1.00  0.00     0.048 C 
HETATM   17  C17 UNL     1      26.222   1.278  51.947  1.00  0.00    -0.010 A 
ENDBRANCH  11  12
ENDBRANCH  10  11
BRANCH   1  18
HETATM   18  C2  UNL     1      26.141   7.998  48.161  1.00  0.00     0.007 C 
HETATM   19  C1  UNL     1      25.332   7.760  47.134  1.00  0.00     0.006 C 
ENDBRANCH   1  18
BRANCH   2  20
HETATM   20  O1  UNL     1      28.590   6.870  47.823  1.00  0.00    -0.359 OA
HETATM   21  C5  UNL     1      29.874   7.197  48.283  1.00  0.00     0.209 C 
ENDBRANCH   2  20
TORSDOF 4
ENDMDL
MODEL 5
REMARK VINA RESULT:      -7.0      2.196      3.830
REMARK  4 active torsions:
REMARK  status: ('A' for Active; 'I' for Inactive)
REMARK    1  A    between atoms: C2_2  and  C3_3 
REMARK    2  A    between atoms: C4_4  and  O1_5 
REMARK    3  A    between atoms: N3_14  and  C11_15 
REMARK    4  A    between atoms: C11_15  and  C12_16 
ROOT
HETATM    1  C3  UNL     1      25.755   3.004  51.047  1.00  0.00     0.101 A 
HETATM    2  C4  UNL     1      26.320   2.013  52.010  1.00  0.00     0.056 A 
HETATM    3  C6  UNL     1      25.683   1.004  52.593  1.00  0.00     0.035 A 
HETATM    4  C7  UNL     1      24.270   0.780  52.303  1.00  0.00     0.036 A 
HETATM    5  C8  UNL     1      23.595   1.556  51.471  1.00  0.00     0.078 A 
HETATM    6  C9  UNL     1      24.331   2.653  50.853  1.00  0.00     0.075 A 
HETATM    7  N1  UNL     1      23.712   3.434  50.036  1.00  0.00    -0.242 NA
HETATM    8  C10 UNL     1      22.322   3.193  49.767  1.00  0.00     0.255 A 
HETATM    9  N2  UNL     1      21.629   2.240  50.288  1.00  0.00    -0.165 NA
HETATM   10  N3  UNL     1      22.220   1.345  51.185  1.00  0.00    -0.266 N 
ENDROOT
BRANCH  10  11
HETATM   11  C11 UNL     1      21.565   0.250  51.829  1.00  0.00     0.164 C 
BRANCH  11  12
HETATM   12  C12 UNL     1      20.194   0.607  52.347  1.00  0.00     0.051 A 
HETATM   13  C13 UNL     1      19.137   0.605  51.335  1.00  0.00    -0.016 A 
HETATM   14  C14 UNL     1      18.235  -0.319  51.688  1.00  0.00     0.003 A 
HETATM   15  C15 UNL     1      18.608  -0.983  52.922  1.00  0.00    -0.065 A 
HETATM   16  C16 UNL     1      17.848  -2.061  53.616  1.00  0.00     0.048 C 
HETATM   17  C17 UNL     1      19.750  -0.446  53.313  1.00  0.00    -0.010 A 
ENDBRANCH  11  12
ENDBRANCH  10  11
BRANCH   1  18
HETATM   18  C2  UNL     1      26.525   3.118  49.807  1.00  0.00     0.007 C 
HETATM   19  C1  UNL     1      26.929   4.211  49.170  1.00  0.00     0.006 C 
ENDBRANCH   1  18
BRANCH   2  20
HETATM   20  O1  UNL     1      27.654   2.374  52.165  1.00  0.00    -0.359 OA
HETATM   21  C5  UNL     1      28.357   2.358  53.378  1.00  0.00     0.209 C 
ENDBRANCH   2  20
TORSDOF 4
ENDMDL
MODEL 6
REMARK VINA RESULT:      -7.0      2.908      6.724
REMARK  4 active torsions:
REMARK  status: ('A' for Active; 'I' for Inactive)
REMARK    1  A    between atoms: C2_2  and  C3_3 
REMARK    2  A    between atoms: C4_4  and  O1_5 
REMARK    3  A    between atoms: N3_14  and  C11_15 
REMARK    4  A    between atoms: C11_15  and  C12_16 
ROOT
HETATM    1  C3  UNL     1      21.625   2.497  51.952  1.00  0.00     0.101 A 
HETATM    2  C4  UNL     1      22.380   3.781  52.051  1.00  0.00     0.056 A 
HETATM    3  C6  UNL     1      23.600   3.962  52.544  1.00  0.00     0.035 A 
HETATM    4  C7  UNL     1      24.345   2.818  53.062  1.00  0.00     0.036 A 
HETATM    5  C8  UNL     1      23.841   1.596  53.059  1.00  0.00     0.078 A 
HETATM    6  C9  UNL     1      22.498   1.441  52.511  1.00  0.00     0.075 A 
HETATM    7  N1  UNL     1      21.968   0.266  52.489  1.00  0.00    -0.242 NA
HETATM    8  C10 UNL     1      22.721  -0.843  53.005  1.00  0.00     0.255 A 
HETATM    9  N2  UNL     1      23.907  -0.757  53.499  1.00  0.00    -0.165 NA
HETATM   10  N3  UNL     1      24.558   0.479  53.563  1.00  0.00    -0.266 N 
ENDROOT
BRANCH  10  11
HETATM   11  C11 UNL     1      25.869   0.708  54.085  1.00  0.00     0.164 C 
BRANCH  11  12
HETATM   12  C12 UNL     1      26.952   0.556  53.045  1.00  0.00     0.051 A 
HETATM   13  C13 UNL     1      28.153   1.356  53.289  1.00  0.00    -0.016 A 
HETATM   14  C14 UNL     1      29.182   0.514  53.437  1.00  0.00     0.003 A 
HETATM   15  C15 UNL     1      28.762  -0.868  53.307  1.00  0.00    -0.065 A 
HETATM   16  C16 UNL     1      29.631  -2.074  53.411  1.00  0.00     0.048 C 
HETATM   17  C17 UNL     1      27.461  -0.850  53.077  1.00  0.00    -0.010 A 
ENDBRANCH  11  12
ENDBRANCH  10  11
BRANCH   1  18
HETATM   18  C2  UNL     1      21.122   2.218  50.607  1.00  0.00     0.007 C 
HETATM   19  C1  UNL     1      21.800   1.919  49.504  1.00  0.00     0.006 C 
ENDBRANCH   1  18
BRANCH   2  20
HETATM   20  O1  UNL     1      21.531   4.745  51.519  1.00  0.00    -0.359 OA
HETATM   21  C5  UNL     1      21.944   5.968  50.971  1.00  0.00     0.209 C 
ENDBRANCH   2  20
TORSDOF 4
ENDMDL
MODEL 7
REMARK VINA RESULT:      -7.0      2.646      7.366
REMARK  4 active torsions:
REMARK  status: ('A' for Active; 'I' for Inactive)
REMARK    1  A    between atoms: C2_2  and  C3_3 
REMARK    2  A    between atoms: C4_4  and  O1_5 
REMARK    3  A    between atoms: N3_14  and  C11_15 
REMARK    4  A    between atoms: C11_15  and  C12_16 
ROOT
HETATM    1  C3  UNL     1      19.841   0.227  51.948  1.00  0.00     0.101 A 
HETATM    2  C4  UNL     1      19.865  -0.539  53.229  1.00  0.00     0.056 A 
HETATM    3  C6  UNL     1      20.917  -0.779  54.004  1.00  0.00     0.035 A 
HETATM    4  C7  UNL     1      22.227  -0.263  53.620  1.00  0.00     0.036 A 
HETATM    5  C8  UNL     1      22.406   0.441  52.515  1.00  0.00     0.078 A 
HETATM    6  C9  UNL     1      21.226   0.681  51.692  1.00  0.00     0.075 A 
HETATM    7  N1  UNL     1      21.353   1.363  50.606  1.00  0.00    -0.242 NA
HETATM    8  C10 UNL     1      22.654   1.860  50.250  1.00  0.00     0.255 A 
HETATM    9  N2  UNL     1      23.724   1.674  50.942  1.00  0.00    -0.165 NA
HETATM   10  N3  UNL     1      23.677   0.945  52.134  1.00  0.00    -0.266 N 
ENDROOT
BRANCH  10  11
HETATM   11  C11 UNL     1      24.788   0.670  52.991  1.00  0.00     0.164 C 
BRANCH  11  12
HETATM   12  C12 UNL     1      26.115   0.746  52.277  1.00  0.00     0.051 A 
HETATM   13  C13 UNL     1      27.033   1.760  52.797  1.00  0.00    -0.016 A 
HETATM   14  C14 UNL     1      28.128   1.133  53.239  1.00  0.00     0.003 A 
HETATM   15  C15 UNL     1      28.030  -0.303  53.056  1.00  0.00    -0.065 A 
HETATM   16  C16 UNL     1      29.055  -1.319  53.429  1.00  0.00     0.048 C 
HETATM   17  C17 UNL     1      26.857  -0.535  52.494  1.00  0.00    -0.010 A 
ENDBRANCH  11  12
ENDBRANCH  10  11
BRANCH   1  18
HETATM   18  C2  UNL     1      18.839   1.294  51.924  1.00  0.00     0.007 C 
HETATM   19  C1  UNL     1      17.818   1.465  51.092  1.00  0.00     0.006 C 
ENDBRANCH   1  18
BRANCH   2  20
HETATM   20  O1  UNL     1      18.552  -0.947  53.435  1.00  0.00    -0.359 OA
HETATM   21  C5  UNL     1      18.144  -2.272  53.648  1.00  0.00     0.209 C 
ENDBRANCH   2  20
TORSDOF 4
ENDMDL
MODEL 8
REMARK VINA RESULT:      -7.0      4.540      7.031
REMARK  4 active torsions:
REMARK  status: ('A' for Active; 'I' for Inactive)
REMARK    1  A    between atoms: C2_2  and  C3_3 
REMARK    2  A    between atoms: C4_4  and  O1_5 
REMARK    3  A    between atoms: N3_14  and  C11_15 
REMARK    4  A    between atoms: C11_15  and  C12_16 
ROOT
HETATM    1  C3  UNL     1      25.768   6.484  49.583  1.00  0.00     0.101 A 
HETATM    2  C4  UNL     1      26.846   5.731  48.877  1.00  0.00     0.056 A 
HETATM    3  C6  UNL     1      27.070   4.422  48.914  1.00  0.00     0.035 A 
HETATM    4  C7  UNL     1      26.201   3.564  49.713  1.00  0.00     0.036 A 
HETATM    5  C8  UNL     1      25.188   4.050  50.411  1.00  0.00     0.078 A 
HETATM    6  C9  UNL     1      24.977   5.492  50.345  1.00  0.00     0.075 A 
HETATM    7  N1  UNL     1      24.002   6.009  51.009  1.00  0.00    -0.242 NA
HETATM    8  C10 UNL     1      23.160   5.143  51.789  1.00  0.00     0.255 A 
HETATM    9  N2  UNL     1      23.306   3.867  51.880  1.00  0.00    -0.165 NA
HETATM   10  N3  UNL     1      24.339   3.223  51.192  1.00  0.00    -0.266 N 
ENDROOT
BRANCH  10  11
HETATM   11  C11 UNL     1      24.607   1.819  51.208  1.00  0.00     0.164 C 
BRANCH  11  12
HETATM   12  C12 UNL     1      25.328   1.372  52.456  1.00  0.00     0.051 A 
HETATM   13  C13 UNL     1      24.506   0.612  53.400  1.00  0.00    -0.016 A 
HETATM   14  C14 UNL     1      25.046  -0.605  53.525  1.00  0.00     0.003 A 
HETATM   15  C15 UNL     1      26.232  -0.749  52.702  1.00  0.00    -0.065 A 
HETATM   16  C16 UNL     1      27.092  -1.960  52.586  1.00  0.00     0.048 C 
HETATM   17  C17 UNL     1      26.402   0.403  52.076  1.00  0.00    -0.010 A 
ENDBRANCH  11  12
ENDBRANCH  10  11
BRANCH   1  18
HETATM   18  C2  UNL     1      24.977   7.339  48.697  1.00  0.00     0.007 C 
HETATM   19  C1  UNL     1      24.789   8.653  48.750  1.00  0.00     0.006 C 
ENDBRANCH   1  18
BRANCH   2  20
HETATM   20  O1  UNL     1      27.565   6.692  48.176  1.00  0.00    -0.359 OA
HETATM   21  C5  UNL     1      28.912   6.580  47.803  1.00  0.00     0.209 C 
ENDBRANCH   2  20
TORSDOF 4
ENDMDL
MODEL 9
REMARK VINA RESULT:      -6.9      3.022      6.303
REMARK  4 active torsions:
REMARK  status: ('A' for Active; 'I' for Inactive)
REMARK    1  A    between atoms: C2_2  and  C3_3 
REMARK    2  A    between atoms: C4_4  and  O1_5 
REMARK    3  A    between atoms: N3_14  and  C11_15 
REMARK    4  A    between atoms: C11_15  and  C12_16 
ROOT
HETATM    1  C3  UNL     1      23.241   0.254  52.976  1.00  0.00     0.101 A 
HETATM    2  C4  UNL     1      24.706   0.415  53.214  1.00  0.00     0.056 A 
HETATM    3  C6  UNL     1      25.408   1.542  53.184  1.00  0.00     0.035 A 
HETATM    4  C7  UNL     1      24.734   2.803  52.892  1.00  0.00     0.036 A 
HETATM    5  C8  UNL     1      23.434   2.863  52.653  1.00  0.00     0.078 A 
HETATM    6  C9  UNL     1      22.701   1.603  52.695  1.00  0.00     0.075 A 
HETATM    7  N1  UNL     1      21.432   1.615  52.469  1.00  0.00    -0.242 NA
HETATM    8  C10 UNL     1      20.792   2.869  52.184  1.00  0.00     0.255 A 
HETATM    9  N2  UNL     1      21.395   4.005  52.135  1.00  0.00    -0.165 NA
HETATM   10  N3  UNL     1      22.772   4.086  52.368  1.00  0.00    -0.266 N 
ENDROOT
BRANCH  10  11
HETATM   11  C11 UNL     1      23.557   5.280  52.344  1.00  0.00     0.164 C 
BRANCH  11  12
HETATM   12  C12 UNL     1      23.662   5.887  50.966  1.00  0.00     0.051 A 
HETATM   13  C13 UNL     1      24.250   7.227  50.931  1.00  0.00    -0.016 A 
HETATM   14  C14 UNL     1      25.367   7.165  50.198  1.00  0.00     0.003 A 
HETATM   15  C15 UNL     1      25.605   5.822  49.703  1.00  0.00    -0.065 A 
HETATM   16  C16 UNL     1      26.748   5.376  48.856  1.00  0.00     0.048 C 
HETATM   17  C17 UNL     1      24.612   5.072  50.148  1.00  0.00    -0.010 A 
ENDBRANCH  11  12
ENDBRANCH  10  11
BRANCH   1  18
HETATM   18  C2  UNL     1      22.550  -0.464  54.047  1.00  0.00     0.007 C 
HETATM   19  C1  UNL     1      21.810  -1.566  53.975  1.00  0.00     0.006 C 
ENDBRANCH   1  18
BRANCH   2  20
HETATM   20  O1  UNL     1      25.176  -0.868  53.473  1.00  0.00    -0.359 OA
HETATM   21  C5  UNL     1      26.384  -1.396  52.995  1.00  0.00     0.209 C 
ENDBRANCH   2  20
TORSDOF 4
ENDMDL
