MODEL 1
REMARK VINA RESULT:      -8.1      0.000      0.000
REMARK  4 active torsions:
REMARK  status: ('A' for Active; 'I' for Inactive)
REMARK    1  A    between atoms: O1_2  and  C2_3 
REMARK    2  A    between atoms: C7_11  and  N3_12 
REMARK    3  A    between atoms: N3_12  and  C8_13 
REMARK    4  A    between atoms: C17_26  and  O3_27 
ROOT
HETATM    1  C2  UNL     1      25.565   1.077  53.521  1.00  0.00     0.087 C 
HETATM    2  C3  UNL     1      24.740   1.484  52.531  1.00  0.00     0.082 C 
HETATM    3  C4  UNL     1      23.640   1.737  51.615  1.00  0.00     0.189 C 
HETATM    4  O2  UNL     1      23.270   3.051  51.527  1.00  0.00    -0.332 OA
HETATM    5  C5  UNL     1      23.924   4.136  51.095  1.00  0.00     0.196 A 
HETATM    6  N1  UNL     1      23.584   5.222  51.814  1.00  0.00    -0.216 NA
HETATM    7  C6  UNL     1      24.073   6.458  51.606  1.00  0.00     0.238 A 
HETATM    8  N2  UNL     1      24.966   6.676  50.623  1.00  0.00    -0.222 NA
HETATM    9  C7  UNL     1      25.376   5.642  49.837  1.00  0.00     0.160 A 
HETATM   10  C14 UNL     1      24.859   4.389  50.077  1.00  0.00     0.129 A 
HETATM   11  N4  UNL     1      25.294   3.250  49.296  1.00  0.00    -0.367 N 
HETATM   12  C15 UNL     1      26.423   2.693  49.966  1.00  0.00     0.243 C 
HETATM   13  N5  UNL     1      26.419   2.941  51.388  1.00  0.00    -0.381 N 
HETATM   14  C16 UNL     1      27.242   2.473  52.442  1.00  0.00     0.123 C 
HETATM   15  C17 UNL     1      26.909   1.629  53.436  1.00  0.00     0.112 C 
HETATM   16  H12 UNL     1      24.533   3.465  48.647  1.00  0.00     0.161 HD
HETATM   17  H15 UNL     1      25.897   3.517  52.117  1.00  0.00     0.160 HD
ENDROOT
BRANCH   9  18
HETATM   18  N3  UNL     1      26.241   5.627  48.736  1.00  0.00    -0.339 N 
HETATM   19  H8  UNL     1      26.077   5.144  47.836  1.00  0.00     0.167 HD
BRANCH  18  20
HETATM   20  C8  UNL     1      27.493   6.242  48.590  1.00  0.00     0.035 A 
HETATM   21  C9  UNL     1      27.815   7.584  48.688  1.00  0.00     0.032 A 
HETATM   22  C10 UNL     1      29.062   8.136  48.543  1.00  0.00     0.046 A 
HETATM   23  C11 UNL     1      30.124   7.303  48.272  1.00  0.00     0.138 A 
HETATM   24  F1  UNL     1      31.324   7.909  48.141  1.00  0.00    -0.204 F 
HETATM   25  C12 UNL     1      29.884   5.972  48.161  1.00  0.00     0.074 A 
HETATM   26 CL1  UNL     1      31.314   5.005  47.816  1.00  0.00    -0.081 Cl
HETATM   27  C13 UNL     1      28.622   5.463  48.314  1.00  0.00     0.056 A 
ENDBRANCH  18  20
ENDBRANCH   9  18
BRANCH   1  28
HETATM   28  O1  UNL     1      25.768   0.306  54.698  1.00  0.00    -0.357 OA
HETATM   29  C1  UNL     1      25.081  -0.888  54.959  1.00  0.00     0.209 C 
ENDBRANCH   1  28
BRANCH  15  30
HETATM   30  O3  UNL     1      28.061   1.510  54.177  1.00  0.00    -0.352 OA
HETATM   31  C18 UNL     1      29.143   0.670  53.929  1.00  0.00     0.210 C 
ENDBRANCH  15  30
TORSDOF 4
ENDMDL
MODEL 2
REMARK VINA RESULT:      -7.7      1.564      1.726
REMARK  4 active torsions:
REMARK  status: ('A' for Active; 'I' for Inactive)
REMARK    1  A    between atoms: O1_2  and  C2_3 
REMARK    2  A    between atoms: C7_11  and  N3_12 
REMARK    3  A    between atoms: N3_12  and  C8_13 
REMARK    4  A    between atoms: C17_26  and  O3_27 
ROOT
HETATM    1  C2  UNL     1      24.153   1.015  52.892  1.00  0.00     0.087 C 
HETATM    2  C3  UNL     1      23.801   1.603  51.727  1.00  0.00     0.082 C 
HETATM    3  C4  UNL     1      23.161   2.056  50.505  1.00  0.00     0.189 C 
HETATM    4  O2  UNL     1      22.923   3.403  50.459  1.00  0.00    -0.332 OA
HETATM    5  C5  UNL     1      23.748   4.456  50.457  1.00  0.00     0.196 A 
HETATM    6  N1  UNL     1      23.210   5.490  51.131  1.00  0.00    -0.216 NA
HETATM    7  C6  UNL     1      23.805   6.686  51.292  1.00  0.00     0.238 A 
HETATM    8  N2  UNL     1      25.020   6.915  50.761  1.00  0.00    -0.222 NA
HETATM    9  C7  UNL     1      25.651   5.932  50.060  1.00  0.00     0.160 A 
HETATM   10  C14 UNL     1      25.018   4.719  49.916  1.00  0.00     0.129 A 
HETATM   11  N4  UNL     1      25.664   3.629  49.214  1.00  0.00    -0.367 N 
HETATM   12  C15 UNL     1      26.412   2.897  50.183  1.00  0.00     0.243 C 
HETATM   13  N5  UNL     1      25.866   2.996  51.515  1.00  0.00    -0.381 N 
HETATM   14  C16 UNL     1      26.187   2.342  52.730  1.00  0.00     0.123 C 
HETATM   15  C17 UNL     1      25.450   1.437  53.401  1.00  0.00     0.112 C 
HETATM   16  H12 UNL     1      25.227   3.985  48.359  1.00  0.00     0.161 HD
HETATM   17  H15 UNL     1      25.131   3.543  52.061  1.00  0.00     0.160 HD
ENDROOT
BRANCH   9  18
HETATM   18  N3  UNL     1      26.875   5.945  49.380  1.00  0.00    -0.339 N 
HETATM   19  H8  UNL     1      27.679   5.320  49.558  1.00  0.00     0.167 HD
BRANCH  18  20
HETATM   20  C8  UNL     1      27.292   6.775  48.330  1.00  0.00     0.035 A 
HETATM   21  C9  UNL     1      26.555   7.706  47.617  1.00  0.00     0.032 A 
HETATM   22  C10 UNL     1      27.015   8.502  46.599  1.00  0.00     0.046 A 
HETATM   23  C11 UNL     1      28.334   8.392  46.220  1.00  0.00     0.138 A 
HETATM   24  F1  UNL     1      28.722   9.203  45.213  1.00  0.00    -0.204 F 
HETATM   25  C12 UNL     1      29.118   7.499  46.875  1.00  0.00     0.074 A 
HETATM   26 CL1  UNL     1      30.783   7.446  46.308  1.00  0.00    -0.081 Cl
HETATM   27  C13 UNL     1      28.618   6.724  47.887  1.00  0.00     0.056 A 
ENDBRANCH  18  20
ENDBRANCH   9  18
BRANCH   1  28
HETATM   28  O1  UNL     1      23.841   0.111  53.944  1.00  0.00    -0.357 OA
HETATM   29  C1  UNL     1      22.780  -0.803  53.877  1.00  0.00     0.209 C 
ENDBRANCH   1  28
BRANCH  15  30
HETATM   30  O3  UNL     1      26.214   1.129  54.501  1.00  0.00    -0.352 OA
HETATM   31  C18 UNL     1      27.408   0.413  54.528  1.00  0.00     0.210 C 
ENDBRANCH  15  30
TORSDOF 4
ENDMDL
MODEL 3
REMARK VINA RESULT:      -7.6      4.198      7.231
REMARK  4 active torsions:
REMARK  status: ('A' for Active; 'I' for Inactive)
REMARK    1  A    between atoms: O1_2  and  C2_3 
REMARK    2  A    between atoms: C7_11  and  N3_12 
REMARK    3  A    between atoms: N3_12  and  C8_13 
REMARK    4  A    between atoms: C17_26  and  O3_27 
ROOT
HETATM    1  C2  UNL     1      21.189   5.957  48.858  1.00  0.00     0.087 C 
HETATM    2  C3  UNL     1      21.725   5.834  50.092  1.00  0.00     0.082 C 
HETATM    3  C4  UNL     1      22.090   5.926  51.495  1.00  0.00     0.189 C 
HETATM    4  O2  UNL     1      21.943   4.760  52.195  1.00  0.00    -0.332 OA
HETATM    5  C5  UNL     1      22.542   3.569  52.082  1.00  0.00     0.196 A 
HETATM    6  N1  UNL     1      21.686   2.570  52.364  1.00  0.00    -0.216 NA
HETATM    7  C6  UNL     1      22.005   1.263  52.342  1.00  0.00     0.238 A 
HETATM    8  N2  UNL     1      23.254   0.876  52.024  1.00  0.00    -0.222 NA
HETATM    9  C7  UNL     1      24.198   1.812  51.722  1.00  0.00     0.160 A 
HETATM   10  C14 UNL     1      23.839   3.140  51.750  1.00  0.00     0.129 A 
HETATM   11  N4  UNL     1      24.794   4.170  51.398  1.00  0.00    -0.367 N 
HETATM   12  C15 UNL     1      24.682   4.376  49.991  1.00  0.00     0.243 C 
HETATM   13  N5  UNL     1      23.373   4.058  49.473  1.00  0.00    -0.381 N 
HETATM   14  C16 UNL     1      22.780   4.238  48.198  1.00  0.00     0.123 C 
HETATM   15  C17 UNL     1      21.787   5.082  47.861  1.00  0.00     0.112 C 
HETATM   16  H12 UNL     1      25.058   4.196  52.386  1.00  0.00     0.161 HD
HETATM   17  H15 UNL     1      22.461   3.597  49.777  1.00  0.00     0.160 HD
ENDROOT
BRANCH   9  18
HETATM   18  N3  UNL     1      25.557   1.664  51.416  1.00  0.00    -0.339 N 
HETATM   19  H8  UNL     1      26.035   2.024  50.573  1.00  0.00     0.167 HD
BRANCH  18  20
HETATM   20  C8  UNL     1      26.561   1.019  52.151  1.00  0.00     0.035 A 
HETATM   21  C9  UNL     1      26.816  -0.337  52.265  1.00  0.00     0.032 A 
HETATM   22  C10 UNL     1      27.821  -0.918  52.994  1.00  0.00     0.046 A 
HETATM   23  C11 UNL     1      28.682  -0.105  53.697  1.00  0.00     0.138 A 
HETATM   24  F1  UNL     1      29.649  -0.740  54.394  1.00  0.00    -0.204 F 
HETATM   25  C12 UNL     1      28.493   1.237  53.633  1.00  0.00     0.074 A 
HETATM   26 CL1  UNL     1      29.651   2.177  54.568  1.00  0.00    -0.081 Cl
HETATM   27  C13 UNL     1      27.476   1.777  52.891  1.00  0.00     0.056 A 
ENDBRANCH  18  20
ENDBRANCH   9  18
BRANCH   1  28
HETATM   28  O1  UNL     1      20.246   6.581  47.996  1.00  0.00    -0.357 OA
HETATM   29  C1  UNL     1      19.413   7.632  48.406  1.00  0.00     0.209 C 
ENDBRANCH   1  28
BRANCH  15  30
HETATM   30  O3  UNL     1      21.595   4.856  46.519  1.00  0.00    -0.352 OA
HETATM   31  C18 UNL     1      21.930   3.713  45.797  1.00  0.00     0.210 C 
ENDBRANCH  15  30
TORSDOF 4
ENDMDL
MODEL 4
REMARK VINA RESULT:      -7.6      5.400      8.171
REMARK  4 active torsions:
REMARK  status: ('A' for Active; 'I' for Inactive)
REMARK    1  A    between atoms: O1_2  and  C2_3 
REMARK    2  A    between atoms: C7_11  and  N3_12 
REMARK    3  A    between atoms: N3_12  and  C8_13 
REMARK    4  A    between atoms: C17_26  and  O3_27 
ROOT
HETATM    1  C2  UNL     1      26.419   2.310  51.956  1.00  0.00     0.087 C 
HETATM    2  C3  UNL     1      25.551   3.180  51.394  1.00  0.00     0.082 C 
HETATM    3  C4  UNL     1      24.881   4.279  50.718  1.00  0.00     0.189 C 
HETATM    4  O2  UNL     1      24.141   3.904  49.630  1.00  0.00    -0.332 OA
HETATM    5  C5  UNL     1      23.058   3.127  49.512  1.00  0.00     0.196 A 
HETATM    6  N1  UNL     1      23.089   2.429  48.362  1.00  0.00    -0.216 NA
HETATM    7  C6  UNL     1      22.132   1.571  47.965  1.00  0.00     0.238 A 
HETATM    8  N2  UNL     1      21.049   1.361  48.735  1.00  0.00    -0.222 NA
HETATM    9  C7  UNL     1      20.921   2.019  49.921  1.00  0.00     0.160 A 
HETATM   10  C14 UNL     1      21.919   2.889  50.300  1.00  0.00     0.129 A 
HETATM   11  N4  UNL     1      21.849   3.582  51.569  1.00  0.00    -0.367 N 
HETATM   12  C15 UNL     1      22.487   2.747  52.534  1.00  0.00     0.243 C 
HETATM   13  N5  UNL     1      23.491   1.882  51.962  1.00  0.00    -0.381 N 
HETATM   14  C16 UNL     1      24.445   1.011  52.543  1.00  0.00     0.123 C 
HETATM   15  C17 UNL     1      25.784   1.153  52.570  1.00  0.00     0.112 C 
HETATM   16  H12 UNL     1      21.352   4.330  51.079  1.00  0.00     0.161 HD
HETATM   17  H15 UNL     1      23.852   1.564  51.010  1.00  0.00     0.160 HD
ENDROOT
BRANCH   9  18
HETATM   18  N3  UNL     1      19.880   2.009  50.857  1.00  0.00    -0.339 N 
HETATM   19  H8  UNL     1      19.309   2.823  51.144  1.00  0.00     0.167 HD
BRANCH  18  20
HETATM   20  C8  UNL     1      19.374   0.935  51.602  1.00  0.00     0.035 A 
HETATM   21  C9  UNL     1      18.109   0.374  51.564  1.00  0.00     0.032 A 
HETATM   22  C10 UNL     1      17.665  -0.687  52.311  1.00  0.00     0.046 A 
HETATM   23  C11 UNL     1      18.536  -1.278  53.199  1.00  0.00     0.138 A 
HETATM   24  F1  UNL     1      18.037  -2.317  53.903  1.00  0.00    -0.204 F 
HETATM   25  C12 UNL     1      19.795  -0.781  53.290  1.00  0.00     0.074 A 
HETATM   26 CL1  UNL     1      20.819  -1.615  54.454  1.00  0.00    -0.081 Cl
HETATM   27  C13 UNL     1      20.197   0.280  52.524  1.00  0.00     0.056 A 
ENDBRANCH  18  20
ENDBRANCH   9  18
BRANCH   1  28
HETATM   28  O1  UNL     1      27.760   1.953  52.260  1.00  0.00    -0.357 OA
HETATM   29  C1  UNL     1      28.444   2.437  53.384  1.00  0.00     0.209 C 
ENDBRANCH   1  28
BRANCH  15  30
HETATM   30  O3  UNL     1      26.227   0.041  53.246  1.00  0.00    -0.352 OA
HETATM   31  C18 UNL     1      26.340  -1.257  52.755  1.00  0.00     0.210 C 
ENDBRANCH  15  30
TORSDOF 4
ENDMDL
MODEL 5
REMARK VINA RESULT:      -7.5      2.136      2.396
REMARK  4 active torsions:
REMARK  status: ('A' for Active; 'I' for Inactive)
REMARK    1  A    between atoms: O1_2  and  C2_3 
REMARK    2  A    between atoms: C7_11  and  N3_12 
REMARK    3  A    between atoms: N3_12  and  C8_13 
REMARK    4  A    between atoms: C17_26  and  O3_27 
ROOT
HETATM    1  C2  UNL     1      24.167   0.843  52.779  1.00  0.00     0.087 C 
HETATM    2  C3  UNL     1      23.843   1.437  51.609  1.00  0.00     0.082 C 
HETATM    3  C4  UNL     1      23.241   1.885  50.365  1.00  0.00     0.189 C 
HETATM    4  O2  UNL     1      22.937   3.219  50.333  1.00  0.00    -0.332 OA
HETATM    5  C5  UNL     1      23.707   4.311  50.393  1.00  0.00     0.196 A 
HETATM    6  N1  UNL     1      23.086   5.303  51.058  1.00  0.00    -0.216 NA
HETATM    7  C6  UNL     1      23.610   6.523  51.272  1.00  0.00     0.238 A 
HETATM    8  N2  UNL     1      24.837   6.824  50.808  1.00  0.00    -0.222 NA
HETATM    9  C7  UNL     1      25.550   5.889  50.120  1.00  0.00     0.160 A 
HETATM   10  C14 UNL     1      24.987   4.649  49.921  1.00  0.00     0.129 A 
HETATM   11  N4  UNL     1      25.721   3.608  49.231  1.00  0.00    -0.367 N 
HETATM   12  C15 UNL     1      26.457   2.893  50.223  1.00  0.00     0.243 C 
HETATM   13  N5  UNL     1      25.842   2.936  51.528  1.00  0.00    -0.381 N 
HETATM   14  C16 UNL     1      26.137   2.272  52.745  1.00  0.00     0.123 C 
HETATM   15  C17 UNL     1      25.414   1.318  53.359  1.00  0.00     0.112 C 
HETATM   16  H12 UNL     1      25.310   3.960  48.363  1.00  0.00     0.161 HD
HETATM   17  H15 UNL     1      25.055   3.434  52.046  1.00  0.00     0.160 HD
ENDROOT
BRANCH   9  18
HETATM   18  N3  UNL     1      26.804   5.978  49.502  1.00  0.00    -0.339 N 
HETATM   19  H8  UNL     1      27.660   5.469  49.782  1.00  0.00     0.167 HD
BRANCH  18  20
HETATM   20  C8  UNL     1      27.189   6.745  48.394  1.00  0.00     0.035 A 
HETATM   21  C9  UNL     1      28.443   6.873  47.823  1.00  0.00     0.032 A 
HETATM   22  C10 UNL     1      28.766   7.635  46.729  1.00  0.00     0.046 A 
HETATM   23  C11 UNL     1      27.771   8.359  46.112  1.00  0.00     0.138 A 
HETATM   24  F1  UNL     1      28.155   9.088  45.042  1.00  0.00    -0.204 F 
HETATM   25  C12 UNL     1      26.514   8.283  46.618  1.00  0.00     0.074 A 
HETATM   26 CL1  UNL     1      25.325   9.248  45.750  1.00  0.00    -0.081 Cl
HETATM   27  C13 UNL     1      26.235   7.509  47.712  1.00  0.00     0.056 A 
ENDBRANCH  18  20
ENDBRANCH   9  18
BRANCH   1  28
HETATM   28  O1  UNL     1      23.850  -0.098  53.796  1.00  0.00    -0.357 OA
HETATM   29  C1  UNL     1      22.537  -0.365  54.209  1.00  0.00     0.209 C 
ENDBRANCH   1  28
BRANCH  15  30
HETATM   30  O3  UNL     1      26.138   1.024  54.491  1.00  0.00    -0.352 OA
HETATM   31  C18 UNL     1      27.255   0.199  54.590  1.00  0.00     0.210 C 
ENDBRANCH  15  30
TORSDOF 4
ENDMDL
MODEL 6
REMARK VINA RESULT:      -7.5      5.303      8.241
REMARK  4 active torsions:
REMARK  status: ('A' for Active; 'I' for Inactive)
REMARK    1  A    between atoms: O1_2  and  C2_3 
REMARK    2  A    between atoms: C7_11  and  N3_12 
REMARK    3  A    between atoms: N3_12  and  C8_13 
REMARK    4  A    between atoms: C17_26  and  O3_27 
ROOT
HETATM    1  C2  UNL     1      26.143   4.474  49.529  1.00  0.00     0.087 C 
HETATM    2  C3  UNL     1      24.964   5.107  49.339  1.00  0.00     0.082 C 
HETATM    3  C4  UNL     1      23.873   5.993  48.969  1.00  0.00     0.189 C 
HETATM    4  O2  UNL     1      22.882   5.394  48.242  1.00  0.00    -0.332 OA
HETATM    5  C5  UNL     1      22.026   4.410  48.540  1.00  0.00     0.196 A 
HETATM    6  N1  UNL     1      21.778   3.643  47.462  1.00  0.00    -0.216 NA
HETATM    7  C6  UNL     1      20.950   2.583  47.455  1.00  0.00     0.238 A 
HETATM    8  N2  UNL     1      20.300   2.223  48.577  1.00  0.00    -0.222 NA
HETATM    9  C7  UNL     1      20.482   2.935  49.724  1.00  0.00     0.160 A 
HETATM   10  C14 UNL     1      21.338   4.012  49.700  1.00  0.00     0.129 A 
HETATM   11  N4  UNL     1      21.596   4.776  50.903  1.00  0.00    -0.367 N 
HETATM   12  C15 UNL     1      22.708   4.163  51.552  1.00  0.00     0.243 C 
HETATM   13  N5  UNL     1      23.590   3.474  50.641  1.00  0.00    -0.381 N 
HETATM   14  C16 UNL     1      24.854   2.859  50.816  1.00  0.00     0.123 C 
HETATM   15  C17 UNL     1      26.043   3.266  50.335  1.00  0.00     0.112 C 
HETATM   16  H12 UNL     1      20.805   5.369  50.638  1.00  0.00     0.161 HD
HETATM   17  H15 UNL     1      23.632   3.160  49.623  1.00  0.00     0.160 HD
ENDROOT
BRANCH   9  18
HETATM   18  N3  UNL     1      19.889   2.791  50.985  1.00  0.00    -0.339 N 
HETATM   19  H8  UNL     1      19.537   3.557  51.584  1.00  0.00     0.167 HD
BRANCH  18  20
HETATM   20  C8  UNL     1      19.635   1.620  51.711  1.00  0.00     0.035 A 
HETATM   21  C9  UNL     1      18.617   0.697  51.539  1.00  0.00     0.032 A 
HETATM   22  C10 UNL     1      18.417  -0.442  52.276  1.00  0.00     0.046 A 
HETATM   23  C11 UNL     1      19.294  -0.730  53.297  1.00  0.00     0.138 A 
HETATM   24  F1  UNL     1      19.041  -1.865  53.983  1.00  0.00    -0.204 F 
HETATM   25  C12 UNL     1      20.318   0.131  53.526  1.00  0.00     0.074 A 
HETATM   26 CL1  UNL     1      21.375  -0.338  54.853  1.00  0.00    -0.081 Cl
HETATM   27  C13 UNL     1      20.482   1.258  52.765  1.00  0.00     0.056 A 
ENDBRANCH  18  20
ENDBRANCH   9  18
BRANCH   1  28
HETATM   28  O1  UNL     1      27.544   4.416  49.303  1.00  0.00    -0.357 OA
HETATM   29  C1  UNL     1      28.209   5.258  48.400  1.00  0.00     0.209 C 
ENDBRANCH   1  28
BRANCH  15  30
HETATM   30  O3  UNL     1      26.932   2.321  50.791  1.00  0.00    -0.352 OA
HETATM   31  C18 UNL     1      26.665   1.248  51.637  1.00  0.00     0.210 C 
ENDBRANCH  15  30
TORSDOF 4
ENDMDL
MODEL 7
REMARK VINA RESULT:      -7.4      4.872      7.298
REMARK  4 active torsions:
REMARK  status: ('A' for Active; 'I' for Inactive)
REMARK    1  A    between atoms: O1_2  and  C2_3 
REMARK    2  A    between atoms: C7_11  and  N3_12 
REMARK    3  A    between atoms: N3_12  and  C8_13 
REMARK    4  A    between atoms: C17_26  and  O3_27 
ROOT
HETATM    1  C2  UNL     1      25.088   8.880  48.260  1.00  0.00     0.087 C 
HETATM    2  C3  UNL     1      26.161   8.740  47.450  1.00  0.00     0.082 C 
HETATM    3  C4  UNL     1      27.141   8.765  46.378  1.00  0.00     0.189 C 
HETATM    4  O2  UNL     1      28.339   9.331  46.720  1.00  0.00    -0.332 OA
HETATM    5  C5  UNL     1      29.272   8.975  47.611  1.00  0.00     0.196 A 
HETATM    6  N1  UNL     1      29.844  10.059  48.167  1.00  0.00    -0.216 NA
HETATM    7  C6  UNL     1      30.821  10.015  49.092  1.00  0.00     0.238 A 
HETATM    8  N2  UNL     1      31.294   8.831  49.522  1.00  0.00    -0.222 NA
HETATM    9  C7  UNL     1      30.781   7.673  49.020  1.00  0.00     0.160 A 
HETATM   10  C14 UNL     1      29.781   7.751  48.078  1.00  0.00     0.129 A 
HETATM   11  N4  UNL     1      29.175   6.549  47.544  1.00  0.00    -0.367 N 
HETATM   12  C15 UNL     1      28.075   6.226  48.394  1.00  0.00     0.243 C 
HETATM   13  N5  UNL     1      27.510   7.378  49.054  1.00  0.00    -0.381 N 
HETATM   14  C16 UNL     1      26.354   7.548  49.856  1.00  0.00     0.123 C 
HETATM   15  C17 UNL     1      25.229   8.219  49.549  1.00  0.00     0.112 C 
HETATM   16  H12 UNL     1      29.893   6.568  46.816  1.00  0.00     0.161 HD
HETATM   17  H15 UNL     1      27.715   8.412  49.217  1.00  0.00     0.160 HD
ENDROOT
BRANCH   9  18
HETATM   18  N3  UNL     1      31.138   6.341  49.266  1.00  0.00    -0.339 N 
HETATM   19  H8  UNL     1      30.621   5.670  49.860  1.00  0.00     0.167 HD
BRANCH  18  20
HETATM   20  C8  UNL     1      32.238   5.619  48.783  1.00  0.00     0.035 A 
HETATM   21  C9  UNL     1      33.582   5.946  48.843  1.00  0.00     0.032 A 
HETATM   22  C10 UNL     1      34.625   5.197  48.360  1.00  0.00     0.046 A 
HETATM   23  C11 UNL     1      34.346   3.996  47.748  1.00  0.00     0.138 A 
HETATM   24  F1  UNL     1      35.416   3.308  47.295  1.00  0.00    -0.204 F 
HETATM   25  C12 UNL     1      33.049   3.610  47.652  1.00  0.00     0.074 A 
HETATM   26 CL1  UNL     1      32.812   2.059  46.853  1.00  0.00    -0.081 Cl
HETATM   27  C13 UNL     1      32.038   4.388  48.149  1.00  0.00     0.056 A 
ENDBRANCH  18  20
ENDBRANCH   9  18
BRANCH   1  28
HETATM   28  O1  UNL     1      23.785   9.404  48.475  1.00  0.00    -0.357 OA
HETATM   29  C1  UNL     1      22.659   8.974  47.758  1.00  0.00     0.209 C 
ENDBRANCH   1  28
BRANCH  15  30
HETATM   30  O3  UNL     1      24.437   8.076  50.664  1.00  0.00    -0.352 OA
HETATM   31  C18 UNL     1      23.980   6.888  51.230  1.00  0.00     0.210 C 
ENDBRANCH  15  30
TORSDOF 4
ENDMDL
MODEL 8
REMARK VINA RESULT:      -7.4      5.210      7.463
REMARK  4 active torsions:
REMARK  status: ('A' for Active; 'I' for Inactive)
REMARK    1  A    between atoms: O1_2  and  C2_3 
REMARK    2  A    between atoms: C7_11  and  N3_12 
REMARK    3  A    between atoms: N3_12  and  C8_13 
REMARK    4  A    between atoms: C17_26  and  O3_27 
ROOT
HETATM    1  C2  UNL     1      17.436   0.577  51.363  1.00  0.00     0.087 C 
HETATM    2  C3  UNL     1      18.232   1.249  50.503  1.00  0.00     0.082 C 
HETATM    3  C4  UNL     1      18.813   2.050  49.439  1.00  0.00     0.189 C 
HETATM    4  O2  UNL     1      19.549   3.118  49.875  1.00  0.00    -0.332 OA
HETATM    5  C5  UNL     1      20.676   3.192  50.593  1.00  0.00     0.196 A 
HETATM    6  N1  UNL     1      20.660   4.267  51.404  1.00  0.00    -0.216 NA
HETATM    7  C6  UNL     1      21.660   4.606  52.238  1.00  0.00     0.238 A 
HETATM    8  N2  UNL     1      22.773   3.853  52.303  1.00  0.00    -0.222 NA
HETATM    9  C7  UNL     1      22.888   2.743  51.522  1.00  0.00     0.160 A 
HETATM   10  C14 UNL     1      21.847   2.421  50.681  1.00  0.00     0.129 A 
HETATM   11  N4  UNL     1      21.904   1.229  49.861  1.00  0.00    -0.367 N 
HETATM   12  C15 UNL     1      21.345   0.167  50.632  1.00  0.00     0.243 C 
HETATM   13  N5  UNL     1      20.384   0.620  51.609  1.00  0.00    -0.381 N 
HETATM   14  C16 UNL     1      19.501  -0.074  52.474  1.00  0.00     0.123 C 
HETATM   15  C17 UNL     1      18.158  -0.128  52.412  1.00  0.00     0.112 C 
HETATM   16  H12 UNL     1      22.340   1.806  49.137  1.00  0.00     0.161 HD
HETATM   17  H15 UNL     1      20.020   1.523  52.043  1.00  0.00     0.160 HD
ENDROOT
BRANCH   9  18
HETATM   18  N3  UNL     1      23.951   1.843  51.374  1.00  0.00    -0.339 N 
HETATM   19  H8  UNL     1      24.238   1.375  50.498  1.00  0.00     0.167 HD
BRANCH  18  20
HETATM   20  C8  UNL     1      24.853   1.378  52.341  1.00  0.00     0.035 A 
HETATM   21  C9  UNL     1      24.732   0.289  53.186  1.00  0.00     0.032 A 
HETATM   22  C10 UNL     1      25.652  -0.130  54.113  1.00  0.00     0.046 A 
HETATM   23  C11 UNL     1      26.824   0.579  54.246  1.00  0.00     0.138 A 
HETATM   24  F1  UNL     1      27.687   0.115  55.176  1.00  0.00    -0.204 F 
HETATM   25  C12 UNL     1      27.013   1.662  53.450  1.00  0.00     0.074 A 
HETATM   26 CL1  UNL     1      28.546   2.489  53.705  1.00  0.00    -0.081 Cl
HETATM   27  C13 UNL     1      26.069   2.045  52.536  1.00  0.00     0.056 A 
ENDBRANCH  18  20
ENDBRANCH   9  18
BRANCH   1  28
HETATM   28  O1  UNL     1      16.128   0.197  51.769  1.00  0.00    -0.357 OA
HETATM   29  C1  UNL     1      15.212  -0.430  50.912  1.00  0.00     0.209 C 
ENDBRANCH   1  28
BRANCH  15  30
HETATM   30  O3  UNL     1      17.803  -0.924  53.475  1.00  0.00    -0.352 OA
HETATM   31  C18 UNL     1      17.891  -2.312  53.559  1.00  0.00     0.210 C 
ENDBRANCH  15  30
TORSDOF 4
ENDMDL
MODEL 9
REMARK VINA RESULT:      -7.3      4.978      8.079
REMARK  4 active torsions:
REMARK  status: ('A' for Active; 'I' for Inactive)
REMARK    1  A    between atoms: O1_2  and  C2_3 
REMARK    2  A    between atoms: C7_11  and  N3_12 
REMARK    3  A    between atoms: N3_12  and  C8_13 
REMARK    4  A    between atoms: C17_26  and  O3_27 
ROOT
HETATM    1  C2  UNL     1      26.255   7.388  49.572  1.00  0.00     0.087 C 
HETATM    2  C3  UNL     1      25.255   7.049  50.415  1.00  0.00     0.082 C 
HETATM    3  C4  UNL     1      24.166   6.997  51.375  1.00  0.00     0.189 C 
HETATM    4  O2  UNL     1      23.006   6.461  50.884  1.00  0.00    -0.332 OA
HETATM    5  C5  UNL     1      22.710   5.238  50.431  1.00  0.00     0.196 A 
HETATM    6  N1  UNL     1      21.824   5.301  49.419  1.00  0.00    -0.216 NA
HETATM    7  C6  UNL     1      21.334   4.230  48.768  1.00  0.00     0.238 A 
HETATM    8  N2  UNL     1      21.723   2.989  49.115  1.00  0.00    -0.222 NA
HETATM    9  C7  UNL     1      22.617   2.817  50.128  1.00  0.00     0.160 A 
HETATM   10  C14 UNL     1      23.103   3.932  50.773  1.00  0.00     0.129 A 
HETATM   11  N4  UNL     1      24.086   3.804  51.828  1.00  0.00    -0.367 N 
HETATM   12  C15 UNL     1      25.369   3.850  51.208  1.00  0.00     0.243 C 
HETATM   13  N5  UNL     1      25.376   4.592  49.970  1.00  0.00    -0.381 N 
HETATM   14  C16 UNL     1      26.423   5.004  49.110  1.00  0.00     0.123 C 
HETATM   15  C17 UNL     1      26.864   6.257  48.888  1.00  0.00     0.112 C 
HETATM   16  H12 UNL     1      23.302   3.738  52.483  1.00  0.00     0.161 HD
HETATM   17  H15 UNL     1      24.698   5.038  49.279  1.00  0.00     0.160 HD
ENDROOT
BRANCH   9  18
HETATM   18  N3  UNL     1      23.127   1.644  50.699  1.00  0.00    -0.339 N 
HETATM   19  H8  UNL     1      24.010   1.172  50.439  1.00  0.00     0.167 HD
BRANCH  18  20
HETATM   20  C8  UNL     1      22.587   0.856  51.725  1.00  0.00     0.035 A 
HETATM   21  C9  UNL     1      23.235   0.269  52.798  1.00  0.00     0.032 A 
HETATM   22  C10 UNL     1      22.657  -0.490  53.784  1.00  0.00     0.046 A 
HETATM   23  C11 UNL     1      21.299  -0.712  53.733  1.00  0.00     0.138 A 
HETATM   24  F1  UNL     1      20.793  -1.466  54.732  1.00  0.00    -0.204 F 
HETATM   25  C12 UNL     1      20.597  -0.167  52.708  1.00  0.00     0.074 A 
HETATM   26 CL1  UNL     1      18.872  -0.515  52.747  1.00  0.00    -0.081 Cl
HETATM   27  C13 UNL     1      21.214   0.585  51.745  1.00  0.00     0.056 A 
ENDBRANCH  18  20
ENDBRANCH   9  18
BRANCH   1  28
HETATM   28  O1  UNL     1      27.063   8.400  48.985  1.00  0.00    -0.357 OA
HETATM   29  C1  UNL     1      27.909   9.232  49.732  1.00  0.00     0.209 C 
ENDBRANCH   1  28
BRANCH  15  30
HETATM   30  O3  UNL     1      27.881   6.100  47.976  1.00  0.00    -0.352 OA
HETATM   31  C18 UNL     1      29.151   5.576  48.207  1.00  0.00     0.210 C 
ENDBRANCH  15  30
TORSDOF 4
ENDMDL
